MODEL 1
REMARK VINA RESULT:     -12.6      0.000      0.000
REMARK  Name = 
REMARK  5 active torsions:
REMARK  status: ('A' for Active; 'I' for Inactive)
REMARK    1  A    between atoms: C_4  and  C_19
REMARK    2  A    between atoms: C_5  and  N_6
REMARK    3  A    between atoms: C_7  and  C_9
REMARK    4  A    between atoms: C_11  and  C_15
REMARK    5  A    between atoms: C_22  and  N_25
REMARK                            x       y       z     vdW  Elec       q    Type
REMARK                         _______ _______ _______ _____ _____    ______ ____
ROOT
ATOM      1  O   UNL     1      -6.397   2.353  25.065  0.00  0.00    -0.220 OA
ATOM      2  C   UNL     1      -5.599   2.161  24.999  0.00  0.00    +0.184 C 
ATOM      3  C   UNL     1      -5.286   1.400  24.943  0.00  0.00    +0.042 C 
ATOM      4  C   UNL     1      -4.465   1.465  24.888  0.00  0.00    +0.049 C 
ATOM      5  C   UNL     1      -4.270   2.266  24.909  0.00  0.00    +0.133 C 
ATOM     17  C   UNL     1      -4.971   2.697  24.978  0.00  0.00    +0.202 C 
ATOM     18  O   UNL     1      -5.033   3.519  25.019  0.00  0.00    -0.219 OA
ENDROOT
BRANCH   4  19
ATOM     19  C   UNL     1      -3.933   0.838  24.822  0.00  0.00    -0.001 A 
ATOM     20  C   UNL     1      -3.794   0.345  25.467  0.00  0.00    +0.000 A 
ATOM     21  C   UNL     1      -3.262  -0.282  25.401  0.00  0.00    +0.034 A 
ATOM     22  C   UNL     1      -2.868  -0.415  24.689  0.00  0.00    +0.132 A 
ATOM     23  N   UNL     1      -3.005   0.079  24.042  0.00  0.00    -0.229 NA
ATOM     24  C   UNL     1      -3.538   0.706  24.109  0.00  0.00    +0.096 A 
BRANCH  22  25
ATOM     25  N   UNL     1      -2.335  -1.042  24.623  0.00  0.00    -0.288 N 
ATOM     26  C   UNL     1      -2.612  -1.806  24.486  0.00  0.00    +0.124 C 
ATOM     27  C   UNL     1      -2.081  -2.433  24.420  0.00  0.00    +0.164 C 
ATOM     28  O   UNL     1      -1.270  -2.296  24.490  0.00  0.00    -0.350 OA
ATOM     29  C   UNL     1      -0.992  -1.531  24.627  0.00  0.00    +0.164 C 
ATOM     30  C   UNL     1      -1.525  -0.904  24.693  0.00  0.00    +0.124 C 
ENDBRANCH  22  25
ENDBRANCH   4  19
BRANCH   5   6
ATOM      6  N   UNL     1      -3.510   2.582  24.869  0.00  0.00    -0.200 NA
ATOM      7  C   UNL     1      -3.267   3.145  25.420  0.00  0.00    +0.265 C 
ATOM      8  O   UNL     1      -3.785   3.393  26.012  0.00  0.00    -0.268 OA
BRANCH   7   9
ATOM      9  C   UNL     1      -2.505   3.461  25.380  0.00  0.00    +0.056 A 
ATOM     10  C   UNL     1      -1.862   3.022  25.648  0.00  0.00    +0.015 A 
ATOM     11  C   UNL     1      -1.100   3.337  25.607  0.00  0.00    +0.069 A 
ATOM     12  C   UNL     1      -0.983   4.093  25.298  0.00  0.00    +0.010 A 
ATOM     13  C   UNL     1      -1.627   4.533  25.030  0.00  0.00    +0.001 A 
ATOM     14  C   UNL     1      -2.389   4.218  25.070  0.00  0.00    +0.005 A 
BRANCH  11  15
ATOM     15  C   UNL     1      -0.457   2.897  25.875  0.00  0.00    +0.100 C 
ATOM     16  N   UNL     1       0.187   2.457  26.145  0.00  0.00    -0.191 NA
ENDBRANCH  11  15
ENDBRANCH   7   9
ENDBRANCH   5   6
TORSDOF 5
ENDMDL
MODEL 2
REMARK VINA RESULT:     -11.9      1.490      3.411
REMARK  Name = 
REMARK  5 active torsions:
REMARK  status: ('A' for Active; 'I' for Inactive)
REMARK    1  A    between atoms: C_4  and  C_19
REMARK    2  A    between atoms: C_5  and  N_6
REMARK    3  A    between atoms: C_7  and  C_9
REMARK    4  A    between atoms: C_11  and  C_15
REMARK    5  A    between atoms: C_22  and  N_25
REMARK                            x       y       z     vdW  Elec       q    Type
REMARK                         _______ _______ _______ _____ _____    ______ ____
ROOT
ATOM      1  O   UNL     1      -0.728   5.481  24.970  0.00  0.00    -0.220 OA
ATOM      2  C   UNL     1      -1.076   4.738  25.044  0.00  0.00    +0.184 C 
ATOM      3  C   UNL     1      -0.702   4.013  24.922  0.00  0.00    +0.042 C 
ATOM      4  C   UNL     1      -1.255   3.415  25.056  0.00  0.00    +0.049 C 
ATOM      5  C   UNL     1      -1.971   3.771  25.259  0.00  0.00    +0.133 C 
ATOM     17  C   UNL     1      -1.860   4.589  25.252  0.00  0.00    +0.202 C 
ATOM     18  O   UNL     1      -2.434   5.157  25.423  0.00  0.00    -0.219 OA
ENDROOT
BRANCH   4  19
ATOM     19  C   UNL     1      -1.116   2.604  24.996  0.00  0.00    -0.001 A 
ATOM     20  C   UNL     1      -0.949   2.163  25.672  0.00  0.00    +0.000 A 
ATOM     21  C   UNL     1      -0.810   1.352  25.611  0.00  0.00    +0.034 A 
ATOM     22  C   UNL     1      -0.838   0.982  24.875  0.00  0.00    +0.132 A 
ATOM     23  N   UNL     1      -1.004   1.423  24.197  0.00  0.00    -0.229 NA
ATOM     24  C   UNL     1      -1.143   2.235  24.258  0.00  0.00    +0.096 A 
BRANCH  22  25
ATOM     25  N   UNL     1      -0.699   0.171  24.814  0.00  0.00    -0.288 N 
ATOM     26  C   UNL     1      -0.184  -0.117  24.238  0.00  0.00    +0.124 C 
ATOM     27  C   UNL     1      -0.044  -0.928  24.177  0.00  0.00    +0.164 C 
ATOM     28  O   UNL     1      -0.420  -1.451  24.693  0.00  0.00    -0.350 OA
ATOM     29  C   UNL     1      -0.935  -1.163  25.270  0.00  0.00    +0.164 C 
ATOM     30  C   UNL     1      -1.074  -0.351  25.330  0.00  0.00    +0.124 C 
ENDBRANCH  22  25
ENDBRANCH   4  19
BRANCH   5   6
ATOM      6  N   UNL     1      -2.674   3.378  25.438  0.00  0.00    -0.200 NA
ATOM      7  C   UNL     1      -3.362   3.551  25.018  0.00  0.00    +0.265 C 
ATOM      8  O   UNL     1      -3.348   4.116  24.417  0.00  0.00    -0.268 OA
BRANCH   7   9
ATOM      9  C   UNL     1      -4.065   3.157  25.198  0.00  0.00    +0.056 A 
ATOM     10  C   UNL     1      -4.163   2.368  24.981  0.00  0.00    +0.015 A 
ATOM     11  C   UNL     1      -4.867   1.975  25.161  0.00  0.00    +0.069 A 
ATOM     12  C   UNL     1      -5.471   2.372  25.558  0.00  0.00    +0.010 A 
ATOM     13  C   UNL     1      -5.372   3.162  25.775  0.00  0.00    +0.001 A 
ATOM     14  C   UNL     1      -4.669   3.555  25.595  0.00  0.00    +0.005 A 
BRANCH  11  15
ATOM     15  C   UNL     1      -4.964   1.186  24.944  0.00  0.00    +0.100 C 
ATOM     16  N   UNL     1      -5.061   0.396  24.727  0.00  0.00    -0.191 NA
ENDBRANCH  11  15
ENDBRANCH   7   9
ENDBRANCH   5   6
TORSDOF 5
ENDMDL
MODEL 3
REMARK VINA RESULT:     -11.8      1.368      4.231
REMARK  Name = 
REMARK  5 active torsions:
REMARK  status: ('A' for Active; 'I' for Inactive)
REMARK    1  A    between atoms: C_4  and  C_19
REMARK    2  A    between atoms: C_5  and  N_6
REMARK    3  A    between atoms: C_7  and  C_9
REMARK    4  A    between atoms: C_11  and  C_15
REMARK    5  A    between atoms: C_22  and  N_25
REMARK                            x       y       z     vdW  Elec       q    Type
REMARK                         _______ _______ _______ _____ _____    ______ ____
ROOT
ATOM      1  O   UNL     1      -3.110  -3.284  24.652  0.00  0.00    -0.220 OA
ATOM      2  C   UNL     1      -3.046  -2.462  24.633  0.00  0.00    +0.184 C 
ATOM      3  C   UNL     1      -3.651  -1.925  24.791  0.00  0.00    +0.042 C 
ATOM      4  C   UNL     1      -3.344  -1.163  24.709  0.00  0.00    +0.049 C 
ATOM      5  C   UNL     1      -2.549  -1.230  24.501  0.00  0.00    +0.133 C 
ATOM     17  C   UNL     1      -2.364  -2.033  24.454  0.00  0.00    +0.202 C 
ATOM     18  O   UNL     1      -1.627  -2.351  24.261  0.00  0.00    -0.219 OA
ENDROOT
BRANCH   4  19
ATOM     19  C   UNL     1      -3.760  -0.459  24.817  0.00  0.00    -0.001 A 
ATOM     20  C   UNL     1      -3.966   0.002  24.165  0.00  0.00    +0.000 A 
ATOM     21  C   UNL     1      -4.382   0.707  24.273  0.00  0.00    +0.034 A 
ATOM     22  C   UNL     1      -4.591   0.950  25.032  0.00  0.00    +0.132 A 
ATOM     23  N   UNL     1      -4.385   0.489  25.685  0.00  0.00    -0.229 NA
ATOM     24  C   UNL     1      -3.969  -0.216  25.577  0.00  0.00    +0.096 A 
BRANCH  22  25
ATOM     25  N   UNL     1      -5.007   1.655  25.141  0.00  0.00    -0.288 N 
ATOM     26  C   UNL     1      -4.606   2.375  25.134  0.00  0.00    +0.124 C 
ATOM     27  C   UNL     1      -5.021   3.080  25.243  0.00  0.00    +0.164 C 
ATOM     28  O   UNL     1      -5.838   3.064  25.357  0.00  0.00    -0.350 OA
ATOM     29  C   UNL     1      -6.239   2.343  25.364  0.00  0.00    +0.164 C 
ATOM     30  C   UNL     1      -5.823   1.638  25.255  0.00  0.00    +0.124 C 
ENDBRANCH  22  25
ENDBRANCH   4  19
BRANCH   5   6
ATOM      6  N   UNL     1      -2.029  -0.605  24.363  0.00  0.00    -0.200 NA
ATOM      7  C   UNL     1      -1.327  -0.550  24.792  0.00  0.00    +0.265 C 
ATOM      8  O   UNL     1      -1.144  -1.120  25.359  0.00  0.00    -0.268 OA
BRANCH   7   9
ATOM      9  C   UNL     1      -0.807   0.077  24.654  0.00  0.00    +0.056 A 
ATOM     10  C   UNL     1      -0.767   0.705  25.187  0.00  0.00    +0.015 A 
ATOM     11  C   UNL     1      -0.247   1.331  25.049  0.00  0.00    +0.069 A 
ATOM     12  C   UNL     1       0.232   1.328  24.378  0.00  0.00    +0.010 A 
ATOM     13  C   UNL     1       0.193   0.699  23.845  0.00  0.00    +0.001 A 
ATOM     14  C   UNL     1      -0.327   0.073  23.983  0.00  0.00    +0.005 A 
BRANCH  11  15
ATOM     15  C   UNL     1      -0.208   1.959  25.582  0.00  0.00    +0.100 C 
ATOM     16  N   UNL     1      -0.168   2.587  26.115  0.00  0.00    -0.191 NA
ENDBRANCH  11  15
ENDBRANCH   7   9
ENDBRANCH   5   6
TORSDOF 5
ENDMDL
MODEL 4
REMARK VINA RESULT:     -11.8      1.738      3.902
REMARK  Name = 
REMARK  5 active torsions:
REMARK  status: ('A' for Active; 'I' for Inactive)
REMARK    1  A    between atoms: C_4  and  C_19
REMARK    2  A    between atoms: C_5  and  N_6
REMARK    3  A    between atoms: C_7  and  C_9
REMARK    4  A    between atoms: C_11  and  C_15
REMARK    5  A    between atoms: C_22  and  N_25
REMARK                            x       y       z     vdW  Elec       q    Type
REMARK                         _______ _______ _______ _____ _____    ______ ____
ROOT
ATOM      1  O   UNL     1      -5.816   2.882  25.335  0.00  0.00    -0.220 OA
ATOM      2  C   UNL     1      -5.167   2.433  25.096  0.00  0.00    +0.184 C 
ATOM      3  C   UNL     1      -4.385   2.692  25.060  0.00  0.00    +0.042 C 
ATOM      4  C   UNL     1      -3.920   2.064  24.793  0.00  0.00    +0.049 C 
ATOM      5  C   UNL     1      -4.416   1.417  24.664  0.00  0.00    +0.133 C 
ATOM     17  C   UNL     1      -5.187   1.645  24.851  0.00  0.00    +0.202 C 
ATOM     18  O   UNL     1      -5.859   1.168  24.802  0.00  0.00    -0.219 OA
ENDROOT
BRANCH   4  19
ATOM     19  C   UNL     1      -3.104   2.081  24.675  0.00  0.00    -0.001 A 
ATOM     20  C   UNL     1      -2.798   2.141  23.912  0.00  0.00    +0.000 A 
ATOM     21  C   UNL     1      -1.981   2.158  23.795  0.00  0.00    +0.034 A 
ATOM     22  C   UNL     1      -1.471   2.115  24.441  0.00  0.00    +0.132 A 
ATOM     23  N   UNL     1      -1.777   2.055  25.206  0.00  0.00    -0.229 NA
ATOM     24  C   UNL     1      -2.594   2.038  25.323  0.00  0.00    +0.096 A 
BRANCH  22  25
ATOM     25  N   UNL     1      -0.654   2.132  24.324  0.00  0.00    -0.288 N 
ATOM     26  C   UNL     1      -0.236   1.427  24.237  0.00  0.00    +0.124 C 
ATOM     27  C   UNL     1       0.581   1.443  24.120  0.00  0.00    +0.164 C 
ATOM     28  O   UNL     1       0.979   2.165  24.091  0.00  0.00    -0.350 OA
ATOM     29  C   UNL     1       0.560   2.871  24.178  0.00  0.00    +0.164 C 
ATOM     30  C   UNL     1      -0.257   2.854  24.295  0.00  0.00    +0.124 C 
ENDBRANCH  22  25
ENDBRANCH   4  19
BRANCH   5   6
ATOM      6  N   UNL     1      -4.182   0.673  24.394  0.00  0.00    -0.200 NA
ATOM      7  C   UNL     1      -4.317   0.006  24.859  0.00  0.00    +0.265 C 
ATOM      8  O   UNL     1      -4.685   0.080  25.593  0.00  0.00    -0.268 OA
BRANCH   7   9
ATOM      9  C   UNL     1      -4.083  -0.739  24.589  0.00  0.00    +0.056 A 
ATOM     10  C   UNL     1      -3.360  -1.055  24.827  0.00  0.00    +0.015 A 
ATOM     11  C   UNL     1      -3.126  -1.799  24.557  0.00  0.00    +0.069 A 
ATOM     12  C   UNL     1      -3.615  -2.226  24.049  0.00  0.00    +0.010 A 
ATOM     13  C   UNL     1      -4.339  -1.910  23.810  0.00  0.00    +0.001 A 
ATOM     14  C   UNL     1      -4.573  -1.165  24.080  0.00  0.00    +0.005 A 
BRANCH  11  15
ATOM     15  C   UNL     1      -2.403  -2.115  24.795  0.00  0.00    +0.100 C 
ATOM     16  N   UNL     1      -1.679  -2.431  25.033  0.00  0.00    -0.191 NA
ENDBRANCH  11  15
ENDBRANCH   7   9
ENDBRANCH   5   6
TORSDOF 5
ENDMDL
