MODEL 1
REMARK VINA RESULT:     -11.2      0.000      0.000
REMARK  Name = 
REMARK  4 active torsions:
REMARK  status: ('A' for Active; 'I' for Inactive)
REMARK    1  A    between atoms: C_7  and  C_8
REMARK    2  A    between atoms: C_10  and  C_13
REMARK    3  A    between atoms: C_16  and  O_17
REMARK    4  A    between atoms: O_17  and  C_18
REMARK                            x       y       z     vdW  Elec       q    Type
REMARK                         _______ _______ _______ _____ _____    ______ ____
ROOT
ATOM      8  C   UNL     1      -4.196   1.969  24.698  0.00  0.00    +0.251 A 
ATOM      9  N   UNL     1      -4.246   1.224  25.051  0.00  0.00    -0.190 NA
ATOM     10  C   UNL     1      -3.903   0.676  24.540  0.00  0.00    +0.203 A 
ATOM     11  N   UNL     1      -3.640   1.080  23.871  0.00  0.00    -0.056 NA
ATOM     12  O   UNL     1      -3.821   1.878  23.968  0.00  0.00    -0.336 OA
ENDROOT
BRANCH   8   7
ATOM      1  C   UNL     1      -3.186   3.371  25.180  0.00  0.00    +0.090 C 
ATOM      2  N   UNL     1      -4.008   3.321  25.239  0.00  0.00    -0.263 NA
ATOM      3  C   UNL     1      -4.508   3.908  25.531  0.00  0.00    +0.106 C 
ATOM      4  C   UNL     1      -5.283   3.626  25.490  0.00  0.00    +0.170 C 
ATOM      5  O   UNL     1      -5.960   4.033  25.724  0.00  0.00    -0.222 OA
ATOM      6  C   UNL     1      -5.260   2.865  25.172  0.00  0.00    +0.060 C 
ATOM      7  C   UNL     1      -4.471   2.677  25.018  0.00  0.00    +0.140 C 
ENDBRANCH   8   7
BRANCH  10  13
ATOM     13  C   UNL     1      -3.834  -0.136  24.674  0.00  0.00    +0.039 A 
ATOM     14  C   UNL     1      -3.427  -0.410  25.337  0.00  0.00    +0.006 A 
ATOM     15  C   UNL     1      -3.359  -1.222  25.472  0.00  0.00    +0.037 A 
ATOM     16  C   UNL     1      -3.697  -1.758  24.944  0.00  0.00    +0.147 A 
ATOM     22  C   UNL     1      -4.104  -1.483  24.281  0.00  0.00    +0.037 A 
ATOM     23  C   UNL     1      -4.172  -0.672  24.146  0.00  0.00    +0.006 A 
BRANCH  16  17
ATOM     17  O   UNL     1      -3.628  -2.569  25.078  0.00  0.00    -0.404 OA
BRANCH  17  18
ATOM     18  C   UNL     1      -3.246  -3.047  24.526  0.00  0.00    +0.575 C 
ATOM     19  F   UNL     1      -2.864  -3.526  23.972  0.00  0.00    -0.133 F 
ATOM     20  F   UNL     1      -3.975  -3.251  24.198  0.00  0.00    -0.133 F 
ATOM     21  F   UNL     1      -2.516  -2.844  24.853  0.00  0.00    -0.133 F 
ENDBRANCH  17  18
ENDBRANCH  16  17
ENDBRANCH  10  13
TORSDOF 4
ENDMDL
MODEL 2
REMARK VINA RESULT:     -11.0      1.243      1.815
REMARK  Name = 
REMARK  4 active torsions:
REMARK  status: ('A' for Active; 'I' for Inactive)
REMARK    1  A    between atoms: C_7  and  C_8
REMARK    2  A    between atoms: C_10  and  C_13
REMARK    3  A    between atoms: C_16  and  O_17
REMARK    4  A    between atoms: O_17  and  C_18
REMARK                            x       y       z     vdW  Elec       q    Type
REMARK                         _______ _______ _______ _____ _____    ______ ____
ROOT
ATOM      8  C   UNL     1      -3.207   2.538  24.773  0.00  0.00    +0.251 A 
ATOM      9  N   UNL     1      -3.075   1.735  24.914  0.00  0.00    -0.190 NA
ATOM     10  C   UNL     1      -3.687   1.311  24.560  0.00  0.00    +0.203 A 
ATOM     11  N   UNL     1      -4.197   1.850  24.201  0.00  0.00    -0.056 NA
ATOM     12  O   UNL     1      -3.901   2.607  24.333  0.00  0.00    -0.336 OA
ENDROOT
BRANCH   8   7
ATOM      1  C   UNL     1      -3.668   3.803  25.958  0.00  0.00    +0.090 C 
ATOM      2  N   UNL     1      -2.941   3.741  25.573  0.00  0.00    -0.263 NA
ATOM      3  C   UNL     1      -2.299   4.251  25.666  0.00  0.00    +0.106 C 
ATOM      4  C   UNL     1      -1.689   3.983  25.178  0.00  0.00    +0.170 C 
ATOM      5  O   UNL     1      -0.945   4.329  25.099  0.00  0.00    -0.222 OA
ATOM      6  C   UNL     1      -1.955   3.309  24.784  0.00  0.00    +0.060 C 
ATOM      7  C   UNL     1      -2.730   3.159  25.029  0.00  0.00    +0.140 C 
ENDBRANCH   8   7
BRANCH  10  13
ATOM     13  C   UNL     1      -3.774   0.490  24.564  0.00  0.00    +0.039 A 
ATOM     14  C   UNL     1      -3.920   0.095  25.274  0.00  0.00    +0.006 A 
ATOM     15  C   UNL     1      -4.007  -0.726  25.278  0.00  0.00    +0.037 A 
ATOM     16  C   UNL     1      -3.947  -1.151  24.573  0.00  0.00    +0.147 A 
ATOM     22  C   UNL     1      -3.801  -0.756  23.864  0.00  0.00    +0.037 A 
ATOM     23  C   UNL     1      -3.714   0.065  23.860  0.00  0.00    +0.006 A 
BRANCH  16  17
ATOM     17  O   UNL     1      -4.034  -1.972  24.578  0.00  0.00    -0.404 OA
BRANCH  17  18
ATOM     18  C   UNL     1      -3.400  -2.452  24.799  0.00  0.00    +0.575 C 
ATOM     19  F   UNL     1      -2.767  -2.932  25.020  0.00  0.00    -0.133 F 
ATOM     20  F   UNL     1      -3.129  -2.453  24.020  0.00  0.00    -0.133 F 
ATOM     21  F   UNL     1      -3.671  -2.451  25.579  0.00  0.00    -0.133 F 
ENDBRANCH  17  18
ENDBRANCH  16  17
ENDBRANCH  10  13
TORSDOF 4
ENDMDL
MODEL 3
REMARK VINA RESULT:     -10.3      3.052      5.153
REMARK  Name = 
REMARK  4 active torsions:
REMARK  status: ('A' for Active; 'I' for Inactive)
REMARK    1  A    between atoms: C_7  and  C_8
REMARK    2  A    between atoms: C_10  and  C_13
REMARK    3  A    between atoms: C_16  and  O_17
REMARK    4  A    between atoms: O_17  and  C_18
REMARK                            x       y       z     vdW  Elec       q    Type
REMARK                         _______ _______ _______ _____ _____    ______ ____
ROOT
ATOM      8  C   UNL     1      -4.178   0.059  24.747  0.00  0.00    +0.251 A 
ATOM      9  N   UNL     1      -3.615   0.659  24.680  0.00  0.00    -0.190 NA
ATOM     10  C   UNL     1      -3.991   1.378  24.825  0.00  0.00    +0.203 A 
ATOM     11  N   UNL     1      -4.785   1.224  24.982  0.00  0.00    -0.056 NA
ATOM     12  O   UNL     1      -4.901   0.409  24.934  0.00  0.00    -0.336 OA
ENDROOT
BRANCH   8   7
ATOM      1  C   UNL     1      -3.391  -1.034  25.932  0.00  0.00    +0.090 C 
ATOM      2  N   UNL     1      -3.679  -1.250  25.190  0.00  0.00    -0.263 NA
ATOM      3  C   UNL     1      -3.656  -2.007  24.863  0.00  0.00    +0.106 C 
ATOM      4  C   UNL     1      -4.004  -1.973  24.116  0.00  0.00    +0.170 C 
ATOM      5  O   UNL     1      -4.098  -2.605  23.595  0.00  0.00    -0.222 OA
ATOM      6  C   UNL     1      -4.242  -1.194  23.981  0.00  0.00    +0.060 C 
ATOM      7  C   UNL     1      -4.041  -0.748  24.646  0.00  0.00    +0.140 C 
ENDBRANCH   8   7
BRANCH  10  13
ATOM     13  C   UNL     1      -3.634   2.122  24.816  0.00  0.00    +0.039 A 
ATOM     14  C   UNL     1      -3.018   2.277  24.289  0.00  0.00    +0.006 A 
ATOM     15  C   UNL     1      -2.661   3.021  24.279  0.00  0.00    +0.037 A 
ATOM     16  C   UNL     1      -2.921   3.610  24.796  0.00  0.00    +0.147 A 
ATOM     22  C   UNL     1      -3.537   3.455  25.322  0.00  0.00    +0.037 A 
ATOM     23  C   UNL     1      -3.893   2.711  25.332  0.00  0.00    +0.006 A 
BRANCH  16  17
ATOM     17  O   UNL     1      -2.564   4.354  24.786  0.00  0.00    -0.404 OA
BRANCH  17  18
ATOM     18  C   UNL     1      -1.888   4.493  25.237  0.00  0.00    +0.575 C 
ATOM     19  F   UNL     1      -1.211   4.631  25.688  0.00  0.00    -0.133 F 
ATOM     20  F   UNL     1      -1.415   4.271  24.598  0.00  0.00    -0.133 F 
ATOM     21  F   UNL     1      -2.359   4.714  25.877  0.00  0.00    -0.133 F 
ENDBRANCH  17  18
ENDBRANCH  16  17
ENDBRANCH  10  13
TORSDOF 4
ENDMDL
