MODEL 1
REMARK VINA RESULT:     -10.0      0.000      0.000
REMARK  Name = 
REMARK  7 active torsions:
REMARK  status: ('A' for Active; 'I' for Inactive)
REMARK    1  A    between atoms: C_5  and  S_8
REMARK    2  A    between atoms: S_8  and  N_11
REMARK    3  A    between atoms: N_11  and  C_12
REMARK    4  A    between atoms: C_12  and  C_13
REMARK    5  A    between atoms: C_16  and  N_17
REMARK    6  A    between atoms: N_17  and  C_18
REMARK    7  A    between atoms: C_18  and  C_19
REMARK                            x       y       z     vdW  Elec       q    Type
REMARK                         _______ _______ _______ _____ _____    ______ ____
ROOT
ATOM     13  C   UNL     1      -3.939   1.735  24.689  0.00  0.00    +0.166 C 
ATOM     14  O   UNL     1      -4.326   2.129  25.301  0.00  0.00    -0.350 OA
ATOM     15  C   UNL     1      -3.990   2.878  25.374  0.00  0.00    +0.162 C 
ATOM     16  C   UNL     1      -3.395   2.948  24.807  0.00  0.00    +0.135 C 
ATOM     25  C   UNL     1      -3.363   2.241  24.383  0.00  0.00    +0.199 C 
ATOM     26  O   UNL     1      -2.848   2.070  23.763  0.00  0.00    -0.219 OA
ENDROOT
BRANCH  13  12
ATOM     12  C   UNL     1      -4.099   0.969  24.427  0.00  0.00    +0.148 C 
BRANCH  12  11
ATOM     11  N   UNL     1      -4.325   0.388  24.967  0.00  0.00    -0.075 NA
BRANCH  11   8
ATOM      8  S   UNL     1      -4.158  -0.406  24.812  0.00  0.00    +0.077 S 
ATOM      9  O   UNL     1      -4.412  -0.308  24.033  0.00  0.00    -0.152 OA
ATOM     10  O   UNL     1      -3.905  -0.504  25.591  0.00  0.00    -0.152 OA
BRANCH   8   5
ATOM      1  C   UNL     1      -3.491  -3.579  24.196  0.00  0.00    +0.031 C 
ATOM      2  C   UNL     1      -3.658  -2.785  24.350  0.00  0.00    -0.022 A 
ATOM      3  C   UNL     1      -3.331  -2.416  25.012  0.00  0.00    -0.003 A 
ATOM      4  C   UNL     1      -3.497  -1.623  25.166  0.00  0.00    +0.020 A 
ATOM      5  C   UNL     1      -3.992  -1.198  24.659  0.00  0.00    +0.124 A 
ATOM      6  C   UNL     1      -4.319  -1.568  23.998  0.00  0.00    +0.020 A 
ATOM      7  C   UNL     1      -4.152  -2.361  23.844  0.00  0.00    -0.003 A 
ENDBRANCH   8   5
ENDBRANCH  11   8
ENDBRANCH  12  11
ENDBRANCH  13  12
BRANCH  16  17
ATOM     17  N   UNL     1      -2.916   3.608  24.685  0.00  0.00    -0.209 NA
BRANCH  17  18
ATOM     18  C   UNL     1      -2.476   3.920  25.310  0.00  0.00    +0.117 C 
BRANCH  18  19
ATOM     19  C   UNL     1      -1.853   4.439  25.157  0.00  0.00    +0.014 A 
ATOM     20  C   UNL     1      -1.993   5.252  25.121  0.00  0.00    +0.000 A 
ATOM     21  C   UNL     1      -1.371   5.770  24.969  0.00  0.00    +0.020 A 
ATOM     22  C   UNL     1      -0.608   5.477  24.852  0.00  0.00    +0.099 A 
ATOM     23  N   UNL     1      -0.469   4.665  24.888  0.00  0.00    -0.243 NA
ATOM     24  C   UNL     1      -1.092   4.146  25.041  0.00  0.00    +0.096 A 
ENDBRANCH  18  19
ENDBRANCH  17  18
ENDBRANCH  16  17
TORSDOF 7
ENDMDL
MODEL 2
REMARK VINA RESULT:      -9.8      1.335      5.941
REMARK  Name = 
REMARK  7 active torsions:
REMARK  status: ('A' for Active; 'I' for Inactive)
REMARK    1  A    between atoms: C_5  and  S_8
REMARK    2  A    between atoms: S_8  and  N_11
REMARK    3  A    between atoms: N_11  and  C_12
REMARK    4  A    between atoms: C_12  and  C_13
REMARK    5  A    between atoms: C_16  and  N_17
REMARK    6  A    between atoms: N_17  and  C_18
REMARK    7  A    between atoms: C_18  and  C_19
REMARK                            x       y       z     vdW  Elec       q    Type
REMARK                         _______ _______ _______ _____ _____    ______ ____
ROOT
ATOM     13  C   UNL     1      -3.879   1.723  24.650  0.00  0.00    +0.166 C 
ATOM     14  O   UNL     1      -4.485   1.530  25.175  0.00  0.00    -0.350 OA
ATOM     15  C   UNL     1      -4.652   0.727  25.086  0.00  0.00    +0.162 C 
ATOM     16  C   UNL     1      -4.150   0.424  24.506  0.00  0.00    +0.135 C 
ATOM     25  C   UNL     1      -3.671   1.039  24.237  0.00  0.00    +0.199 C 
ATOM     26  O   UNL     1      -3.089   0.982  23.656  0.00  0.00    -0.219 OA
ENDROOT
BRANCH  13  12
ATOM     12  C   UNL     1      -3.539   2.469  24.555  0.00  0.00    +0.148 C 
BRANCH  12  11
ATOM     11  N   UNL     1      -3.316   2.907  25.216  0.00  0.00    -0.075 NA
BRANCH  11   8
ATOM      8  S   UNL     1      -2.734   3.489  25.149  0.00  0.00    +0.077 S 
ATOM      9  O   UNL     1      -2.265   3.083  25.692  0.00  0.00    -0.152 OA
ATOM     10  O   UNL     1      -3.203   3.895  24.605  0.00  0.00    -0.152 OA
BRANCH   8   5
ATOM      1  C   UNL     1      -0.407   5.814  24.879  0.00  0.00    +0.031 C 
ATOM      2  C   UNL     1      -0.989   5.232  24.946  0.00  0.00    -0.022 A 
ATOM      3  C   UNL     1      -0.799   4.440  24.811  0.00  0.00    -0.003 A 
ATOM      4  C   UNL     1      -1.380   3.859  24.879  0.00  0.00    +0.020 A 
ATOM      5  C   UNL     1      -2.153   4.070  25.081  0.00  0.00    +0.124 A 
ATOM      6  C   UNL     1      -2.342   4.861  25.216  0.00  0.00    +0.020 A 
ATOM      7  C   UNL     1      -1.760   5.442  25.148  0.00  0.00    -0.003 A 
ENDBRANCH   8   5
ENDBRANCH  11   8
ENDBRANCH  12  11
ENDBRANCH  13  12
BRANCH  16  17
ATOM     17  N   UNL     1      -4.129  -0.358  24.242  0.00  0.00    -0.209 NA
BRANCH  17  18
ATOM     18  C   UNL     1      -4.249  -0.976  24.776  0.00  0.00    +0.117 C 
BRANCH  18  19
ATOM     19  C   UNL     1      -4.009  -1.741  24.580  0.00  0.00    +0.014 A 
ATOM     20  C   UNL     1      -3.461  -2.135  25.056  0.00  0.00    +0.000 A 
ATOM     21  C   UNL     1      -3.221  -2.900  24.860  0.00  0.00    +0.020 A 
ATOM     22  C   UNL     1      -3.528  -3.270  24.189  0.00  0.00    +0.099 A 
ATOM     23  N   UNL     1      -4.075  -2.875  23.715  0.00  0.00    -0.243 NA
ATOM     24  C   UNL     1      -4.315  -2.111  23.910  0.00  0.00    +0.096 A 
ENDBRANCH  18  19
ENDBRANCH  17  18
ENDBRANCH  16  17
TORSDOF 7
ENDMDL
MODEL 3
REMARK VINA RESULT:      -9.7      1.608      1.947
REMARK  Name = 
REMARK  7 active torsions:
REMARK  status: ('A' for Active; 'I' for Inactive)
REMARK    1  A    between atoms: C_5  and  S_8
REMARK    2  A    between atoms: S_8  and  N_11
REMARK    3  A    between atoms: N_11  and  C_12
REMARK    4  A    between atoms: C_12  and  C_13
REMARK    5  A    between atoms: C_16  and  N_17
REMARK    6  A    between atoms: N_17  and  C_18
REMARK    7  A    between atoms: C_18  and  C_19
REMARK                            x       y       z     vdW  Elec       q    Type
REMARK                         _______ _______ _______ _____ _____    ______ ____
ROOT
ATOM     13  C   UNL     1      -1.229   0.719  24.997  0.00  0.00    +0.166 C 
ATOM     14  O   UNL     1      -0.831   0.830  25.710  0.00  0.00    -0.350 OA
ATOM     15  C   UNL     1      -0.622   1.625  25.765  0.00  0.00    +0.162 C 
ATOM     16  C   UNL     1      -0.890   2.007  25.085  0.00  0.00    +0.135 C 
ATOM     25  C   UNL     1      -1.266   1.448  24.610  0.00  0.00    +0.199 C 
ATOM     26  O   UNL     1      -1.616   1.590  23.878  0.00  0.00    -0.219 OA
ENDROOT
BRANCH  13  12
ATOM     12  C   UNL     1      -1.537   0.006  24.718  0.00  0.00    +0.148 C 
BRANCH  12  11
ATOM     11  N   UNL     1      -1.936  -0.499  25.232  0.00  0.00    -0.075 NA
BRANCH  11   8
ATOM      8  S   UNL     1      -2.466  -1.058  24.933  0.00  0.00    +0.077 S 
ATOM      9  O   UNL     1      -1.861  -1.390  24.481  0.00  0.00    -0.152 OA
ATOM     10  O   UNL     1      -3.071  -0.726  25.385  0.00  0.00    -0.152 OA
BRANCH   8   5
ATOM      1  C   UNL     1      -4.583  -3.290  23.738  0.00  0.00    +0.031 C 
ATOM      2  C   UNL     1      -4.053  -2.731  24.037  0.00  0.00    -0.022 A 
ATOM      3  C   UNL     1      -4.175  -1.928  23.892  0.00  0.00    -0.003 A 
ATOM      4  C   UNL     1      -3.646  -1.370  24.191  0.00  0.00    +0.020 A 
ATOM      5  C   UNL     1      -2.995  -1.615  24.635  0.00  0.00    +0.124 A 
ATOM      6  C   UNL     1      -2.873  -2.418  24.779  0.00  0.00    +0.020 A 
ATOM      7  C   UNL     1      -3.402  -2.976  24.480  0.00  0.00    -0.003 A 
ENDBRANCH   8   5
ENDBRANCH  11   8
ENDBRANCH  12  11
ENDBRANCH  13  12
BRANCH  16  17
ATOM     17  N   UNL     1      -0.799   2.809  24.911  0.00  0.00    -0.209 NA
BRANCH  17  18
ATOM     18  C   UNL     1      -0.919   3.375  25.500  0.00  0.00    +0.117 C 
BRANCH  18  19
ATOM     19  C   UNL     1      -1.070   4.159  25.293  0.00  0.00    +0.014 A 
ATOM     20  C   UNL     1      -1.792   4.506  25.490  0.00  0.00    +0.000 A 
ATOM     21  C   UNL     1      -1.943   5.290  25.283  0.00  0.00    +0.020 A 
ATOM     22  C   UNL     1      -1.372   5.728  24.878  0.00  0.00    +0.099 A 
ATOM     23  N   UNL     1      -0.650   5.380  24.681  0.00  0.00    -0.243 NA
ATOM     24  C   UNL     1      -0.499   4.596  24.888  0.00  0.00    +0.096 A 
ENDBRANCH  18  19
ENDBRANCH  17  18
ENDBRANCH  16  17
TORSDOF 7
ENDMDL
MODEL 4
REMARK VINA RESULT:      -9.5      2.112      6.182
REMARK  Name = 
REMARK  7 active torsions:
REMARK  status: ('A' for Active; 'I' for Inactive)
REMARK    1  A    between atoms: C_5  and  S_8
REMARK    2  A    between atoms: S_8  and  N_11
REMARK    3  A    between atoms: N_11  and  C_12
REMARK    4  A    between atoms: C_12  and  C_13
REMARK    5  A    between atoms: C_16  and  N_17
REMARK    6  A    between atoms: N_17  and  C_18
REMARK    7  A    between atoms: C_18  and  C_19
REMARK                            x       y       z     vdW  Elec       q    Type
REMARK                         _______ _______ _______ _____ _____    ______ ____
ROOT
ATOM     13  C   UNL     1      -1.116   0.760  25.213  0.00  0.00    +0.166 C 
ATOM     14  O   UNL     1      -1.023   0.324  25.907  0.00  0.00    -0.350 OA
ATOM     15  C   UNL     1      -1.375  -0.413  25.795  0.00  0.00    +0.162 C 
ATOM     16  C   UNL     1      -1.686  -0.433  25.032  0.00  0.00    +0.135 C 
ATOM     25  C   UNL     1      -1.527   0.291  24.672  0.00  0.00    +0.199 C 
ATOM     26  O   UNL     1      -1.740   0.510  23.906  0.00  0.00    -0.219 OA
ENDROOT
BRANCH  13  12
ATOM     12  C   UNL     1      -0.847   1.529  25.083  0.00  0.00    +0.148 C 
BRANCH  12  11
ATOM     11  N   UNL     1      -0.862   2.080  25.696  0.00  0.00    -0.075 NA
BRANCH  11   8
ATOM      8  S   UNL     1      -0.983   2.880  25.529  0.00  0.00    +0.077 S 
ATOM      9  O   UNL     1      -1.648   2.880  26.017  0.00  0.00    -0.152 OA
ATOM     10  O   UNL     1      -0.318   2.879  25.041  0.00  0.00    -0.152 OA
BRANCH   8   5
ATOM      1  C   UNL     1      -1.469   6.075  24.863  0.00  0.00    +0.031 C 
ATOM      2  C   UNL     1      -1.348   5.275  25.030  0.00  0.00    -0.022 A 
ATOM      3  C   UNL     1      -1.935   4.840  25.412  0.00  0.00    -0.003 A 
ATOM      4  C   UNL     1      -1.814   4.041  25.579  0.00  0.00    +0.020 A 
ATOM      5  C   UNL     1      -1.105   3.677  25.363  0.00  0.00    +0.124 A 
ATOM      6  C   UNL     1      -0.518   4.114  24.981  0.00  0.00    +0.020 A 
ATOM      7  C   UNL     1      -0.639   4.912  24.814  0.00  0.00    -0.003 A 
ENDBRANCH   8   5
ENDBRANCH  11   8
ENDBRANCH  12  11
ENDBRANCH  13  12
BRANCH  16  17
ATOM     17  N   UNL     1      -2.088  -1.068  24.688  0.00  0.00    -0.209 NA
BRANCH  17  18
ATOM     18  C   UNL     1      -2.716  -1.423  25.088  0.00  0.00    +0.117 C 
BRANCH  18  19
ATOM     19  C   UNL     1      -3.228  -1.929  24.684  0.00  0.00    +0.014 A 
ATOM     20  C   UNL     1      -3.886  -1.621  24.291  0.00  0.00    +0.000 A 
ATOM     21  C   UNL     1      -4.397  -2.127  23.887  0.00  0.00    +0.020 A 
ATOM     22  C   UNL     1      -4.252  -2.939  23.876  0.00  0.00    +0.099 A 
ATOM     23  N   UNL     1      -3.594  -3.245  24.269  0.00  0.00    -0.243 NA
ATOM     24  C   UNL     1      -3.083  -2.740  24.673  0.00  0.00    +0.096 A 
ENDBRANCH  18  19
ENDBRANCH  17  18
ENDBRANCH  16  17
TORSDOF 7
ENDMDL
MODEL 5
REMARK VINA RESULT:      -9.0      4.007      4.967
REMARK  Name = 
REMARK  7 active torsions:
REMARK  status: ('A' for Active; 'I' for Inactive)
REMARK    1  A    between atoms: C_5  and  S_8
REMARK    2  A    between atoms: S_8  and  N_11
REMARK    3  A    between atoms: N_11  and  C_12
REMARK    4  A    between atoms: C_12  and  C_13
REMARK    5  A    between atoms: C_16  and  N_17
REMARK    6  A    between atoms: N_17  and  C_18
REMARK    7  A    between atoms: C_18  and  C_19
REMARK                            x       y       z     vdW  Elec       q    Type
REMARK                         _______ _______ _______ _____ _____    ______ ____
ROOT
ATOM     13  C   UNL     1      -0.512   0.576  23.865  0.00  0.00    +0.166 C 
ATOM     14  O   UNL     1      -0.392  -0.168  23.528  0.00  0.00    -0.350 OA
ATOM     15  C   UNL     1       0.401  -0.224  23.311  0.00  0.00    +0.162 C 
ATOM     16  C   UNL     1       0.772   0.485  23.512  0.00  0.00    +0.135 C 
ATOM     25  C   UNL     1       0.208   0.979  23.855  0.00  0.00    +0.199 C 
ATOM     26  O   UNL     1       0.340   1.742  24.137  0.00  0.00    -0.219 OA
ENDROOT
BRANCH  13  12
ATOM     12  C   UNL     1      -1.226   0.866  24.159  0.00  0.00    +0.148 C 
BRANCH  12  11
ATOM     11  N   UNL     1      -1.927   0.454  24.020  0.00  0.00    -0.075 NA
BRANCH  11   8
ATOM      8  S   UNL     1      -2.649   0.777  24.258  0.00  0.00    +0.077 S 
ATOM      9  O   UNL     1      -2.496   0.545  25.035  0.00  0.00    -0.152 OA
ATOM     10  O   UNL     1      -2.802   1.009  23.481  0.00  0.00    -0.152 OA
BRANCH   8   5
ATOM      1  C   UNL     1      -5.534   2.064  25.210  0.00  0.00    +0.031 C 
ATOM      2  C   UNL     1      -4.812   1.742  24.972  0.00  0.00    -0.022 A 
ATOM      3  C   UNL     1      -4.688   0.927  25.021  0.00  0.00    -0.003 A 
ATOM      4  C   UNL     1      -3.967   0.606  24.783  0.00  0.00    +0.020 A 
ATOM      5  C   UNL     1      -3.369   1.098  24.496  0.00  0.00    +0.124 A 
ATOM      6  C   UNL     1      -3.495   1.912  24.448  0.00  0.00    +0.020 A 
ATOM      7  C   UNL     1      -4.216   2.234  24.686  0.00  0.00    -0.003 A 
ENDBRANCH   8   5
ENDBRANCH  11   8
ENDBRANCH  12  11
ENDBRANCH  13  12
BRANCH  16  17
ATOM     17  N   UNL     1       1.568   0.667  23.392  0.00  0.00    -0.209 NA
BRANCH  17  18
ATOM     18  C   UNL     1       2.030   0.192  22.899  0.00  0.00    +0.117 C 
BRANCH  18  19
ATOM     19  C   UNL     1       2.851   0.272  22.902  0.00  0.00    +0.014 A 
ATOM     20  C   UNL     1       3.197   0.979  22.653  0.00  0.00    +0.000 A 
ATOM     21  C   UNL     1       4.018   1.059  22.655  0.00  0.00    +0.020 A 
ATOM     22  C   UNL     1       4.493   0.433  22.907  0.00  0.00    +0.099 A 
ATOM     23  N   UNL     1       4.147  -0.273  23.156  0.00  0.00    -0.243 NA
ATOM     24  C   UNL     1       3.326  -0.353  23.154  0.00  0.00    +0.096 A 
ENDBRANCH  18  19
ENDBRANCH  17  18
ENDBRANCH  16  17
TORSDOF 7
ENDMDL
MODEL 6
REMARK VINA RESULT:      -7.2     17.925     18.992
REMARK  Name = 
REMARK  7 active torsions:
REMARK  status: ('A' for Active; 'I' for Inactive)
REMARK    1  A    between atoms: C_5  and  S_8
REMARK    2  A    between atoms: S_8  and  N_11
REMARK    3  A    between atoms: N_11  and  C_12
REMARK    4  A    between atoms: C_12  and  C_13
REMARK    5  A    between atoms: C_16  and  N_17
REMARK    6  A    between atoms: N_17  and  C_18
REMARK    7  A    between atoms: C_18  and  C_19
REMARK                            x       y       z     vdW  Elec       q    Type
REMARK                         _______ _______ _______ _____ _____    ______ ____
ROOT
ATOM     13  C   UNL     1      -6.349  -8.590   9.224  0.00  0.00    +0.166 C 
ATOM     14  O   UNL     1      -5.927  -8.855   8.568  0.00  0.00    -0.350 OA
ATOM     15  C   UNL     1      -5.246  -9.233   8.838  0.00  0.00    +0.162 C 
ATOM     16  C   UNL     1      -5.247  -9.202   9.662  0.00  0.00    +0.135 C 
ATOM     25  C   UNL     1      -5.928  -8.805   9.902  0.00  0.00    +0.199 C 
ATOM     26  O   UNL     1      -6.151  -8.649  10.680  0.00  0.00    -0.219 OA
ENDROOT
BRANCH  13  12
ATOM     12  C   UNL     1      -7.066  -8.182   9.208  0.00  0.00    +0.148 C 
BRANCH  12  11
ATOM     11  N   UNL     1      -7.349  -7.876   8.497  0.00  0.00    -0.075 NA
BRANCH  11   8
ATOM      8  S   UNL     1      -8.016  -7.388   8.495  0.00  0.00    +0.077 S 
ATOM      9  O   UNL     1      -8.498  -8.046   8.617  0.00  0.00    -0.152 OA
ATOM     10  O   UNL     1      -7.533  -6.730   8.373  0.00  0.00    -0.152 OA
BRANCH   8   5
ATOM      1  C   UNL     1     -10.678  -5.438   8.485  0.00  0.00    +0.031 C 
ATOM      2  C   UNL     1     -10.012  -5.926   8.487  0.00  0.00    -0.022 A 
ATOM      3  C   UNL     1      -9.310  -5.667   8.139  0.00  0.00    -0.003 A 
ATOM      4  C   UNL     1      -8.644  -6.154   8.141  0.00  0.00    +0.020 A 
ATOM      5  C   UNL     1      -8.681  -6.901   8.492  0.00  0.00    +0.124 A 
ATOM      6  C   UNL     1      -9.383  -7.159   8.840  0.00  0.00    +0.020 A 
ATOM      7  C   UNL     1     -10.048  -6.671   8.837  0.00  0.00    -0.003 A 
ENDBRANCH   8   5
ENDBRANCH  11   8
ENDBRANCH  12  11
ENDBRANCH  13  12
BRANCH  16  17
ATOM     17  N   UNL     1      -4.667  -9.514  10.160  0.00  0.00    -0.209 NA
BRANCH  17  18
ATOM     18  C   UNL     1      -3.893  -9.603   9.887  0.00  0.00    +0.117 C 
BRANCH  18  19
ATOM     19  C   UNL     1      -3.295  -9.828  10.409  0.00  0.00    +0.014 A 
ATOM     20  C   UNL     1      -2.654  -9.326  10.543  0.00  0.00    +0.000 A 
ATOM     21  C   UNL     1      -2.057  -9.551  11.065  0.00  0.00    +0.020 A 
ATOM     22  C   UNL     1      -2.100 -10.278  11.454  0.00  0.00    +0.099 A 
ATOM     23  N   UNL     1      -2.741 -10.780  11.319  0.00  0.00    -0.243 NA
ATOM     24  C   UNL     1      -3.339 -10.554  10.797  0.00  0.00    +0.096 A 
ENDBRANCH  18  19
ENDBRANCH  17  18
ENDBRANCH  16  17
TORSDOF 7
ENDMDL
MODEL 7
REMARK VINA RESULT:      -6.9     14.430     16.733
REMARK  Name = 
REMARK  7 active torsions:
REMARK  status: ('A' for Active; 'I' for Inactive)
REMARK    1  A    between atoms: C_5  and  S_8
REMARK    2  A    between atoms: S_8  and  N_11
REMARK    3  A    between atoms: N_11  and  C_12
REMARK    4  A    between atoms: C_12  and  C_13
REMARK    5  A    between atoms: C_16  and  N_17
REMARK    6  A    between atoms: N_17  and  C_18
REMARK    7  A    between atoms: C_18  and  C_19
REMARK                            x       y       z     vdW  Elec       q    Type
REMARK                         _______ _______ _______ _____ _____    ______ ____
ROOT
ATOM     13  C   UNL     1      -4.755 -10.360  13.872  0.00  0.00    +0.166 C 
ATOM     14  O   UNL     1      -4.138 -10.754  14.252  0.00  0.00    -0.350 OA
ATOM     15  C   UNL     1      -4.311 -10.781  15.057  0.00  0.00    +0.162 C 
ATOM     16  C   UNL     1      -5.035 -10.404  15.176  0.00  0.00    +0.135 C 
ATOM     25  C   UNL     1      -5.310 -10.143  14.444  0.00  0.00    +0.199 C 
ATOM     26  O   UNL     1      -6.014  -9.738  14.307  0.00  0.00    -0.219 OA
ENDROOT
BRANCH  13  12
ATOM     12  C   UNL     1      -4.809 -10.209  13.063  0.00  0.00    +0.148 C 
BRANCH  12  11
ATOM     11  N   UNL     1      -4.177 -10.392  12.566  0.00  0.00    -0.075 NA
BRANCH  11   8
ATOM      8  S   UNL     1      -4.215 -10.203  11.763  0.00  0.00    +0.077 S 
ATOM      9  O   UNL     1      -4.955 -10.562  11.713  0.00  0.00    -0.152 OA
ATOM     10  O   UNL     1      -3.474  -9.843  11.814  0.00  0.00    -0.152 OA
BRANCH   8   5
ATOM      1  C   UNL     1      -4.364  -9.445   8.555  0.00  0.00    +0.031 C 
ATOM      2  C   UNL     1      -4.327  -9.635   9.358  0.00  0.00    -0.022 A 
ATOM      3  C   UNL     1      -4.386  -9.039   9.925  0.00  0.00    -0.003 A 
ATOM      4  C   UNL     1      -4.348  -9.228  10.727  0.00  0.00    +0.020 A 
ATOM      5  C   UNL     1      -4.252 -10.014  10.962  0.00  0.00    +0.124 A 
ATOM      6  C   UNL     1      -4.193 -10.609  10.394  0.00  0.00    +0.020 A 
ATOM      7  C   UNL     1      -4.231 -10.419   9.592  0.00  0.00    -0.003 A 
ENDBRANCH   8   5
ENDBRANCH  11   8
ENDBRANCH  12  11
ENDBRANCH  13  12
BRANCH  16  17
ATOM     17  N   UNL     1      -5.416 -10.304  15.901  0.00  0.00    -0.209 NA
BRANCH  17  18
ATOM     18  C   UNL     1      -5.138 -10.696  16.572  0.00  0.00    +0.117 C 
BRANCH  18  19
ATOM     19  C   UNL     1      -5.528 -10.608  17.293  0.00  0.00    +0.014 A 
ATOM     20  C   UNL     1      -5.098 -10.614  17.998  0.00  0.00    +0.000 A 
ATOM     21  C   UNL     1      -5.488 -10.526  18.719  0.00  0.00    +0.020 A 
ATOM     22  C   UNL     1      -6.308 -10.430  18.736  0.00  0.00    +0.099 A 
ATOM     23  N   UNL     1      -6.737 -10.424  18.031  0.00  0.00    -0.243 NA
ATOM     24  C   UNL     1      -6.347 -10.513  17.310  0.00  0.00    +0.096 A 
ENDBRANCH  18  19
ENDBRANCH  17  18
ENDBRANCH  16  17
TORSDOF 7
ENDMDL
