MODEL 1
REMARK VINA RESULT:     -11.4      0.000      0.000
REMARK  Name = 
REMARK  3 active torsions:
REMARK  status: ('A' for Active; 'I' for Inactive)
REMARK    1  A    between atoms: N_3  and  C_4
REMARK    2  A    between atoms: C_15  and  O_17
REMARK    3  A    between atoms: O_17  and  C_18
REMARK                            x       y       z     vdW  Elec       q    Type
REMARK                         _______ _______ _______ _____ _____    ______ ____
ROOT
ATOM      1  O   UNL     1      -3.085   0.172  24.227  0.00  0.00    -0.250 OA
ATOM      2  C   UNL     1      -3.819   0.326  24.571  0.00  0.00    +0.328 C 
ATOM      3  N   UNL     1      -4.299  -0.298  24.814  0.00  0.00    -0.161 NA
ATOM     10  N   UNL     1      -4.073   1.104  24.670  0.00  0.00    -0.256 N 
ATOM     11  C   UNL     1      -4.814   1.198  25.019  0.00  0.00    +0.127 C 
ATOM     12  C   UNL     1      -5.217   1.896  25.192  0.00  0.00    +0.164 C 
ATOM     13  O   UNL     1      -4.978   2.674  25.058  0.00  0.00    -0.348 OA
ATOM     14  C   UNL     1      -4.277   2.946  24.719  0.00  0.00    +0.187 C 
ATOM     15  C   UNL     1      -3.642   2.507  24.430  0.00  0.00    +0.215 C 
ATOM     16  C   UNL     1      -3.551   1.688  24.408  0.00  0.00    +0.141 C 
ENDROOT
BRANCH   3   4
ATOM      4  C   UNL     1      -4.046  -1.077  24.715  0.00  0.00    +0.094 A 
ATOM      5  C   UNL     1      -3.596  -1.443  25.301  0.00  0.00    +0.115 A 
ATOM      6  N   UNL     1      -3.343  -2.222  25.201  0.00  0.00    -0.241 NA
ATOM      7  C   UNL     1      -3.539  -2.634  24.515  0.00  0.00    +0.099 A 
ATOM      8  C   UNL     1      -3.988  -2.269  23.928  0.00  0.00    +0.022 A 
ATOM      9  C   UNL     1      -4.242  -1.490  24.027  0.00  0.00    +0.020 A 
ENDBRANCH   3   4
BRANCH  15  17
ATOM     17  O   UNL     1      -3.015   2.946  24.121  0.00  0.00    -0.475 OA
BRANCH  17  18
ATOM     18  C   UNL     1      -2.492   3.332  24.629  0.00  0.00    +0.139 A 
ATOM     19  C   UNL     1      -1.792   2.962  24.859  0.00  0.00    +0.037 A 
ATOM     20  C   UNL     1      -1.269   3.348  25.367  0.00  0.00    +0.003 A 
ATOM     21  C   UNL     1      -1.447   4.103  25.646  0.00  0.00    +0.000 A 
ATOM     22  C   UNL     1      -2.148   4.473  25.417  0.00  0.00    +0.003 A 
ATOM     23  C   UNL     1      -2.670   4.087  24.908  0.00  0.00    +0.037 A 
ENDBRANCH  17  18
ENDBRANCH  15  17
TORSDOF 3
ENDMDL
MODEL 2
REMARK VINA RESULT:     -10.9      1.775      5.168
REMARK  Name = 
REMARK  3 active torsions:
REMARK  status: ('A' for Active; 'I' for Inactive)
REMARK    1  A    between atoms: N_3  and  C_4
REMARK    2  A    between atoms: C_15  and  O_17
REMARK    3  A    between atoms: O_17  and  C_18
REMARK                            x       y       z     vdW  Elec       q    Type
REMARK                         _______ _______ _______ _____ _____    ______ ____
ROOT
ATOM      1  O   UNL     1      -2.613   1.588  25.398  0.00  0.00    -0.250 OA
ATOM      2  C   UNL     1      -1.870   1.410  25.084  0.00  0.00    +0.328 C 
ATOM      3  N   UNL     1      -1.356   2.017  24.870  0.00  0.00    -0.161 NA
ATOM     10  N   UNL     1      -1.643   0.623  24.986  0.00  0.00    -0.256 N 
ATOM     11  C   UNL     1      -0.891   0.504  24.669  0.00  0.00    +0.127 C 
ATOM     12  C   UNL     1      -0.509  -0.208  24.506  0.00  0.00    +0.164 C 
ATOM     13  O   UNL     1      -0.783  -0.977  24.618  0.00  0.00    -0.348 OA
ATOM     14  C   UNL     1      -1.509  -1.225  24.923  0.00  0.00    +0.187 C 
ATOM     15  C   UNL     1      -2.139  -0.764  25.190  0.00  0.00    +0.215 C 
ATOM     16  C   UNL     1      -2.199   0.058  25.218  0.00  0.00    +0.141 C 
ENDROOT
BRANCH   3   4
ATOM      4  C   UNL     1      -1.583   2.804  24.968  0.00  0.00    +0.094 A 
ATOM      5  C   UNL     1      -2.141   3.140  24.461  0.00  0.00    +0.115 A 
ATOM      6  N   UNL     1      -2.368   3.927  24.560  0.00  0.00    -0.241 NA
ATOM      7  C   UNL     1      -2.037   4.378  25.165  0.00  0.00    +0.099 A 
ATOM      8  C   UNL     1      -1.480   4.044  25.673  0.00  0.00    +0.022 A 
ATOM      9  C   UNL     1      -1.252   3.257  25.575  0.00  0.00    +0.020 A 
ENDBRANCH   3   4
BRANCH  15  17
ATOM     17  O   UNL     1      -2.796  -1.181  25.465  0.00  0.00    -0.475 OA
BRANCH  17  18
ATOM     18  C   UNL     1      -3.262  -1.611  24.937  0.00  0.00    +0.139 A 
ATOM     19  C   UNL     1      -3.167  -2.429  24.877  0.00  0.00    +0.037 A 
ATOM     20  C   UNL     1      -3.632  -2.859  24.349  0.00  0.00    +0.003 A 
ATOM     21  C   UNL     1      -4.192  -2.473  23.882  0.00  0.00    +0.000 A 
ATOM     22  C   UNL     1      -4.286  -1.656  23.943  0.00  0.00    +0.003 A 
ATOM     23  C   UNL     1      -3.821  -1.225  24.471  0.00  0.00    +0.037 A 
ENDBRANCH  17  18
ENDBRANCH  15  17
TORSDOF 3
ENDMDL
MODEL 3
REMARK VINA RESULT:     -10.6      1.820      2.576
REMARK  Name = 
REMARK  3 active torsions:
REMARK  status: ('A' for Active; 'I' for Inactive)
REMARK    1  A    between atoms: N_3  and  C_4
REMARK    2  A    between atoms: C_15  and  O_17
REMARK    3  A    between atoms: O_17  and  C_18
REMARK                            x       y       z     vdW  Elec       q    Type
REMARK                         _______ _______ _______ _____ _____    ______ ____
ROOT
ATOM      1  O   UNL     1      -2.549   0.358  25.436  0.00  0.00    -0.250 OA
ATOM      2  C   UNL     1      -1.974   0.196  24.867  0.00  0.00    +0.328 C 
ATOM      3  N   UNL     1      -2.041  -0.473  24.391  0.00  0.00    -0.161 NA
ATOM     10  N   UNL     1      -1.331   0.706  24.774  0.00  0.00    -0.256 N 
ATOM     11  C   UNL     1      -0.788   0.495  24.190  0.00  0.00    +0.127 C 
ATOM     12  C   UNL     1      -0.097   0.884  23.965  0.00  0.00    +0.164 C 
ATOM     13  O   UNL     1       0.222   1.582  24.269  0.00  0.00    -0.348 OA
ATOM     14  C   UNL     1      -0.072   2.062  24.872  0.00  0.00    +0.187 C 
ATOM     15  C   UNL     1      -0.756   1.963  25.321  0.00  0.00    +0.215 C 
ATOM     16  C   UNL     1      -1.317   1.360  25.277  0.00  0.00    +0.141 C 
ENDROOT
BRANCH   3   4
ATOM      4  C   UNL     1      -2.683  -0.983  24.484  0.00  0.00    +0.094 A 
ATOM      5  C   UNL     1      -2.611  -1.656  24.955  0.00  0.00    +0.115 A 
ATOM      6  N   UNL     1      -3.253  -2.165  25.048  0.00  0.00    -0.241 NA
ATOM      7  C   UNL     1      -3.967  -2.002  24.670  0.00  0.00    +0.099 A 
ATOM      8  C   UNL     1      -4.040  -1.329  24.198  0.00  0.00    +0.022 A 
ATOM      9  C   UNL     1      -3.398  -0.819  24.105  0.00  0.00    +0.020 A 
ENDBRANCH   3   4
BRANCH  15  17
ATOM     17  O   UNL     1      -0.899   2.545  25.889  0.00  0.00    -0.475 OA
BRANCH  17  18
ATOM     18  C   UNL     1      -1.192   3.281  25.659  0.00  0.00    +0.139 A 
ATOM     19  C   UNL     1      -1.987   3.465  25.782  0.00  0.00    +0.037 A 
ATOM     20  C   UNL     1      -2.280   4.201  25.553  0.00  0.00    +0.003 A 
ATOM     21  C   UNL     1      -1.778   4.753  25.201  0.00  0.00    +0.000 A 
ATOM     22  C   UNL     1      -0.984   4.570  25.078  0.00  0.00    +0.003 A 
ATOM     23  C   UNL     1      -0.691   3.833  25.307  0.00  0.00    +0.037 A 
ENDBRANCH  17  18
ENDBRANCH  15  17
TORSDOF 3
ENDMDL
MODEL 4
REMARK VINA RESULT:     -10.6      1.272      4.655
REMARK  Name = 
REMARK  3 active torsions:
REMARK  status: ('A' for Active; 'I' for Inactive)
REMARK    1  A    between atoms: N_3  and  C_4
REMARK    2  A    between atoms: C_15  and  O_17
REMARK    3  A    between atoms: O_17  and  C_18
REMARK                            x       y       z     vdW  Elec       q    Type
REMARK                         _______ _______ _______ _____ _____    ______ ____
ROOT
ATOM      1  O   UNL     1      -2.151   2.060  24.397  0.00  0.00    -0.250 OA
ATOM      2  C   UNL     1      -2.842   2.258  24.803  0.00  0.00    +0.328 C 
ATOM      3  N   UNL     1      -2.887   2.967  25.220  0.00  0.00    -0.161 NA
ATOM     10  N   UNL     1      -3.488   1.745  24.790  0.00  0.00    -0.256 N 
ATOM     11  C   UNL     1      -4.151   1.994  25.212  0.00  0.00    +0.127 C 
ATOM     12  C   UNL     1      -4.875   1.611  25.305  0.00  0.00    +0.164 C 
ATOM     13  O   UNL     1      -5.116   0.884  24.999  0.00  0.00    -0.348 OA
ATOM     14  C   UNL     1      -4.691   0.360  24.524  0.00  0.00    +0.187 C 
ATOM     15  C   UNL     1      -3.921   0.435  24.238  0.00  0.00    +0.215 C 
ATOM     16  C   UNL     1      -3.385   1.050  24.356  0.00  0.00    +0.141 C 
ENDROOT
BRANCH   3   4
ATOM      4  C   UNL     1      -2.241   3.480  25.233  0.00  0.00    +0.094 A 
ATOM      5  C   UNL     1      -1.533   3.244  25.585  0.00  0.00    +0.115 A 
ATOM      6  N   UNL     1      -0.887   3.757  25.598  0.00  0.00    -0.241 NA
ATOM      7  C   UNL     1      -0.948   4.505  25.259  0.00  0.00    +0.099 A 
ATOM      8  C   UNL     1      -1.656   4.743  24.906  0.00  0.00    +0.022 A 
ATOM      9  C   UNL     1      -2.302   4.230  24.894  0.00  0.00    +0.020 A 
ENDBRANCH   3   4
BRANCH  15  17
ATOM     17  O   UNL     1      -3.650  -0.191  23.771  0.00  0.00    -0.475 OA
BRANCH  17  18
ATOM     18  C   UNL     1      -3.608  -0.952  24.087  0.00  0.00    +0.139 A 
ATOM     19  C   UNL     1      -4.161  -1.522  23.862  0.00  0.00    +0.037 A 
ATOM     20  C   UNL     1      -4.120  -2.283  24.178  0.00  0.00    +0.003 A 
ATOM     21  C   UNL     1      -3.526  -2.474  24.717  0.00  0.00    +0.000 A 
ATOM     22  C   UNL     1      -2.973  -1.905  24.942  0.00  0.00    +0.003 A 
ATOM     23  C   UNL     1      -3.015  -1.143  24.626  0.00  0.00    +0.037 A 
ENDBRANCH  17  18
ENDBRANCH  15  17
TORSDOF 3
ENDMDL
MODEL 5
REMARK VINA RESULT:     -10.2      2.128      3.166
REMARK  Name = 
REMARK  3 active torsions:
REMARK  status: ('A' for Active; 'I' for Inactive)
REMARK    1  A    between atoms: N_3  and  C_4
REMARK    2  A    between atoms: C_15  and  O_17
REMARK    3  A    between atoms: O_17  and  C_18
REMARK                            x       y       z     vdW  Elec       q    Type
REMARK                         _______ _______ _______ _____ _____    ______ ____
ROOT
ATOM      1  O   UNL     1      -2.163   0.887  24.282  0.00  0.00    -0.250 OA
ATOM      2  C   UNL     1      -1.687   1.341  24.781  0.00  0.00    +0.328 C 
ATOM      3  N   UNL     1      -0.981   1.031  25.072  0.00  0.00    -0.161 NA
ATOM     10  N   UNL     1      -1.918   2.105  24.987  0.00  0.00    -0.256 N 
ATOM     11  C   UNL     1      -1.404   2.512  25.488  0.00  0.00    +0.127 C 
ATOM     12  C   UNL     1      -1.478   3.275  25.791  0.00  0.00    +0.164 C 
ATOM     13  O   UNL     1      -2.083   3.821  25.668  0.00  0.00    -0.348 OA
ATOM     14  C   UNL     1      -2.766   3.738  25.212  0.00  0.00    +0.187 C 
ATOM     15  C   UNL     1      -3.010   3.089  24.766  0.00  0.00    +0.215 C 
ATOM     16  C   UNL     1      -2.634   2.362  24.665  0.00  0.00    +0.141 C 
ENDROOT
BRANCH   3   4
ATOM      4  C   UNL     1      -0.750   0.266  24.866  0.00  0.00    +0.094 A 
ATOM      5  C   UNL     1      -0.305   0.139  24.183  0.00  0.00    +0.115 A 
ATOM      6  N   UNL     1      -0.074  -0.625  23.976  0.00  0.00    -0.241 NA
ATOM      7  C   UNL     1      -0.288  -1.263  24.452  0.00  0.00    +0.099 A 
ATOM      8  C   UNL     1      -0.733  -1.138  25.136  0.00  0.00    +0.022 A 
ATOM      9  C   UNL     1      -0.964  -0.373  25.342  0.00  0.00    +0.020 A 
ENDBRANCH   3   4
BRANCH  15  17
ATOM     17  O   UNL     1      -3.727   3.179  24.366  0.00  0.00    -0.475 OA
BRANCH  17  18
ATOM     18  C   UNL     1      -4.437   3.003  24.749  0.00  0.00    +0.139 A 
ATOM     19  C   UNL     1      -4.754   3.535  25.294  0.00  0.00    +0.037 A 
ATOM     20  C   UNL     1      -5.463   3.359  25.676  0.00  0.00    +0.003 A 
ATOM     21  C   UNL     1      -5.855   2.652  25.514  0.00  0.00    +0.000 A 
ATOM     22  C   UNL     1      -5.538   2.120  24.970  0.00  0.00    +0.003 A 
ATOM     23  C   UNL     1      -4.829   2.296  24.587  0.00  0.00    +0.037 A 
ENDBRANCH  17  18
ENDBRANCH  15  17
TORSDOF 3
ENDMDL
