MODEL 1
REMARK VINA RESULT:     -12.2      0.000      0.000
REMARK  Name = 
REMARK  5 active torsions:
REMARK  status: ('A' for Active; 'I' for Inactive)
REMARK    1  A    between atoms: N_4  and  C_5
REMARK    2  A    between atoms: C_8  and  S_11
REMARK    3  A    between atoms: S_11  and  N_14
REMARK    4  A    between atoms: N_14  and  C_15
REMARK    5  A    between atoms: C_25  and  C_27
REMARK                            x       y       z     vdW  Elec       q    Type
REMARK                         _______ _______ _______ _____ _____    ______ ____
ROOT
ATOM     15  C   UNL     1      -3.872   1.670  24.805  0.00  0.00    +0.147 A 
ATOM     16  C   UNL     1      -4.645   1.391  24.875  0.00  0.00    +0.024 A 
ATOM     17  C   UNL     1      -5.250   1.904  25.101  0.00  0.00    +0.014 A 
ATOM     18  C   UNL     1      -5.082   2.695  25.259  0.00  0.00    +0.041 A 
ATOM     19  C   UNL     1      -5.495   3.476  25.515  0.00  0.00    +0.058 C 
ATOM     20  C   UNL     1      -6.124   3.735  25.686  0.00  0.00    +0.011 C 
ATOM     21  C   UNL     1      -5.360   4.007  25.617  0.00  0.00    +0.043 C 
ATOM     22  C   UNL     1      -4.514   4.517  25.589  0.00  0.00    +0.096 C 
ATOM     23  N   UNL     1      -3.991   3.910  25.355  0.00  0.00    -0.276 N 
ATOM     24  C   UNL     1      -4.686   3.983  25.493  0.00  0.00    +0.099 C 
ATOM     25  C   UNL     1      -3.282   3.543  25.144  0.00  0.00    +0.249 C 
ATOM     26  O   UNL     1      -3.274   2.740  24.953  0.00  0.00    -0.270 OA
ATOM     34  C   UNL     1      -4.920   3.197  25.349  0.00  0.00    +0.110 C 
ATOM     35  N   UNL     1      -4.309   2.975  25.189  0.00  0.00    -0.298 N 
ATOM     36  C   UNL     1      -3.704   2.462  24.963  0.00  0.00    +0.277 A 
ATOM     37  O   UNL     1      -2.891   2.495  24.828  0.00  0.00    -0.266 OA
ENDROOT
BRANCH  25  27
ATOM     27  C   UNL     1      -2.583   3.979  25.125  0.00  0.00    +0.054 A 
ATOM     28  C   UNL     1      -2.070   3.965  25.770  0.00  0.00    +0.007 A 
ATOM     29  C   UNL     1      -1.369   4.401  25.750  0.00  0.00    +0.030 A 
ATOM     30  C   UNL     1      -1.183   4.851  25.085  0.00  0.00    +0.140 A 
ATOM     31  F   UNL     1      -0.482   5.287  25.065  0.00  0.00    -0.204 F 
ATOM     32  C   UNL     1      -1.695   4.865  24.439  0.00  0.00    +0.030 A 
ATOM     33  C   UNL     1      -2.396   4.429  24.459  0.00  0.00    +0.007 A 
ENDBRANCH  25  27
BRANCH  15  14
ATOM     14  N   UNL     1      -3.268   1.157  24.579  0.00  0.00    -0.092 NA
BRANCH  14  11
ATOM     11  S   UNL     1      -3.409   0.345  24.537  0.00  0.00    +0.093 S 
ATOM     12  O   UNL     1      -3.205   0.268  25.332  0.00  0.00    -0.148 OA
ATOM     13  O   UNL     1      -3.614   0.422  23.741  0.00  0.00    -0.148 OA
BRANCH  11   8
ATOM      5  C   UNL     1      -3.834  -2.090  24.412  0.00  0.00    +0.073 A 
ATOM      6  C   UNL     1      -4.016  -1.606  23.769  0.00  0.00    +0.018 A 
ATOM      7  C   UNL     1      -3.874  -0.795  23.811  0.00  0.00    +0.022 A 
ATOM      8  C   UNL     1      -3.551  -0.467  24.495  0.00  0.00    +0.127 A 
ATOM      9  C   UNL     1      -3.370  -0.951  25.139  0.00  0.00    +0.022 A 
ATOM     10  C   UNL     1      -3.511  -1.762  25.097  0.00  0.00    +0.018 A 
BRANCH   5   4
ATOM      1  C   UNL     1      -3.506  -4.229  24.122  0.00  0.00    +0.097 C 
ATOM      2  C   UNL     1      -3.365  -3.416  24.164  0.00  0.00    +0.246 C 
ATOM      3  O   UNL     1      -2.614  -3.120  24.000  0.00  0.00    -0.273 OA
ATOM      4  N   UNL     1      -3.976  -2.902  24.370  0.00  0.00    -0.179 NA
ENDBRANCH   5   4
ENDBRANCH  11   8
ENDBRANCH  14  11
ENDBRANCH  15  14
TORSDOF 5
ENDMDL
MODEL 2
REMARK VINA RESULT:     -11.7      2.983      3.973
REMARK  Name = 
REMARK  5 active torsions:
REMARK  status: ('A' for Active; 'I' for Inactive)
REMARK    1  A    between atoms: N_4  and  C_5
REMARK    2  A    between atoms: C_8  and  S_11
REMARK    3  A    between atoms: S_11  and  N_14
REMARK    4  A    between atoms: N_14  and  C_15
REMARK    5  A    between atoms: C_25  and  C_27
REMARK                            x       y       z     vdW  Elec       q    Type
REMARK                         _______ _______ _______ _____ _____    ______ ____
ROOT
ATOM     15  C   UNL     1      -1.886   1.877  24.954  0.00  0.00    +0.147 A 
ATOM     16  C   UNL     1      -1.184   2.294  25.074  0.00  0.00    +0.024 A 
ATOM     17  C   UNL     1      -1.209   3.083  25.313  0.00  0.00    +0.014 A 
ATOM     18  C   UNL     1      -1.935   3.455  25.434  0.00  0.00    +0.041 A 
ATOM     19  C   UNL     1      -2.289   4.265  25.683  0.00  0.00    +0.058 C 
ATOM     20  C   UNL     1      -2.099   4.912  25.877  0.00  0.00    +0.011 C 
ATOM     21  C   UNL     1      -2.790   4.498  25.759  0.00  0.00    +0.043 C 
ATOM     22  C   UNL     1      -3.719   4.172  25.669  0.00  0.00    +0.096 C 
ATOM     23  N   UNL     1      -3.569   3.386  25.429  0.00  0.00    -0.276 N 
ATOM     24  C   UNL     1      -3.192   3.965  25.601  0.00  0.00    +0.099 C 
ATOM     25  C   UNL     1      -3.724   2.609  25.195  0.00  0.00    +0.249 C 
ATOM     26  O   UNL     1      -3.099   2.095  25.033  0.00  0.00    -0.270 OA
ATOM     34  C   UNL     1      -2.430   3.647  25.497  0.00  0.00    +0.110 C 
ATOM     35  N   UNL     1      -2.637   3.038  25.314  0.00  0.00    -0.298 N 
ATOM     36  C   UNL     1      -2.613   2.249  25.074  0.00  0.00    +0.277 A 
ATOM     37  O   UNL     1      -3.146   1.645  24.897  0.00  0.00    -0.266 OA
ENDROOT
BRANCH  25  27
ATOM     27  C   UNL     1      -4.502   2.348  25.124  0.00  0.00    +0.054 A 
ATOM     28  C   UNL     1      -4.880   2.371  24.391  0.00  0.00    +0.007 A 
ATOM     29  C   UNL     1      -5.660   2.110  24.320  0.00  0.00    +0.030 A 
ATOM     30  C   UNL     1      -6.061   1.825  24.982  0.00  0.00    +0.140 A 
ATOM     31  F   UNL     1      -6.841   1.563  24.910  0.00  0.00    -0.204 F 
ATOM     32  C   UNL     1      -5.684   1.802  25.714  0.00  0.00    +0.030 A 
ATOM     33  C   UNL     1      -4.904   2.063  25.786  0.00  0.00    +0.007 A 
ENDBRANCH  25  27
BRANCH  15  14
ATOM     14  N   UNL     1      -1.861   1.088  24.715  0.00  0.00    -0.092 NA
BRANCH  14  11
ATOM     11  S   UNL     1      -1.195   0.796  24.326  0.00  0.00    +0.093 S 
ATOM     12  O   UNL     1      -1.504   1.051  23.605  0.00  0.00    -0.148 OA
ATOM     13  O   UNL     1      -0.886   0.541  25.047  0.00  0.00    -0.148 OA
BRANCH  11   8
ATOM      5  C   UNL     1       0.803  -0.080  23.157  0.00  0.00    +0.073 A 
ATOM      6  C   UNL     1       0.400   0.572  22.852  0.00  0.00    +0.018 A 
ATOM      7  C   UNL     1      -0.266   0.864  23.242  0.00  0.00    +0.022 A 
ATOM      8  C   UNL     1      -0.528   0.503  23.936  0.00  0.00    +0.127 A 
ATOM      9  C   UNL     1      -0.125  -0.148  24.241  0.00  0.00    +0.022 A 
ATOM     10  C   UNL     1       0.541  -0.440  23.851  0.00  0.00    +0.018 A 
BRANCH   5   4
ATOM      1  C   UNL     1       2.835  -0.225  22.371  0.00  0.00    +0.097 C 
ATOM      2  C   UNL     1       2.168   0.067  22.761  0.00  0.00    +0.246 C 
ATOM      3  O   UNL     1       2.201   0.796  23.144  0.00  0.00    -0.273 OA
ATOM      4  N   UNL     1       1.469  -0.372  22.767  0.00  0.00    -0.179 NA
ENDBRANCH   5   4
ENDBRANCH  11   8
ENDBRANCH  14  11
ENDBRANCH  15  14
TORSDOF 5
ENDMDL
MODEL 3
REMARK VINA RESULT:     -11.6      3.370      4.707
REMARK  Name = 
REMARK  5 active torsions:
REMARK  status: ('A' for Active; 'I' for Inactive)
REMARK    1  A    between atoms: N_4  and  C_5
REMARK    2  A    between atoms: C_8  and  S_11
REMARK    3  A    between atoms: S_11  and  N_14
REMARK    4  A    between atoms: N_14  and  C_15
REMARK    5  A    between atoms: C_25  and  C_27
REMARK                            x       y       z     vdW  Elec       q    Type
REMARK                         _______ _______ _______ _____ _____    ______ ____
ROOT
ATOM     15  C   UNL     1      -1.495   0.446  24.381  0.00  0.00    +0.147 A 
ATOM     16  C   UNL     1      -1.220  -0.330  24.443  0.00  0.00    +0.024 A 
ATOM     17  C   UNL     1      -1.724  -0.927  24.705  0.00  0.00    +0.014 A 
ATOM     18  C   UNL     1      -2.504  -0.750  24.906  0.00  0.00    +0.041 A 
ATOM     19  C   UNL     1      -3.272  -1.152  25.211  0.00  0.00    +0.058 C 
ATOM     20  C   UNL     1      -3.527  -1.777  25.403  0.00  0.00    +0.011 C 
ATOM     21  C   UNL     1      -3.796  -1.010  25.341  0.00  0.00    +0.043 C 
ATOM     22  C   UNL     1      -4.299  -0.160  25.333  0.00  0.00    +0.096 C 
ATOM     23  N   UNL     1      -3.701   0.354  25.058  0.00  0.00    -0.276 N 
ATOM     24  C   UNL     1      -3.772  -0.338  25.209  0.00  0.00    +0.099 C 
ATOM     25  C   UNL     1      -3.340   1.057  24.819  0.00  0.00    +0.249 C 
ATOM     26  O   UNL     1      -2.549   1.055  24.583  0.00  0.00    -0.270 OA
ATOM     34  C   UNL     1      -2.998  -0.581  25.022  0.00  0.00    +0.110 C 
ATOM     35  N   UNL     1      -2.780   0.026  24.844  0.00  0.00    -0.298 N 
ATOM     36  C   UNL     1      -2.275   0.623  24.581  0.00  0.00    +0.277 A 
ATOM     37  O   UNL     1      -2.308   1.435  24.440  0.00  0.00    -0.266 OA
ENDROOT
BRANCH  25  27
ATOM     27  C   UNL     1      -3.770   1.761  24.817  0.00  0.00    +0.054 A 
ATOM     28  C   UNL     1      -4.234   1.959  24.164  0.00  0.00    +0.007 A 
ATOM     29  C   UNL     1      -4.664   2.664  24.162  0.00  0.00    +0.030 A 
ATOM     30  C   UNL     1      -4.630   3.169  24.813  0.00  0.00    +0.140 A 
ATOM     31  F   UNL     1      -5.060   3.874  24.810  0.00  0.00    -0.204 F 
ATOM     32  C   UNL     1      -4.167   2.972  25.465  0.00  0.00    +0.030 A 
ATOM     33  C   UNL     1      -3.737   2.267  25.468  0.00  0.00    +0.007 A 
ENDBRANCH  25  27
BRANCH  15  14
ATOM     14  N   UNL     1      -0.990   1.042  24.118  0.00  0.00    -0.092 NA
BRANCH  14  11
ATOM     11  S   UNL     1      -0.243   0.852  23.827  0.00  0.00    +0.093 S 
ATOM     12  O   UNL     1       0.070   0.911  24.588  0.00  0.00    -0.148 OA
ATOM     13  O   UNL     1      -0.555   0.792  23.066  0.00  0.00    -0.148 OA
BRANCH  11   8
ATOM      5  C   UNL     1       2.001   0.279  22.952  0.00  0.00    +0.073 A 
ATOM      6  C   UNL     1       1.334  -0.109  22.662  0.00  0.00    +0.018 A 
ATOM      7  C   UNL     1       0.586   0.081  22.954  0.00  0.00    +0.022 A 
ATOM      8  C   UNL     1       0.506   0.661  23.535  0.00  0.00    +0.127 A 
ATOM      9  C   UNL     1       1.173   1.050  23.825  0.00  0.00    +0.022 A 
ATOM     10  C   UNL     1       1.921   0.859  23.534  0.00  0.00    +0.018 A 
BRANCH   5   4
ATOM      1  C   UNL     1       4.101   0.460  22.384  0.00  0.00    +0.097 C 
ATOM      2  C   UNL     1       3.352   0.650  22.675  0.00  0.00    +0.246 C 
ATOM      3  O   UNL     1       3.209   1.402  22.981  0.00  0.00    -0.273 OA
ATOM      4  N   UNL     1       2.749   0.089  22.661  0.00  0.00    -0.179 NA
ENDBRANCH   5   4
ENDBRANCH  11   8
ENDBRANCH  14  11
ENDBRANCH  15  14
TORSDOF 5
ENDMDL
MODEL 4
REMARK VINA RESULT:     -11.0      3.971      5.487
REMARK  Name = 
REMARK  5 active torsions:
REMARK  status: ('A' for Active; 'I' for Inactive)
REMARK    1  A    between atoms: N_4  and  C_5
REMARK    2  A    between atoms: C_8  and  S_11
REMARK    3  A    between atoms: S_11  and  N_14
REMARK    4  A    between atoms: N_14  and  C_15
REMARK    5  A    between atoms: C_25  and  C_27
REMARK                            x       y       z     vdW  Elec       q    Type
REMARK                         _______ _______ _______ _____ _____    ______ ____
ROOT
ATOM     15  C   UNL     1      -0.999   0.471  23.964  0.00  0.00    +0.147 A 
ATOM     16  C   UNL     1      -0.860   1.247  23.719  0.00  0.00    +0.024 A 
ATOM     17  C   UNL     1      -1.491   1.771  23.629  0.00  0.00    +0.014 A 
ATOM     18  C   UNL     1      -2.261   1.519  23.784  0.00  0.00    +0.041 A 
ATOM     19  C   UNL     1      -3.127   1.827  23.783  0.00  0.00    +0.058 C 
ATOM     20  C   UNL     1      -3.506   2.403  23.651  0.00  0.00    +0.011 C 
ATOM     21  C   UNL     1      -3.639   1.637  23.893  0.00  0.00    +0.043 C 
ATOM     22  C   UNL     1      -3.999   0.765  24.189  0.00  0.00    +0.096 C 
ATOM     23  N   UNL     1      -3.287   0.331  24.244  0.00  0.00    -0.276 N 
ATOM     24  C   UNL     1      -3.490   0.991  24.069  0.00  0.00    +0.099 C 
ATOM     25  C   UNL     1      -2.784  -0.309  24.382  0.00  0.00    +0.249 C 
ATOM     26  O   UNL     1      -1.970  -0.225  24.272  0.00  0.00    -0.270 OA
ATOM     34  C   UNL     1      -2.738   1.305  23.897  0.00  0.00    +0.110 C 
ATOM     35  N   UNL     1      -2.400   0.743  24.029  0.00  0.00    -0.298 N 
ATOM     36  C   UNL     1      -1.769   0.219  24.119  0.00  0.00    +0.277 A 
ATOM     37  O   UNL     1      -1.651  -0.566  24.340  0.00  0.00    -0.266 OA
ENDROOT
BRANCH  25  27
ATOM     27  C   UNL     1      -3.096  -1.031  24.629  0.00  0.00    +0.054 A 
ATOM     28  C   UNL     1      -3.372  -1.574  24.073  0.00  0.00    +0.007 A 
ATOM     29  C   UNL     1      -3.684  -2.297  24.320  0.00  0.00    +0.030 A 
ATOM     30  C   UNL     1      -3.718  -2.477  25.124  0.00  0.00    +0.140 A 
ATOM     31  F   UNL     1      -4.029  -3.200  25.372  0.00  0.00    -0.204 F 
ATOM     32  C   UNL     1      -3.442  -1.935  25.681  0.00  0.00    +0.030 A 
ATOM     33  C   UNL     1      -3.130  -1.212  25.433  0.00  0.00    +0.007 A 
ENDBRANCH  25  27
BRANCH  15  14
ATOM     14  N   UNL     1      -0.368  -0.052  24.053  0.00  0.00    -0.092 NA
BRANCH  14  11
ATOM     11  S   UNL     1       0.369   0.131  23.730  0.00  0.00    +0.093 S 
ATOM     12  O   UNL     1       0.177  -0.296  23.051  0.00  0.00    -0.148 OA
ATOM     13  O   UNL     1       0.560   0.558  24.410  0.00  0.00    -0.148 OA
BRANCH  11   8
ATOM      5  C   UNL     1       2.579   0.679  22.760  0.00  0.00    +0.073 A 
ATOM      6  C   UNL     1       2.149   0.037  22.470  0.00  0.00    +0.018 A 
ATOM      7  C   UNL     1       1.413  -0.145  22.794  0.00  0.00    +0.022 A 
ATOM      8  C   UNL     1       1.106   0.314  23.407  0.00  0.00    +0.127 A 
ATOM      9  C   UNL     1       1.536   0.956  23.696  0.00  0.00    +0.022 A 
ATOM     10  C   UNL     1       2.272   1.138  23.372  0.00  0.00    +0.018 A 
BRANCH   5   4
ATOM      1  C   UNL     1       4.732   0.672  22.398  0.00  0.00    +0.097 C 
ATOM      2  C   UNL     1       3.994   0.490  22.722  0.00  0.00    +0.246 C 
ATOM      3  O   UNL     1       3.937  -0.063  23.331  0.00  0.00    -0.273 OA
ATOM      4  N   UNL     1       3.315   0.861  22.436  0.00  0.00    -0.179 NA
ENDBRANCH   5   4
ENDBRANCH  11   8
ENDBRANCH  14  11
ENDBRANCH  15  14
TORSDOF 5
ENDMDL
MODEL 5
REMARK VINA RESULT:     -10.8      3.015      5.434
REMARK  Name = 
REMARK  5 active torsions:
REMARK  status: ('A' for Active; 'I' for Inactive)
REMARK    1  A    between atoms: N_4  and  C_5
REMARK    2  A    between atoms: C_8  and  S_11
REMARK    3  A    between atoms: S_11  and  N_14
REMARK    4  A    between atoms: N_14  and  C_15
REMARK    5  A    between atoms: C_25  and  C_27
REMARK                            x       y       z     vdW  Elec       q    Type
REMARK                         _______ _______ _______ _____ _____    ______ ____
ROOT
ATOM     15  C   UNL     1      -1.774   0.837  24.213  0.00  0.00    +0.147 A 
ATOM     16  C   UNL     1      -2.396   0.547  24.671  0.00  0.00    +0.024 A 
ATOM     17  C   UNL     1      -2.351  -0.209  24.998  0.00  0.00    +0.014 A 
ATOM     18  C   UNL     1      -1.683  -0.675  24.868  0.00  0.00    +0.041 A 
ATOM     19  C   UNL     1      -1.339  -1.502  25.073  0.00  0.00    +0.058 C 
ATOM     20  C   UNL     1      -1.492  -2.090  25.425  0.00  0.00    +0.011 C 
ATOM     21  C   UNL     1      -0.879  -1.800  24.973  0.00  0.00    +0.043 C 
ATOM     22  C   UNL     1      -0.049  -1.632  24.464  0.00  0.00    +0.096 C 
ATOM     23  N   UNL     1      -0.207  -0.860  24.188  0.00  0.00    -0.276 N 
ATOM     24  C   UNL     1      -0.531  -1.354  24.585  0.00  0.00    +0.099 C 
ATOM     25  C   UNL     1      -0.090  -0.144  23.795  0.00  0.00    +0.249 C 
ATOM     26  O   UNL     1      -0.670   0.443  23.824  0.00  0.00    -0.270 OA
ATOM     34  C   UNL     1      -1.230  -0.934  24.753  0.00  0.00    +0.110 C 
ATOM     35  N   UNL     1      -1.061  -0.385  24.410  0.00  0.00    -0.298 N 
ATOM     36  C   UNL     1      -1.106   0.371  24.083  0.00  0.00    +0.277 A 
ATOM     37  O   UNL     1      -0.641   0.864  23.613  0.00  0.00    -0.266 OA
ENDROOT
BRANCH  25  27
ATOM     27  C   UNL     1       0.607  -0.014  23.374  0.00  0.00    +0.054 A 
ATOM     28  C   UNL     1       1.199   0.463  23.692  0.00  0.00    +0.007 A 
ATOM     29  C   UNL     1       1.897   0.593  23.270  0.00  0.00    +0.030 A 
ATOM     30  C   UNL     1       2.001   0.245  22.529  0.00  0.00    +0.140 A 
ATOM     31  F   UNL     1       2.698   0.374  22.108  0.00  0.00    -0.204 F 
ATOM     32  C   UNL     1       1.409  -0.232  22.210  0.00  0.00    +0.030 A 
ATOM     33  C   UNL     1       0.711  -0.362  22.632  0.00  0.00    +0.007 A 
ENDBRANCH  25  27
BRANCH  15  14
ATOM     14  N   UNL     1      -1.820   1.593  23.887  0.00  0.00    -0.092 NA
BRANCH  14  11
ATOM     11  S   UNL     1      -2.424   2.105  24.115  0.00  0.00    +0.093 S 
ATOM     12  O   UNL     1      -1.952   2.389  24.729  0.00  0.00    -0.148 OA
ATOM     13  O   UNL     1      -2.896   1.822  23.501  0.00  0.00    -0.148 OA
BRANCH  11   8
ATOM      5  C   UNL     1      -4.237   3.644  24.802  0.00  0.00    +0.073 A 
ATOM      6  C   UNL     1      -3.557   3.576  25.264  0.00  0.00    +0.018 A 
ATOM      7  C   UNL     1      -2.953   3.063  25.035  0.00  0.00    +0.022 A 
ATOM      8  C   UNL     1      -3.029   2.618  24.344  0.00  0.00    +0.127 A 
ATOM      9  C   UNL     1      -3.709   2.686  23.882  0.00  0.00    +0.022 A 
ATOM     10  C   UNL     1      -4.313   3.199  24.111  0.00  0.00    +0.018 A 
BRANCH   5   4
ATOM      1  C   UNL     1      -6.057   4.397  25.744  0.00  0.00    +0.097 C 
ATOM      2  C   UNL     1      -5.452   3.884  25.514  0.00  0.00    +0.246 C 
ATOM      3  O   UNL     1      -5.459   3.100  25.768  0.00  0.00    -0.273 OA
ATOM      4  N   UNL     1      -4.841   4.157  25.032  0.00  0.00    -0.179 NA
ENDBRANCH   5   4
ENDBRANCH  11   8
ENDBRANCH  14  11
ENDBRANCH  15  14
TORSDOF 5
ENDMDL
MODEL 6
REMARK VINA RESULT:     -10.5      2.011      5.475
REMARK  Name = 
REMARK  5 active torsions:
REMARK  status: ('A' for Active; 'I' for Inactive)
REMARK    1  A    between atoms: N_4  and  C_5
REMARK    2  A    between atoms: C_8  and  S_11
REMARK    3  A    between atoms: S_11  and  N_14
REMARK    4  A    between atoms: N_14  and  C_15
REMARK    5  A    between atoms: C_25  and  C_27
REMARK                            x       y       z     vdW  Elec       q    Type
REMARK                         _______ _______ _______ _____ _____    ______ ____
ROOT
ATOM     15  C   UNL     1      -3.249   0.233  24.276  0.00  0.00    +0.147 A 
ATOM     16  C   UNL     1      -4.040   0.246  24.040  0.00  0.00    +0.024 A 
ATOM     17  C   UNL     1      -4.448  -0.462  23.926  0.00  0.00    +0.014 A 
ATOM     18  C   UNL     1      -4.065  -1.183  24.048  0.00  0.00    +0.041 A 
ATOM     19  C   UNL     1      -4.220  -2.088  24.012  0.00  0.00    +0.058 C 
ATOM     20  C   UNL     1      -4.723  -2.555  23.867  0.00  0.00    +0.011 C 
ATOM     21  C   UNL     1      -3.943  -2.564  24.100  0.00  0.00    +0.043 C 
ATOM     22  C   UNL     1      -3.020  -2.779  24.378  0.00  0.00    +0.096 C 
ATOM     23  N   UNL     1      -2.714  -2.006  24.461  0.00  0.00    -0.276 N 
ATOM     24  C   UNL     1      -3.331  -2.312  24.280  0.00  0.00    +0.099 C 
ATOM     25  C   UNL     1      -2.169  -1.406  24.617  0.00  0.00    +0.249 C 
ATOM     26  O   UNL     1      -2.392  -0.615  24.541  0.00  0.00    -0.270 OA
ATOM     34  C   UNL     1      -3.772  -1.620  24.141  0.00  0.00    +0.110 C 
ATOM     35  N   UNL     1      -3.275  -1.195  24.284  0.00  0.00    -0.298 N 
ATOM     36  C   UNL     1      -2.867  -0.487  24.398  0.00  0.00    +0.277 A 
ATOM     37  O   UNL     1      -2.111  -0.245  24.621  0.00  0.00    -0.266 OA
ENDROOT
BRANCH  25  27
ATOM     27  C   UNL     1      -1.401  -1.598  24.848  0.00  0.00    +0.054 A 
ATOM     28  C   UNL     1      -1.222  -1.693  25.648  0.00  0.00    +0.007 A 
ATOM     29  C   UNL     1      -0.453  -1.885  25.879  0.00  0.00    +0.030 A 
ATOM     30  C   UNL     1       0.136  -1.981  25.310  0.00  0.00    +0.140 A 
ATOM     31  F   UNL     1       0.905  -2.172  25.542  0.00  0.00    -0.204 F 
ATOM     32  C   UNL     1      -0.041  -1.885  24.511  0.00  0.00    +0.030 A 
ATOM     33  C   UNL     1      -0.810  -1.693  24.279  0.00  0.00    +0.007 A 
ENDBRANCH  25  27
BRANCH  15  14
ATOM     14  N   UNL     1      -2.842   0.941  24.389  0.00  0.00    -0.092 NA
BRANCH  14  11
ATOM     11  S   UNL     1      -3.258   1.637  24.542  0.00  0.00    +0.093 S 
ATOM     12  O   UNL     1      -3.261   1.458  25.347  0.00  0.00    -0.148 OA
ATOM     13  O   UNL     1      -3.255   1.815  23.737  0.00  0.00    -0.148 OA
BRANCH  11   8
ATOM      5  C   UNL     1      -4.506   3.724  25.003  0.00  0.00    +0.073 A 
ATOM      6  C   UNL     1      -4.112   3.335  25.615  0.00  0.00    +0.018 A 
ATOM      7  C   UNL     1      -3.697   2.639  25.461  0.00  0.00    +0.022 A 
ATOM      8  C   UNL     1      -3.674   2.333  24.695  0.00  0.00    +0.127 A 
ATOM      9  C   UNL     1      -4.067   2.722  24.083  0.00  0.00    +0.022 A 
ATOM     10  C   UNL     1      -4.483   3.417  24.237  0.00  0.00    +0.018 A 
BRANCH   5   4
ATOM      1  C   UNL     1      -6.092   5.080  25.644  0.00  0.00    +0.097 C 
ATOM      2  C   UNL     1      -5.675   4.384  25.490  0.00  0.00    +0.246 C 
ATOM      3  O   UNL     1      -6.013   3.654  25.669  0.00  0.00    -0.273 OA
ATOM      4  N   UNL     1      -4.922   4.419  25.156  0.00  0.00    -0.179 NA
ENDBRANCH   5   4
ENDBRANCH  11   8
ENDBRANCH  14  11
ENDBRANCH  15  14
TORSDOF 5
ENDMDL
MODEL 7
REMARK VINA RESULT:     -10.2      2.443      6.166
REMARK  Name = 
REMARK  5 active torsions:
REMARK  status: ('A' for Active; 'I' for Inactive)
REMARK    1  A    between atoms: N_4  and  C_5
REMARK    2  A    between atoms: C_8  and  S_11
REMARK    3  A    between atoms: S_11  and  N_14
REMARK    4  A    between atoms: N_14  and  C_15
REMARK    5  A    between atoms: C_25  and  C_27
REMARK                            x       y       z     vdW  Elec       q    Type
REMARK                         _______ _______ _______ _____ _____    ______ ____
ROOT
ATOM     15  C   UNL     1      -2.145   0.454  25.030  0.00  0.00    +0.147 A 
ATOM     16  C   UNL     1      -1.402   0.719  25.273  0.00  0.00    +0.024 A 
ATOM     17  C   UNL     1      -0.776   0.187  25.343  0.00  0.00    +0.014 A 
ATOM     18  C   UNL     1      -0.893  -0.611  25.170  0.00  0.00    +0.041 A 
ATOM     19  C   UNL     1      -0.439  -1.410  25.147  0.00  0.00    +0.058 C 
ATOM     20  C   UNL     1       0.195  -1.686  25.265  0.00  0.00    +0.011 C 
ATOM     21  C   UNL     1      -0.539  -1.945  25.025  0.00  0.00    +0.043 C 
ATOM     22  C   UNL     1      -1.338  -2.443  24.726  0.00  0.00    +0.096 C 
ATOM     23  N   UNL     1      -1.890  -1.816  24.692  0.00  0.00    -0.276 N 
ATOM     24  C   UNL     1      -1.202  -1.905  24.857  0.00  0.00    +0.099 C 
ATOM     25  C   UNL     1      -2.608  -1.429  24.572  0.00  0.00    +0.249 C 
ATOM     26  O   UNL     1      -2.666  -0.616  24.701  0.00  0.00    -0.270 OA
ATOM     34  C   UNL     1      -1.021  -1.115  25.046  0.00  0.00    +0.110 C 
ATOM     35  N   UNL     1      -1.635  -0.876  24.927  0.00  0.00    -0.298 N 
ATOM     36  C   UNL     1      -2.261  -0.344  24.857  0.00  0.00    +0.277 A 
ATOM     37  O   UNL     1      -3.058  -0.359  24.644  0.00  0.00    -0.266 OA
ENDROOT
BRANCH  25  27
ATOM     27  C   UNL     1      -3.269  -1.855  24.322  0.00  0.00    +0.054 A 
ATOM     28  C   UNL     1      -3.644  -1.657  23.614  0.00  0.00    +0.007 A 
ATOM     29  C   UNL     1      -4.305  -2.083  23.364  0.00  0.00    +0.030 A 
ATOM     30  C   UNL     1      -4.591  -2.707  23.822  0.00  0.00    +0.140 A 
ATOM     31  F   UNL     1      -5.252  -3.133  23.572  0.00  0.00    -0.204 F 
ATOM     32  C   UNL     1      -4.216  -2.905  24.529  0.00  0.00    +0.030 A 
ATOM     33  C   UNL     1      -3.555  -2.479  24.779  0.00  0.00    +0.007 A 
ENDBRANCH  25  27
BRANCH  15  14
ATOM     14  N   UNL     1      -2.770   0.987  24.960  0.00  0.00    -0.092 NA
BRANCH  14  11
ATOM     11  S   UNL     1      -2.625   1.799  24.985  0.00  0.00    +0.093 S 
ATOM     12  O   UNL     1      -2.749   1.796  25.800  0.00  0.00    -0.148 OA
ATOM     13  O   UNL     1      -2.501   1.802  24.169  0.00  0.00    -0.148 OA
BRANCH  11   8
ATOM      5  C   UNL     1      -2.192   4.234  25.061  0.00  0.00    +0.073 A 
ATOM      6  C   UNL     1      -2.368   3.869  24.343  0.00  0.00    +0.018 A 
ATOM      7  C   UNL     1      -2.513   3.058  24.317  0.00  0.00    +0.022 A 
ATOM      8  C   UNL     1      -2.481   2.611  25.011  0.00  0.00    +0.127 A 
ATOM      9  C   UNL     1      -2.305   2.976  25.729  0.00  0.00    +0.022 A 
ATOM     10  C   UNL     1      -2.160   3.788  25.754  0.00  0.00    +0.018 A 
BRANCH   5   4
ATOM      1  C   UNL     1      -1.137   6.145  24.997  0.00  0.00    +0.097 C 
ATOM      2  C   UNL     1      -1.282   5.332  24.972  0.00  0.00    +0.246 C 
ATOM      3  O   UNL     1      -0.662   4.808  24.832  0.00  0.00    -0.273 OA
ATOM      4  N   UNL     1      -2.048   5.046  25.086  0.00  0.00    -0.179 NA
ENDBRANCH   5   4
ENDBRANCH  11   8
ENDBRANCH  14  11
ENDBRANCH  15  14
TORSDOF 5
ENDMDL
