MODEL 1
REMARK VINA RESULT:     -12.0      0.000      0.000
REMARK  Name = 
REMARK  4 active torsions:
REMARK  status: ('A' for Active; 'I' for Inactive)
REMARK    1  A    between atoms: O_2  and  C_3
REMARK    2  A    between atoms: C_6  and  O_7
REMARK    3  A    between atoms: C_9  and  S_11
REMARK    4  A    between atoms: S_11  and  N_14
REMARK                            x       y       z     vdW  Elec       q    Type
REMARK                         _______ _______ _______ _____ _____    ______ ____
ROOT
ATOM     14  N   UNL     1      -0.970   2.143  25.146  0.00  0.00    -0.070 NA
ATOM     15  C   UNL     1      -1.472   1.504  25.005  0.00  0.00    +0.202 A 
ATOM     16  N   UNL     1      -1.239   0.721  24.892  0.00  0.00    -0.226 NA
ATOM     17  C   UNL     1      -1.918   0.267  24.770  0.00  0.00    +0.063 A 
ATOM     18  C   UNL     1      -2.570   0.771  24.809  0.00  0.00    +0.023 A 
ATOM     19  C   UNL     1      -3.330   0.468  24.706  0.00  0.00    +0.034 C 
ATOM     20  C   UNL     1      -3.438  -0.338  24.565  0.00  0.00    +0.008 C 
ATOM     21  C   UNL     1      -4.091   0.165  24.604  0.00  0.00    +0.000 C 
ATOM     22  C   UNL     1      -4.198  -0.640  24.463  0.00  0.00    +0.001 C 
ATOM     23  C   UNL     1      -4.306  -1.446  24.322  0.00  0.00    +0.004 C 
ATOM     24  C   UNL     1      -3.654  -1.950  24.284  0.00  0.00    +0.051 C 
ATOM     25  C   UNL     1      -3.590  -2.761  24.154  0.00  0.00    +0.103 C 
ATOM     26  C   UNL     1      -4.215  -3.283  24.025  0.00  0.00    +0.012 C 
ATOM     27  C   UNL     1      -2.790  -2.961  24.176  0.00  0.00    +0.316 C 
ATOM     28  O   UNL     1      -2.474  -3.717  24.073  0.00  0.00    -0.250 OA
ATOM     29  O   UNL     1      -2.359  -2.272  24.320  0.00  0.00    -0.452 OA
ATOM     30  C   UNL     1      -2.893  -1.646  24.387  0.00  0.00    +0.170 C 
ATOM     31  C   UNL     1      -2.785  -0.841  24.527  0.00  0.00    +0.046 C 
ATOM     32  C   UNL     1      -2.025  -0.538  24.630  0.00  0.00    +0.044 C 
ATOM     33  C   UNL     1      -1.372  -1.041  24.591  0.00  0.00    +0.006 C 
ATOM     34  S   UNL     1      -2.295   1.535  24.954  0.00  0.00    -0.053 S 
ENDROOT
BRANCH  14  11
ATOM     11  S   UNL     1      -1.285   2.900  25.249  0.00  0.00    +0.098 S 
ATOM     12  O   UNL     1      -1.445   2.944  24.441  0.00  0.00    -0.148 OA
ATOM     13  O   UNL     1      -1.125   2.855  26.057  0.00  0.00    -0.148 OA
BRANCH  11   9
ATOM      3  C   UNL     1      -2.635   4.509  25.842  0.00  0.00    +0.140 A 
ATOM      4  C   UNL     1      -2.227   5.166  25.558  0.00  0.00    +0.040 A 
ATOM      5  C   UNL     1      -1.506   5.070  25.171  0.00  0.00    +0.041 A 
ATOM      6  C   UNL     1      -1.192   4.314  25.068  0.00  0.00    +0.158 A 
ATOM      9  C   UNL     1      -1.599   3.655  25.352  0.00  0.00    +0.164 A 
ATOM     10  C   UNL     1      -2.321   3.753  25.739  0.00  0.00    +0.060 A 
BRANCH   3   2
ATOM      1  C   UNL     1      -4.061   4.430  25.837  0.00  0.00    +0.252 C 
ATOM      2  O   UNL     1      -3.357   4.605  26.230  0.00  0.00    -0.471 OA
ENDBRANCH   3   2
BRANCH   6   7
ATOM      7  O   UNL     1      -0.470   4.217  24.680  0.00  0.00    -0.470 OA
ATOM      8  C   UNL     1      -0.080   4.873  24.365  0.00  0.00    +0.253 C 
ENDBRANCH   6   7
ENDBRANCH  11   9
ENDBRANCH  14  11
TORSDOF 4
ENDMDL
MODEL 2
REMARK VINA RESULT:     -11.8      1.373      5.991
REMARK  Name = 
REMARK  4 active torsions:
REMARK  status: ('A' for Active; 'I' for Inactive)
REMARK    1  A    between atoms: O_2  and  C_3
REMARK    2  A    between atoms: C_6  and  O_7
REMARK    3  A    between atoms: C_9  and  S_11
REMARK    4  A    between atoms: S_11  and  N_14
REMARK                            x       y       z     vdW  Elec       q    Type
REMARK                         _______ _______ _______ _____ _____    ______ ____
ROOT
ATOM     14  N   UNL     1      -3.909   0.116  24.780  0.00  0.00    -0.070 NA
ATOM     15  C   UNL     1      -3.384   0.753  24.802  0.00  0.00    +0.202 A 
ATOM     16  N   UNL     1      -3.590   1.548  24.873  0.00  0.00    -0.226 NA
ATOM     17  C   UNL     1      -2.895   1.993  24.871  0.00  0.00    +0.063 A 
ATOM     18  C   UNL     1      -2.259   1.471  24.799  0.00  0.00    +0.023 A 
ATOM     19  C   UNL     1      -1.488   1.763  24.781  0.00  0.00    +0.034 C 
ATOM     20  C   UNL     1      -1.351   2.575  24.836  0.00  0.00    +0.008 C 
ATOM     21  C   UNL     1      -0.716   2.053  24.763  0.00  0.00    +0.000 C 
ATOM     22  C   UNL     1      -0.580   2.865  24.818  0.00  0.00    +0.001 C 
ATOM     23  C   UNL     1      -0.444   3.677  24.874  0.00  0.00    +0.004 C 
ATOM     24  C   UNL     1      -1.079   4.198  24.946  0.00  0.00    +0.051 C 
ATOM     25  C   UNL     1      -1.114   5.019  25.011  0.00  0.00    +0.103 C 
ATOM     26  C   UNL     1      -0.470   5.534  25.017  0.00  0.00    +0.012 C 
ATOM     27  C   UNL     1      -1.908   5.237  25.069  0.00  0.00    +0.316 C 
ATOM     28  O   UNL     1      -2.197   6.006  25.143  0.00  0.00    -0.250 OA
ATOM     29  O   UNL     1      -2.363   4.549  25.040  0.00  0.00    -0.452 OA
ATOM     30  C   UNL     1      -1.851   3.907  24.964  0.00  0.00    +0.170 C 
ATOM     31  C   UNL     1      -1.987   3.095  24.909  0.00  0.00    +0.046 C 
ATOM     32  C   UNL     1      -2.758   2.805  24.927  0.00  0.00    +0.044 C 
ATOM     33  C   UNL     1      -3.395   3.325  24.999  0.00  0.00    +0.006 C 
ATOM     34  S   UNL     1      -2.562   0.705  24.756  0.00  0.00    -0.053 S 
ENDROOT
BRANCH  14  11
ATOM     11  S   UNL     1      -3.620  -0.654  24.706  0.00  0.00    +0.098 S 
ATOM     12  O   UNL     1      -3.505  -0.533  23.899  0.00  0.00    -0.148 OA
ATOM     13  O   UNL     1      -3.736  -0.774  25.514  0.00  0.00    -0.148 OA
BRANCH  11   9
ATOM      3  C   UNL     1      -2.292  -2.381  24.838  0.00  0.00    +0.140 A 
ATOM      4  C   UNL     1      -2.757  -2.962  24.484  0.00  0.00    +0.040 A 
ATOM      5  C   UNL     1      -3.510  -2.775  24.203  0.00  0.00    +0.041 A 
ATOM      6  C   UNL     1      -3.797  -2.005  24.278  0.00  0.00    +0.158 A 
ATOM      9  C   UNL     1      -3.332  -1.423  24.632  0.00  0.00    +0.164 A 
ATOM     10  C   UNL     1      -2.580  -1.611  24.913  0.00  0.00    +0.060 A 
BRANCH   3   2
ATOM      1  C   UNL     1      -0.895  -2.565  24.603  0.00  0.00    +0.252 C 
ATOM      2  O   UNL     1      -1.539  -2.568  25.119  0.00  0.00    -0.471 OA
ENDBRANCH   3   2
BRANCH   6   7
ATOM      7  O   UNL     1      -4.550  -1.818  23.997  0.00  0.00    -0.470 OA
ATOM      8  C   UNL     1      -4.985  -2.380  23.576  0.00  0.00    +0.253 C 
ENDBRANCH   6   7
ENDBRANCH  11   9
ENDBRANCH  14  11
TORSDOF 4
ENDMDL
MODEL 3
REMARK VINA RESULT:     -10.7      1.249      5.718
REMARK  Name = 
REMARK  4 active torsions:
REMARK  status: ('A' for Active; 'I' for Inactive)
REMARK    1  A    between atoms: O_2  and  C_3
REMARK    2  A    between atoms: C_6  and  O_7
REMARK    3  A    between atoms: C_9  and  S_11
REMARK    4  A    between atoms: S_11  and  N_14
REMARK                            x       y       z     vdW  Elec       q    Type
REMARK                         _______ _______ _______ _____ _____    ______ ____
ROOT
ATOM     14  N   UNL     1      -0.977  -0.323  24.719  0.00  0.00    -0.070 NA
ATOM     15  C   UNL     1      -1.221   0.463  24.771  0.00  0.00    +0.202 A 
ATOM     16  N   UNL     1      -0.726   1.123  24.798  0.00  0.00    -0.226 NA
ATOM     17  C   UNL     1      -1.202   1.796  24.848  0.00  0.00    +0.063 A 
ATOM     18  C   UNL     1      -1.990   1.551  24.852  0.00  0.00    +0.023 A 
ATOM     19  C   UNL     1      -2.594   2.111  24.898  0.00  0.00    +0.034 C 
ATOM     20  C   UNL     1      -2.411   2.914  24.941  0.00  0.00    +0.008 C 
ATOM     21  C   UNL     1      -3.199   2.670  24.944  0.00  0.00    +0.000 C 
ATOM     22  C   UNL     1      -3.015   3.473  24.987  0.00  0.00    +0.001 C 
ATOM     23  C   UNL     1      -2.832   4.276  25.030  0.00  0.00    +0.004 C 
ATOM     24  C   UNL     1      -2.044   4.521  25.026  0.00  0.00    +0.051 C 
ATOM     25  C   UNL     1      -1.698   5.268  25.062  0.00  0.00    +0.103 C 
ATOM     26  C   UNL     1      -2.099   5.987  25.113  0.00  0.00    +0.012 C 
ATOM     27  C   UNL     1      -0.879   5.172  25.038  0.00  0.00    +0.316 C 
ATOM     28  O   UNL     1      -0.317   5.776  25.060  0.00  0.00    -0.250 OA
ATOM     29  O   UNL     1      -0.719   4.364  24.987  0.00  0.00    -0.452 OA
ATOM     30  C   UNL     1      -1.439   3.961  24.980  0.00  0.00    +0.170 C 
ATOM     31  C   UNL     1      -1.623   3.158  24.937  0.00  0.00    +0.046 C 
ATOM     32  C   UNL     1      -1.018   2.599  24.891  0.00  0.00    +0.044 C 
ATOM     33  C   UNL     1      -0.229   2.843  24.887  0.00  0.00    +0.006 C 
ATOM     34  S   UNL     1      -2.001   0.728  24.804  0.00  0.00    -0.053 S 
ENDROOT
BRANCH  14  11
ATOM     11  S   UNL     1      -1.538  -0.928  24.697  0.00  0.00    +0.098 S 
ATOM     12  O   UNL     1      -1.474  -0.957  23.875  0.00  0.00    -0.148 OA
ATOM     13  O   UNL     1      -1.602  -0.899  25.519  0.00  0.00    -0.148 OA
BRANCH  11   9
ATOM      3  C   UNL     1      -3.450  -1.962  24.499  0.00  0.00    +0.140 A 
ATOM      4  C   UNL     1      -3.219  -2.743  24.629  0.00  0.00    +0.040 A 
ATOM      5  C   UNL     1      -2.428  -2.920  24.782  0.00  0.00    +0.041 A 
ATOM      6  C   UNL     1      -1.868  -2.314  24.805  0.00  0.00    +0.158 A 
ATOM      9  C   UNL     1      -2.099  -1.533  24.674  0.00  0.00    +0.164 A 
ATOM     10  C   UNL     1      -2.890  -1.357  24.521  0.00  0.00    +0.060 A 
BRANCH   3   2
ATOM      1  C   UNL     1      -4.647  -2.191  23.753  0.00  0.00    +0.252 C 
ATOM      2  O   UNL     1      -4.241  -1.785  24.346  0.00  0.00    -0.471 OA
ENDBRANCH   3   2
BRANCH   6   7
ATOM      7  O   UNL     1      -1.077  -2.491  24.957  0.00  0.00    -0.470 OA
ATOM      8  C   UNL     1      -0.848  -3.273  25.095  0.00  0.00    +0.253 C 
ENDBRANCH   6   7
ENDBRANCH  11   9
ENDBRANCH  14  11
TORSDOF 4
ENDMDL
MODEL 4
REMARK VINA RESULT:     -10.5      1.176      2.139
REMARK  Name = 
REMARK  4 active torsions:
REMARK  status: ('A' for Active; 'I' for Inactive)
REMARK    1  A    between atoms: O_2  and  C_3
REMARK    2  A    between atoms: C_6  and  O_7
REMARK    3  A    between atoms: C_9  and  S_11
REMARK    4  A    between atoms: S_11  and  N_14
REMARK                            x       y       z     vdW  Elec       q    Type
REMARK                         _______ _______ _______ _____ _____    ______ ____
ROOT
ATOM     14  N   UNL     1      -3.717   2.638  24.608  0.00  0.00    -0.070 NA
ATOM     15  C   UNL     1      -3.531   1.835  24.589  0.00  0.00    +0.202 A 
ATOM     16  N   UNL     1      -4.051   1.222  24.406  0.00  0.00    -0.226 NA
ATOM     17  C   UNL     1      -3.634   0.511  24.453  0.00  0.00    +0.063 A 
ATOM     18  C   UNL     1      -2.856   0.686  24.666  0.00  0.00    +0.023 A 
ATOM     19  C   UNL     1      -2.307   0.077  24.756  0.00  0.00    +0.034 C 
ATOM     20  C   UNL     1      -2.535  -0.706  24.632  0.00  0.00    +0.008 C 
ATOM     21  C   UNL     1      -1.757  -0.531  24.845  0.00  0.00    +0.000 C 
ATOM     22  C   UNL     1      -1.986  -1.314  24.722  0.00  0.00    +0.001 C 
ATOM     23  C   UNL     1      -2.214  -2.098  24.599  0.00  0.00    +0.004 C 
ATOM     24  C   UNL     1      -2.991  -2.273  24.386  0.00  0.00    +0.051 C 
ATOM     25  C   UNL     1      -3.374  -2.986  24.230  0.00  0.00    +0.103 C 
ATOM     26  C   UNL     1      -3.031  -3.736  24.255  0.00  0.00    +0.012 C 
ATOM     27  C   UNL     1      -4.160  -2.820  24.043  0.00  0.00    +0.316 C 
ATOM     28  O   UNL     1      -4.741  -3.372  23.849  0.00  0.00    -0.250 OA
ATOM     29  O   UNL     1      -4.263  -2.002  24.085  0.00  0.00    -0.452 OA
ATOM     30  C   UNL     1      -3.541  -1.664  24.297  0.00  0.00    +0.170 C 
ATOM     31  C   UNL     1      -3.313  -0.881  24.420  0.00  0.00    +0.046 C 
ATOM     32  C   UNL     1      -3.862  -0.272  24.330  0.00  0.00    +0.044 C 
ATOM     33  C   UNL     1      -4.641  -0.447  24.117  0.00  0.00    +0.006 C 
ATOM     34  S   UNL     1      -2.793   1.504  24.750  0.00  0.00    -0.053 S 
ENDROOT
BRANCH  14  11
ATOM     11  S   UNL     1      -3.136   3.192  24.802  0.00  0.00    +0.098 S 
ATOM     12  O   UNL     1      -3.139   2.922  25.581  0.00  0.00    -0.148 OA
ATOM     13  O   UNL     1      -3.134   3.462  24.023  0.00  0.00    -0.148 OA
BRANCH  11   9
ATOM      3  C   UNL     1      -1.226   4.247  24.851  0.00  0.00    +0.140 A 
ATOM      4  C   UNL     1      -1.395   4.851  25.384  0.00  0.00    +0.040 A 
ATOM      5  C   UNL     1      -2.145   4.904  25.725  0.00  0.00    +0.041 A 
ATOM      6  C   UNL     1      -2.725   4.350  25.531  0.00  0.00    +0.158 A 
ATOM      9  C   UNL     1      -2.556   3.745  24.996  0.00  0.00    +0.164 A 
ATOM     10  C   UNL     1      -1.806   3.693  24.656  0.00  0.00    +0.060 A 
BRANCH   3   2
ATOM      1  C   UNL     1       0.098   3.710  24.852  0.00  0.00    +0.252 C 
ATOM      2  O   UNL     1      -0.477   4.194  24.510  0.00  0.00    -0.471 OA
ENDBRANCH   3   2
BRANCH   6   7
ATOM      7  O   UNL     1      -3.475   4.403  25.871  0.00  0.00    -0.470 OA
ATOM      8  C   UNL     1      -3.616   4.948  26.476  0.00  0.00    +0.253 C 
ENDBRANCH   6   7
ENDBRANCH  11   9
ENDBRANCH  14  11
TORSDOF 4
ENDMDL
MODEL 5
REMARK VINA RESULT:      -9.9      2.319      5.858
REMARK  Name = 
REMARK  4 active torsions:
REMARK  status: ('A' for Active; 'I' for Inactive)
REMARK    1  A    between atoms: O_2  and  C_3
REMARK    2  A    between atoms: C_6  and  O_7
REMARK    3  A    between atoms: C_9  and  S_11
REMARK    4  A    between atoms: S_11  and  N_14
REMARK                            x       y       z     vdW  Elec       q    Type
REMARK                         _______ _______ _______ _____ _____    ______ ____
ROOT
ATOM     14  N   UNL     1      -4.101  -0.991  25.147  0.00  0.00    -0.070 NA
ATOM     15  C   UNL     1      -4.118  -0.166  25.134  0.00  0.00    +0.202 A 
ATOM     16  N   UNL     1      -4.770   0.307  25.309  0.00  0.00    -0.226 NA
ATOM     17  C   UNL     1      -4.542   1.096  25.227  0.00  0.00    +0.063 A 
ATOM     18  C   UNL     1      -3.749   1.109  25.001  0.00  0.00    +0.023 A 
ATOM     19  C   UNL     1      -3.368   1.830  24.877  0.00  0.00    +0.034 C 
ATOM     20  C   UNL     1      -3.780   2.538  24.979  0.00  0.00    +0.008 C 
ATOM     21  C   UNL     1      -2.986   2.551  24.752  0.00  0.00    +0.000 C 
ATOM     22  C   UNL     1      -3.398   3.258  24.854  0.00  0.00    +0.001 C 
ATOM     23  C   UNL     1      -3.811   3.966  24.956  0.00  0.00    +0.004 C 
ATOM     24  C   UNL     1      -4.604   3.953  25.182  0.00  0.00    +0.051 C 
ATOM     25  C   UNL     1      -5.147   4.556  25.324  0.00  0.00    +0.103 C 
ATOM     26  C   UNL     1      -5.000   5.366  25.265  0.00  0.00    +0.012 C 
ATOM     27  C   UNL     1      -5.865   4.209  25.536  0.00  0.00    +0.316 C 
ATOM     28  O   UNL     1      -6.561   4.609  25.726  0.00  0.00    -0.250 OA
ATOM     29  O   UNL     1      -5.764   3.390  25.525  0.00  0.00    -0.452 OA
ATOM     30  C   UNL     1      -4.985   3.232  25.307  0.00  0.00    +0.170 C 
ATOM     31  C   UNL     1      -4.573   2.524  25.205  0.00  0.00    +0.046 C 
ATOM     32  C   UNL     1      -4.954   1.804  25.329  0.00  0.00    +0.044 C 
ATOM     33  C   UNL     1      -5.748   1.790  25.555  0.00  0.00    +0.006 C 
ATOM     34  S   UNL     1      -3.487   0.329  24.943  0.00  0.00    -0.053 S 
ENDROOT
BRANCH  14  11
ATOM     11  S   UNL     1      -3.405  -1.392  24.957  0.00  0.00    +0.098 S 
ATOM     12  O   UNL     1      -3.258  -1.516  25.759  0.00  0.00    -0.148 OA
ATOM     13  O   UNL     1      -3.552  -1.268  24.155  0.00  0.00    -0.148 OA
BRANCH  11   9
ATOM      3  C   UNL     1      -1.282  -1.835  24.707  0.00  0.00    +0.140 A 
ATOM      4  C   UNL     1      -1.318  -2.595  24.389  0.00  0.00    +0.040 A 
ATOM      5  C   UNL     1      -2.049  -2.955  24.260  0.00  0.00    +0.041 A 
ATOM      6  C   UNL     1      -2.745  -2.553  24.450  0.00  0.00    +0.158 A 
ATOM      9  C   UNL     1      -2.709  -1.793  24.768  0.00  0.00    +0.164 A 
ATOM     10  C   UNL     1      -1.978  -1.434  24.896  0.00  0.00    +0.060 A 
BRANCH   3   2
ATOM      1  C   UNL     1      -0.160  -1.104  24.211  0.00  0.00    +0.252 C 
ATOM      2  O   UNL     1      -0.551  -1.475  24.835  0.00  0.00    -0.471 OA
ENDBRANCH   3   2
BRANCH   6   7
ATOM      7  O   UNL     1      -3.476  -2.913  24.321  0.00  0.00    -0.470 OA
ATOM      8  C   UNL     1      -3.510  -3.681  24.018  0.00  0.00    +0.253 C 
ENDBRANCH   6   7
ENDBRANCH  11   9
ENDBRANCH  14  11
TORSDOF 4
ENDMDL
MODEL 6
REMARK VINA RESULT:      -9.7      1.911      4.902
REMARK  Name = 
REMARK  4 active torsions:
REMARK  status: ('A' for Active; 'I' for Inactive)
REMARK    1  A    between atoms: O_2  and  C_3
REMARK    2  A    between atoms: C_6  and  O_7
REMARK    3  A    between atoms: C_9  and  S_11
REMARK    4  A    between atoms: S_11  and  N_14
REMARK                            x       y       z     vdW  Elec       q    Type
REMARK                         _______ _______ _______ _____ _____    ______ ____
ROOT
ATOM     14  N   UNL     1      -0.913   1.567  24.365  0.00  0.00    -0.070 NA
ATOM     15  C   UNL     1      -1.704   1.713  24.551  0.00  0.00    +0.202 A 
ATOM     16  N   UNL     1      -2.048   2.456  24.655  0.00  0.00    -0.226 NA
ATOM     17  C   UNL     1      -2.846   2.345  24.832  0.00  0.00    +0.063 A 
ATOM     18  C   UNL     1      -2.995   1.533  24.838  0.00  0.00    +0.023 A 
ATOM     19  C   UNL     1      -3.754   1.255  25.002  0.00  0.00    +0.034 C 
ATOM     20  C   UNL     1      -4.364   1.788  25.159  0.00  0.00    +0.008 C 
ATOM     21  C   UNL     1      -4.513   0.976  25.165  0.00  0.00    +0.000 C 
ATOM     22  C   UNL     1      -5.123   1.509  25.322  0.00  0.00    +0.001 C 
ATOM     23  C   UNL     1      -5.733   2.042  25.479  0.00  0.00    +0.004 C 
ATOM     24  C   UNL     1      -5.584   2.853  25.474  0.00  0.00    +0.051 C 
ATOM     25  C   UNL     1      -6.071   3.505  25.607  0.00  0.00    +0.103 C 
ATOM     26  C   UNL     1      -6.875   3.480  25.789  0.00  0.00    +0.012 C 
ATOM     27  C   UNL     1      -5.614   4.187  25.527  0.00  0.00    +0.316 C 
ATOM     28  O   UNL     1      -5.880   4.963  25.614  0.00  0.00    -0.250 OA
ATOM     29  O   UNL     1      -4.843   3.956  25.343  0.00  0.00    -0.452 OA
ATOM     30  C   UNL     1      -4.825   3.132  25.310  0.00  0.00    +0.170 C 
ATOM     31  C   UNL     1      -4.215   2.599  25.153  0.00  0.00    +0.046 C 
ATOM     32  C   UNL     1      -3.456   2.877  24.990  0.00  0.00    +0.044 C 
ATOM     33  C   UNL     1      -3.306   3.689  24.984  0.00  0.00    +0.006 C 
ATOM     34  S   UNL     1      -2.289   1.143  24.664  0.00  0.00    -0.053 S 
ENDROOT
BRANCH  14  11
ATOM     11  S   UNL     1      -0.647   0.791  24.278  0.00  0.00    +0.098 S 
ATOM     12  O   UNL     1      -0.952   0.772  23.512  0.00  0.00    -0.148 OA
ATOM     13  O   UNL     1      -0.342   0.809  25.044  0.00  0.00    -0.148 OA
BRANCH  11   9
ATOM      3  C   UNL     1      -0.510  -1.378  24.479  0.00  0.00    +0.140 A 
ATOM      4  C   UNL     1       0.152  -1.536  24.015  0.00  0.00    +0.040 A 
ATOM      5  C   UNL     1       0.549  -0.919  23.637  0.00  0.00    +0.041 A 
ATOM      6  C   UNL     1       0.282  -0.143  23.725  0.00  0.00    +0.158 A 
ATOM      9  C   UNL     1      -0.381   0.015  24.190  0.00  0.00    +0.164 A 
ATOM     10  C   UNL     1      -0.777  -0.602  24.567  0.00  0.00    +0.060 A 
BRANCH   3   2
ATOM      1  C   UNL     1      -1.418  -2.480  24.427  0.00  0.00    +0.252 C 
ATOM      2  O   UNL     1      -0.907  -1.995  24.857  0.00  0.00    -0.471 OA
ENDBRANCH   3   2
BRANCH   6   7
ATOM      7  O   UNL     1       0.679   0.474  23.348  0.00  0.00    -0.470 OA
ATOM      8  C   UNL     1       1.358   0.317  22.905  0.00  0.00    +0.253 C 
ENDBRANCH   6   7
ENDBRANCH  11   9
ENDBRANCH  14  11
TORSDOF 4
ENDMDL
MODEL 7
REMARK VINA RESULT:      -8.5      2.533      4.336
REMARK  Name = 
REMARK  4 active torsions:
REMARK  status: ('A' for Active; 'I' for Inactive)
REMARK    1  A    between atoms: O_2  and  C_3
REMARK    2  A    between atoms: C_6  and  O_7
REMARK    3  A    between atoms: C_9  and  S_11
REMARK    4  A    between atoms: S_11  and  N_14
REMARK                            x       y       z     vdW  Elec       q    Type
REMARK                         _______ _______ _______ _____ _____    ______ ____
ROOT
ATOM     14  N   UNL     1      -2.355   2.847  24.758  0.00  0.00    -0.070 NA
ATOM     15  C   UNL     1      -1.748   2.357  24.491  0.00  0.00    +0.202 A 
ATOM     16  N   UNL     1      -0.960   2.576  24.384  0.00  0.00    -0.226 NA
ATOM     17  C   UNL     1      -0.547   1.916  24.110  0.00  0.00    +0.063 A 
ATOM     18  C   UNL     1      -1.080   1.289  24.048  0.00  0.00    +0.023 A 
ATOM     19  C   UNL     1      -0.820   0.552  23.785  0.00  0.00    +0.034 C 
ATOM     20  C   UNL     1      -0.027   0.441  23.585  0.00  0.00    +0.008 C 
ATOM     21  C   UNL     1      -0.561  -0.185  23.523  0.00  0.00    +0.000 C 
ATOM     22  C   UNL     1       0.232  -0.296  23.322  0.00  0.00    +0.001 C 
ATOM     23  C   UNL     1       1.024  -0.407  23.122  0.00  0.00    +0.004 C 
ATOM     24  C   UNL     1       1.558   0.219  23.184  0.00  0.00    +0.051 C 
ATOM     25  C   UNL     1       2.365   0.274  23.027  0.00  0.00    +0.103 C 
ATOM     26  C   UNL     1       2.849  -0.335  22.753  0.00  0.00    +0.012 C 
ATOM     27  C   UNL     1       2.605   1.046  23.193  0.00  0.00    +0.316 C 
ATOM     28  O   UNL     1       3.371   1.344  23.113  0.00  0.00    -0.250 OA
ATOM     29  O   UNL     1       1.946   1.468  23.452  0.00  0.00    -0.452 OA
ATOM     30  C   UNL     1       1.298   0.957  23.447  0.00  0.00    +0.170 C 
ATOM     31  C   UNL     1       0.505   1.068  23.647  0.00  0.00    +0.046 C 
ATOM     32  C   UNL     1       0.246   1.805  23.910  0.00  0.00    +0.044 C 
ATOM     33  C   UNL     1       0.779   2.432  23.973  0.00  0.00    +0.006 C 
ATOM     34  S   UNL     1      -1.823   1.562  24.283  0.00  0.00    -0.053 S 
ENDROOT
BRANCH  14  11
ATOM     11  S   UNL     1      -3.121   2.549  24.838  0.00  0.00    +0.098 S 
ATOM     12  O   UNL     1      -3.275   2.734  24.050  0.00  0.00    -0.148 OA
ATOM     13  O   UNL     1      -2.967   2.365  25.627  0.00  0.00    -0.148 OA
BRANCH  11   9
ATOM      3  C   UNL     1      -4.805   1.161  24.834  0.00  0.00    +0.140 A 
ATOM      4  C   UNL     1      -5.417   1.658  25.077  0.00  0.00    +0.040 A 
ATOM      5  C   UNL     1      -5.264   2.452  25.241  0.00  0.00    +0.041 A 
ATOM      6  C   UNL     1      -4.498   2.749  25.161  0.00  0.00    +0.158 A 
ATOM      9  C   UNL     1      -3.886   2.252  24.918  0.00  0.00    +0.164 A 
ATOM     10  C   UNL     1      -4.040   1.458  24.755  0.00  0.00    +0.060 A 
BRANCH   3   2
ATOM      1  C   UNL     1      -4.625  -0.222  25.143  0.00  0.00    +0.252 C 
ATOM      2  O   UNL     1      -4.958   0.367  24.671  0.00  0.00    -0.471 OA
ENDBRANCH   3   2
BRANCH   6   7
ATOM      7  O   UNL     1      -4.346   3.543  25.325  0.00  0.00    -0.470 OA
ATOM      8  C   UNL     1      -4.967   4.051  25.520  0.00  0.00    +0.253 C 
ENDBRANCH   6   7
ENDBRANCH  11   9
ENDBRANCH  14  11
TORSDOF 4
ENDMDL
MODEL 8
REMARK VINA RESULT:      -8.5      2.523      4.132
REMARK  Name = 
REMARK  4 active torsions:
REMARK  status: ('A' for Active; 'I' for Inactive)
REMARK    1  A    between atoms: O_2  and  C_3
REMARK    2  A    between atoms: C_6  and  O_7
REMARK    3  A    between atoms: C_9  and  S_11
REMARK    4  A    between atoms: S_11  and  N_14
REMARK                            x       y       z     vdW  Elec       q    Type
REMARK                         _______ _______ _______ _____ _____    ______ ____
ROOT
ATOM     14  N   UNL     1      -3.603   1.071  24.285  0.00  0.00    -0.070 NA
ATOM     15  C   UNL     1      -2.785   1.123  24.189  0.00  0.00    +0.202 A 
ATOM     16  N   UNL     1      -2.302   0.553  23.839  0.00  0.00    -0.226 NA
ATOM     17  C   UNL     1      -1.525   0.832  23.859  0.00  0.00    +0.063 A 
ATOM     18  C   UNL     1      -1.529   1.573  24.220  0.00  0.00    +0.023 A 
ATOM     19  C   UNL     1      -0.823   1.989  24.317  0.00  0.00    +0.034 C 
ATOM     20  C   UNL     1      -0.113   1.662  24.052  0.00  0.00    +0.008 C 
ATOM     21  C   UNL     1      -0.117   2.404  24.413  0.00  0.00    +0.000 C 
ATOM     22  C   UNL     1       0.593   2.078  24.149  0.00  0.00    +0.001 C 
ATOM     23  C   UNL     1       1.303   1.751  23.884  0.00  0.00    +0.004 C 
ATOM     24  C   UNL     1       1.307   1.010  23.523  0.00  0.00    +0.051 C 
ATOM     25  C   UNL     1       1.917   0.552  23.209  0.00  0.00    +0.103 C 
ATOM     26  C   UNL     1       2.716   0.756  23.189  0.00  0.00    +0.012 C 
ATOM     27  C   UNL     1       1.589  -0.147  22.918  0.00  0.00    +0.316 C 
ATOM     28  O   UNL     1       2.001  -0.763  22.557  0.00  0.00    -0.250 OA
ATOM     29  O   UNL     1       0.775  -0.120  23.053  0.00  0.00    -0.452 OA
ATOM     30  C   UNL     1       0.601   0.595  23.426  0.00  0.00    +0.170 C 
ATOM     31  C   UNL     1      -0.109   0.921  23.691  0.00  0.00    +0.046 C 
ATOM     32  C   UNL     1      -0.815   0.505  23.594  0.00  0.00    +0.044 C 
ATOM     33  C   UNL     1      -0.812  -0.237  23.233  0.00  0.00    +0.006 C 
ATOM     34  S   UNL     1      -2.308   1.753  24.424  0.00  0.00    -0.053 S 
ENDROOT
BRANCH  14  11
ATOM     11  S   UNL     1      -4.016   1.688  24.647  0.00  0.00    +0.098 S 
ATOM     12  O   UNL     1      -3.930   1.317  25.378  0.00  0.00    -0.148 OA
ATOM     13  O   UNL     1      -4.101   2.059  23.915  0.00  0.00    -0.148 OA
BRANCH  11   9
ATOM      3  C   UNL     1      -4.441   3.602  25.604  0.00  0.00    +0.140 A 
ATOM      4  C   UNL     1      -5.253   3.536  25.731  0.00  0.00    +0.040 A 
ATOM      5  C   UNL     1      -5.654   2.854  25.496  0.00  0.00    +0.041 A 
ATOM      6  C   UNL     1      -5.240   2.238  25.135  0.00  0.00    +0.158 A 
ATOM      9  C   UNL     1      -4.428   2.304  25.008  0.00  0.00    +0.164 A 
ATOM     10  C   UNL     1      -4.028   2.986  25.243  0.00  0.00    +0.060 A 
BRANCH   3   2
ATOM      1  C   UNL     1      -3.608   4.287  26.541  0.00  0.00    +0.252 C 
ATOM      2  O   UNL     1      -4.041   4.284  25.839  0.00  0.00    -0.471 OA
ENDBRANCH   3   2
BRANCH   6   7
ATOM      7  O   UNL     1      -5.641   1.556  24.900  0.00  0.00    -0.470 OA
ATOM      8  C   UNL     1      -6.460   1.506  24.993  0.00  0.00    +0.253 C 
ENDBRANCH   6   7
ENDBRANCH  11   9
ENDBRANCH  14  11
TORSDOF 4
ENDMDL
