MODEL 1
REMARK VINA RESULT:     -13.8      0.000      0.000
REMARK  Name = 
REMARK  6 active torsions:
REMARK  status: ('A' for Active; 'I' for Inactive)
REMARK    1  A    between atoms: O_2  and  C_3
REMARK    2  A    between atoms: C_6  and  S_9
REMARK    3  A    between atoms: S_9  and  N_12
REMARK    4  A    between atoms: N_19  and  C_20
REMARK    5  A    between atoms: C_20  and  C_21
REMARK    6  A    between atoms: C_23  and  C_27
REMARK                            x       y       z     vdW  Elec       q    Type
REMARK                         _______ _______ _______ _____ _____    ______ ____
ROOT
ATOM     12  N   UNL     1      -4.333   0.931  24.900  0.00  0.00    -0.151 NA
ATOM     13  C   UNL     1      -4.999   1.255  25.266  0.00  0.00    +0.127 C 
ATOM     14  C   UNL     1      -4.920   2.075  25.259  0.00  0.00    +0.153 C 
ATOM     15  O   UNL     1      -5.405   2.680  25.542  0.00  0.00    -0.344 OA
ATOM     16  C   UNL     1      -5.177   3.467  25.455  0.00  0.00    +0.227 C 
ATOM     17  C   UNL     1      -4.464   3.651  25.085  0.00  0.00    +0.256 C 
ATOM     18  O   UNL     1      -4.235   4.440  24.998  0.00  0.00    -0.272 OA
ATOM     19  N   UNL     1      -3.977   3.048  24.802  0.00  0.00    -0.271 N 
ATOM     31  C   UNL     1      -4.206   2.259  24.889  0.00  0.00    +0.122 C 
ATOM     32  C   UNL     1      -3.844   1.553  24.668  0.00  0.00    +0.118 C 
ENDROOT
BRANCH  12   9
ATOM      9  S   UNL     1      -4.184   0.128  24.787  0.00  0.00    +0.063 S 
ATOM     10  O   UNL     1      -4.041   0.267  23.987  0.00  0.00    -0.153 OA
ATOM     11  O   UNL     1      -4.328  -0.011  25.588  0.00  0.00    -0.153 OA
BRANCH   9   6
ATOM      3  C   UNL     1      -3.738  -2.283  24.449  0.00  0.00    +0.139 A 
ATOM      4  C   UNL     1      -3.428  -1.895  25.108  0.00  0.00    +0.038 A 
ATOM      5  C   UNL     1      -3.576  -1.091  25.220  0.00  0.00    +0.023 A 
ATOM      6  C   UNL     1      -4.036  -0.676  24.674  0.00  0.00    +0.122 A 
ATOM      7  C   UNL     1      -4.345  -1.065  24.016  0.00  0.00    +0.023 A 
ATOM      8  C   UNL     1      -4.196  -1.868  23.903  0.00  0.00    +0.038 A 
BRANCH   3   2
ATOM      1  C   UNL     1      -2.813  -3.357  24.269  0.00  0.00    +0.252 C 
ATOM      2  O   UNL     1      -3.589  -3.086  24.336  0.00  0.00    -0.471 OA
ENDBRANCH   3   2
ENDBRANCH   9   6
ENDBRANCH  12   9
BRANCH  19  20
ATOM     20  C   UNL     1      -3.263   3.232  24.432  0.00  0.00    +0.120 C 
BRANCH  20  21
ATOM     21  C   UNL     1      -2.605   3.437  24.885  0.00  0.00    -0.002 A 
ATOM     22  C   UNL     1      -2.198   4.137  24.729  0.00  0.00    +0.001 A 
ATOM     23  C   UNL     1      -1.540   4.342  25.182  0.00  0.00    +0.071 A 
ATOM     24  C   UNL     1      -1.288   3.846  25.791  0.00  0.00    +0.004 A 
ATOM     25  C   UNL     1      -1.695   3.145  25.948  0.00  0.00    -0.000 A 
ATOM     26  C   UNL     1      -2.353   2.941  25.494  0.00  0.00    -0.003 A 
BRANCH  23  27
ATOM     27  C   UNL     1      -1.133   5.043  25.025  0.00  0.00    +0.419 C 
ATOM     28  F   UNL     1      -0.727   5.744  24.869  0.00  0.00    -0.166 F 
ATOM     29  F   UNL     1      -0.613   4.632  24.535  0.00  0.00    -0.166 F 
ATOM     30  F   UNL     1      -1.654   5.455  25.515  0.00  0.00    -0.166 F 
ENDBRANCH  23  27
ENDBRANCH  20  21
ENDBRANCH  19  20
TORSDOF 6
ENDMDL
MODEL 2
REMARK VINA RESULT:     -13.3      2.890      5.721
REMARK  Name = 
REMARK  6 active torsions:
REMARK  status: ('A' for Active; 'I' for Inactive)
REMARK    1  A    between atoms: O_2  and  C_3
REMARK    2  A    between atoms: C_6  and  S_9
REMARK    3  A    between atoms: S_9  and  N_12
REMARK    4  A    between atoms: N_19  and  C_20
REMARK    5  A    between atoms: C_20  and  C_21
REMARK    6  A    between atoms: C_23  and  C_27
REMARK                            x       y       z     vdW  Elec       q    Type
REMARK                         _______ _______ _______ _____ _____    ______ ____
ROOT
ATOM     12  N   UNL     1      -0.911   1.247  24.861  0.00  0.00    -0.151 NA
ATOM     13  C   UNL     1      -0.313   0.849  24.454  0.00  0.00    +0.127 C 
ATOM     14  C   UNL     1      -0.460   0.040  24.514  0.00  0.00    +0.153 C 
ATOM     15  O   UNL     1      -0.056  -0.618  24.222  0.00  0.00    -0.344 OA
ATOM     16  C   UNL     1      -0.339  -1.377  24.373  0.00  0.00    +0.227 C 
ATOM     17  C   UNL     1      -1.028  -1.480  24.816  0.00  0.00    +0.256 C 
ATOM     18  O   UNL     1      -1.312  -2.240  24.968  0.00  0.00    -0.272 OA
ATOM     19  N   UNL     1      -1.432  -0.823  25.109  0.00  0.00    -0.271 N 
ATOM     31  C   UNL     1      -1.148  -0.063  24.957  0.00  0.00    +0.122 C 
ATOM     32  C   UNL     1      -1.427   0.683  25.172  0.00  0.00    +0.118 C 
ENDROOT
BRANCH  12   9
ATOM      9  S   UNL     1      -0.981   2.065  24.943  0.00  0.00    +0.063 S 
ATOM     10  O   UNL     1      -0.585   2.026  25.666  0.00  0.00    -0.153 OA
ATOM     11  O   UNL     1      -1.376   2.103  24.220  0.00  0.00    -0.153 OA
BRANCH   9   6
ATOM      3  C   UNL     1      -1.189   4.519  25.187  0.00  0.00    +0.139 A 
ATOM      4  C   UNL     1      -1.731   4.020  25.560  0.00  0.00    +0.038 A 
ATOM      5  C   UNL     1      -1.661   3.202  25.479  0.00  0.00    +0.023 A 
ATOM      6  C   UNL     1      -1.050   2.883  25.024  0.00  0.00    +0.122 A 
ATOM      7  C   UNL     1      -0.509   3.382  24.652  0.00  0.00    +0.023 A 
ATOM      8  C   UNL     1      -0.579   4.200  24.733  0.00  0.00    +0.038 A 
BRANCH   3   2
ATOM      1  C   UNL     1      -1.961   5.715  25.059  0.00  0.00    +0.252 C 
ATOM      2  O   UNL     1      -1.258   5.337  25.269  0.00  0.00    -0.471 OA
ENDBRANCH   3   2
ENDBRANCH   9   6
ENDBRANCH  12   9
BRANCH  19  20
ATOM     20  C   UNL     1      -2.120  -0.926  25.552  0.00  0.00    +0.120 C 
BRANCH  20  21
ATOM     21  C   UNL     1      -2.849  -0.995  25.171  0.00  0.00    -0.002 A 
ATOM     22  C   UNL     1      -3.380  -0.364  25.180  0.00  0.00    +0.001 A 
ATOM     23  C   UNL     1      -4.109  -0.433  24.800  0.00  0.00    +0.071 A 
ATOM     24  C   UNL     1      -4.307  -1.134  24.410  0.00  0.00    +0.004 A 
ATOM     25  C   UNL     1      -3.775  -1.765  24.402  0.00  0.00    -0.000 A 
ATOM     26  C   UNL     1      -3.047  -1.695  24.783  0.00  0.00    -0.003 A 
BRANCH  23  27
ATOM     27  C   UNL     1      -4.640   0.198  24.808  0.00  0.00    +0.419 C 
ATOM     28  F   UNL     1      -5.172   0.830  24.817  0.00  0.00    -0.166 F 
ATOM     29  F   UNL     1      -4.806   0.048  25.602  0.00  0.00    -0.166 F 
ATOM     30  F   UNL     1      -4.475   0.349  24.014  0.00  0.00    -0.166 F 
ENDBRANCH  23  27
ENDBRANCH  20  21
ENDBRANCH  19  20
TORSDOF 6
ENDMDL
MODEL 3
REMARK VINA RESULT:     -13.3      2.159      2.962
REMARK  Name = 
REMARK  6 active torsions:
REMARK  status: ('A' for Active; 'I' for Inactive)
REMARK    1  A    between atoms: O_2  and  C_3
REMARK    2  A    between atoms: C_6  and  S_9
REMARK    3  A    between atoms: S_9  and  N_12
REMARK    4  A    between atoms: N_19  and  C_20
REMARK    5  A    between atoms: C_20  and  C_21
REMARK    6  A    between atoms: C_23  and  C_27
REMARK                            x       y       z     vdW  Elec       q    Type
REMARK                         _______ _______ _______ _____ _____    ______ ____
ROOT
ATOM     12  N   UNL     1      -1.650   0.548  25.153  0.00  0.00    -0.151 NA
ATOM     13  C   UNL     1      -0.925   0.626  25.540  0.00  0.00    +0.127 C 
ATOM     14  C   UNL     1      -0.726   1.426  25.551  0.00  0.00    +0.153 C 
ATOM     15  O   UNL     1      -0.076   1.830  25.858  0.00  0.00    -0.344 OA
ATOM     16  C   UNL     1      -0.026   2.649  25.785  0.00  0.00    +0.227 C 
ATOM     17  C   UNL     1      -0.628   3.066  25.405  0.00  0.00    +0.256 C 
ATOM     18  O   UNL     1      -0.579   3.887  25.331  0.00  0.00    -0.272 OA
ATOM     19  N   UNL     1      -1.279   2.664  25.098  0.00  0.00    -0.271 N 
ATOM     31  C   UNL     1      -1.328   1.843  25.171  0.00  0.00    +0.122 C 
ATOM     32  C   UNL     1      -1.899   1.301  24.925  0.00  0.00    +0.118 C 
ENDROOT
BRANCH  12   9
ATOM      9  S   UNL     1      -2.054  -0.158  25.018  0.00  0.00    +0.063 S 
ATOM     10  O   UNL     1      -2.299  -0.168  25.806  0.00  0.00    -0.153 OA
ATOM     11  O   UNL     1      -1.809  -0.148  24.231  0.00  0.00    -0.153 OA
BRANCH   9   6
ATOM      3  C   UNL     1      -3.267  -2.277  24.614  0.00  0.00    +0.139 A 
ATOM      4  C   UNL     1      -2.442  -2.265  24.598  0.00  0.00    +0.038 A 
ATOM      5  C   UNL     1      -2.038  -1.559  24.733  0.00  0.00    +0.023 A 
ATOM      6  C   UNL     1      -2.458  -0.865  24.883  0.00  0.00    +0.122 A 
ATOM      7  C   UNL     1      -3.283  -0.878  24.899  0.00  0.00    +0.023 A 
ATOM      8  C   UNL     1      -3.687  -1.584  24.764  0.00  0.00    +0.038 A 
BRANCH   3   2
ATOM      1  C   UNL     1      -4.198  -3.044  23.847  0.00  0.00    +0.252 C 
ATOM      2  O   UNL     1      -3.671  -2.984  24.479  0.00  0.00    -0.471 OA
ENDBRANCH   3   2
ENDBRANCH   9   6
ENDBRANCH  12   9
BRANCH  19  20
ATOM     20  C   UNL     1      -1.881   3.081  24.718  0.00  0.00    +0.120 C 
BRANCH  20  21
ATOM     21  C   UNL     1      -2.513   3.383  25.155  0.00  0.00    -0.002 A 
ATOM     22  C   UNL     1      -3.286   3.171  24.961  0.00  0.00    +0.001 A 
ATOM     23  C   UNL     1      -3.918   3.472  25.397  0.00  0.00    +0.071 A 
ATOM     24  C   UNL     1      -3.776   3.986  26.028  0.00  0.00    +0.004 A 
ATOM     25  C   UNL     1      -3.003   4.198  26.221  0.00  0.00    -0.000 A 
ATOM     26  C   UNL     1      -2.371   3.896  25.784  0.00  0.00    -0.003 A 
BRANCH  23  27
ATOM     27  C   UNL     1      -4.692   3.260  25.204  0.00  0.00    +0.419 C 
ATOM     28  F   UNL     1      -5.465   3.048  25.010  0.00  0.00    -0.166 F 
ATOM     29  F   UNL     1      -4.671   2.664  25.773  0.00  0.00    -0.166 F 
ATOM     30  F   UNL     1      -4.713   3.857  24.634  0.00  0.00    -0.166 F 
ENDBRANCH  23  27
ENDBRANCH  20  21
ENDBRANCH  19  20
TORSDOF 6
ENDMDL
MODEL 4
REMARK VINA RESULT:     -12.9      3.067      5.579
REMARK  Name = 
REMARK  6 active torsions:
REMARK  status: ('A' for Active; 'I' for Inactive)
REMARK    1  A    between atoms: O_2  and  C_3
REMARK    2  A    between atoms: C_6  and  S_9
REMARK    3  A    between atoms: S_9  and  N_12
REMARK    4  A    between atoms: N_19  and  C_20
REMARK    5  A    between atoms: C_20  and  C_21
REMARK    6  A    between atoms: C_23  and  C_27
REMARK                            x       y       z     vdW  Elec       q    Type
REMARK                         _______ _______ _______ _____ _____    ______ ____
ROOT
ATOM     12  N   UNL     1      -2.103   1.505  24.530  0.00  0.00    -0.151 NA
ATOM     13  C   UNL     1      -1.458   1.622  24.027  0.00  0.00    +0.127 C 
ATOM     14  C   UNL     1      -1.001   0.936  24.037  0.00  0.00    +0.153 C 
ATOM     15  O   UNL     1      -0.302   0.733  23.648  0.00  0.00    -0.344 OA
ATOM     16  C   UNL     1       0.036  -0.009  23.768  0.00  0.00    +0.227 C 
ATOM     17  C   UNL     1      -0.325  -0.550  24.276  0.00  0.00    +0.256 C 
ATOM     18  O   UNL     1       0.014  -1.294  24.395  0.00  0.00    -0.272 OA
ATOM     19  N   UNL     1      -1.024  -0.348  24.664  0.00  0.00    -0.271 N 
ATOM     31  C   UNL     1      -1.362   0.395  24.545  0.00  0.00    +0.122 C 
ATOM     32  C   UNL     1      -2.042   0.747  24.849  0.00  0.00    +0.118 C 
ENDROOT
BRANCH  12   9
ATOM      9  S   UNL     1      -2.701   2.051  24.685  0.00  0.00    +0.063 S 
ATOM     10  O   UNL     1      -3.069   1.850  23.975  0.00  0.00    -0.153 OA
ATOM     11  O   UNL     1      -2.334   2.252  25.396  0.00  0.00    -0.153 OA
BRANCH   9   6
ATOM      3  C   UNL     1      -4.498   3.689  25.152  0.00  0.00    +0.139 A 
ATOM      4  C   UNL     1      -4.679   2.971  24.787  0.00  0.00    +0.038 A 
ATOM      5  C   UNL     1      -4.080   2.425  24.632  0.00  0.00    +0.023 A 
ATOM      6  C   UNL     1      -3.300   2.597  24.841  0.00  0.00    +0.122 A 
ATOM      7  C   UNL     1      -3.120   3.315  25.205  0.00  0.00    +0.023 A 
ATOM      8  C   UNL     1      -3.719   3.861  25.360  0.00  0.00    +0.038 A 
BRANCH   3   2
ATOM      1  C   UNL     1      -5.801   3.986  25.656  0.00  0.00    +0.252 C 
ATOM      2  O   UNL     1      -5.096   4.234  25.307  0.00  0.00    -0.471 OA
ENDBRANCH   3   2
ENDBRANCH   9   6
ENDBRANCH  12   9
BRANCH  19  20
ATOM     20  C   UNL     1      -1.385  -0.889  25.172  0.00  0.00    +0.120 C 
BRANCH  20  21
ATOM     21  C   UNL     1      -1.857  -1.491  24.865  0.00  0.00    -0.002 A 
ATOM     22  C   UNL     1      -2.664  -1.362  24.747  0.00  0.00    +0.001 A 
ATOM     23  C   UNL     1      -3.137  -1.964  24.440  0.00  0.00    +0.071 A 
ATOM     24  C   UNL     1      -2.804  -2.694  24.249  0.00  0.00    +0.004 A 
ATOM     25  C   UNL     1      -1.997  -2.823  24.367  0.00  0.00    -0.000 A 
ATOM     26  C   UNL     1      -1.525  -2.221  24.675  0.00  0.00    -0.003 A 
BRANCH  23  27
ATOM     27  C   UNL     1      -3.944  -1.835  24.322  0.00  0.00    +0.419 C 
ATOM     28  F   UNL     1      -4.750  -1.706  24.205  0.00  0.00    -0.166 F 
ATOM     29  F   UNL     1      -4.085  -1.991  25.120  0.00  0.00    -0.166 F 
ATOM     30  F   UNL     1      -3.803  -1.679  23.524  0.00  0.00    -0.166 F 
ENDBRANCH  23  27
ENDBRANCH  20  21
ENDBRANCH  19  20
TORSDOF 6
ENDMDL
