MODEL 1
REMARK VINA RESULT:      -9.0      0.000      0.000
REMARK  Name = 
REMARK  7 active torsions:
REMARK  status: ('A' for Active; 'I' for Inactive)
REMARK    1  A    between atoms: N_4  and  C_5
REMARK    2  A    between atoms: C_8  and  C_9
REMARK    3  A    between atoms: C_9  and  N_10
REMARK    4  A    between atoms: N_10  and  C_11
REMARK    5  A    between atoms: C_14  and  C_15
REMARK    6  A    between atoms: C_15  and  N_16
REMARK    7  A    between atoms: C_17  and  C_19
REMARK                            x       y       z     vdW  Elec       q    Type
REMARK                         _______ _______ _______ _____ _____    ______ ____
ROOT
ATOM     11  C   UNL     1      -0.134   0.241  23.830  0.00  0.00    +0.135 C 
ATOM     12  C   UNL     1      -0.572   0.925  23.680  0.00  0.00    +0.162 C 
ATOM     13  O   UNL     1      -1.349   0.788  23.922  0.00  0.00    -0.350 OA
ATOM     14  C   UNL     1      -1.392   0.021  24.222  0.00  0.00    +0.169 C 
ATOM     26  C   UNL     1      -0.641  -0.317  24.165  0.00  0.00    +0.199 C 
ATOM     27  O   UNL     1      -0.433  -1.080  24.401  0.00  0.00    -0.219 OA
ENDROOT
BRANCH  11  10
ATOM     10  N   UNL     1       0.668   0.136  23.673  0.00  0.00    -0.209 NA
BRANCH  10   9
ATOM      9  C   UNL     1       1.010   0.497  23.014  0.00  0.00    +0.115 C 
BRANCH   9   8
ATOM      5  C   UNL     1       3.472   0.519  22.756  0.00  0.00    +0.073 A 
ATOM      6  C   UNL     1       3.097   1.115  23.183  0.00  0.00    +0.016 A 
ATOM      7  C   UNL     1       2.277   1.108  23.270  0.00  0.00    -0.002 A 
ATOM      8  C   UNL     1       1.831   0.504  22.928  0.00  0.00    -0.005 A 
ATOM     28  C   UNL     1       2.206  -0.093  22.500  0.00  0.00    -0.002 A 
ATOM     29  C   UNL     1       3.027  -0.086  22.413  0.00  0.00    +0.016 A 
BRANCH   5   4
ATOM      1  C   UNL     1       5.588   0.120  23.117  0.00  0.00    +0.097 C 
ATOM      2  C   UNL     1       4.767   0.113  23.204  0.00  0.00    +0.246 C 
ATOM      3  O   UNL     1       4.421  -0.307  23.823  0.00  0.00    -0.273 OA
ATOM      4  N   UNL     1       4.292   0.526  22.669  0.00  0.00    -0.179 NA
ENDBRANCH   5   4
ENDBRANCH   9   8
ENDBRANCH  10   9
ENDBRANCH  11  10
BRANCH  14  15
ATOM     15  C   UNL     1      -2.066  -0.345  24.525  0.00  0.00    +0.148 C 
BRANCH  15  16
ATOM     16  N   UNL     1      -2.658   0.108  24.879  0.00  0.00    -0.199 NA
ATOM     17  C   UNL     1      -3.393  -0.228  25.041  0.00  0.00    +0.265 C 
ATOM     18  O   UNL     1      -3.985   0.225  25.395  0.00  0.00    -0.268 OA
BRANCH  17  19
ATOM     19  C   UNL     1      -3.538  -1.017  24.848  0.00  0.00    +0.055 A 
ATOM     20  C   UNL     1      -3.343  -1.614  25.384  0.00  0.00    +0.007 A 
ATOM     21  C   UNL     1      -3.488  -2.403  25.192  0.00  0.00    +0.030 A 
ATOM     22  C   UNL     1      -3.827  -2.596  24.465  0.00  0.00    +0.140 A 
ATOM     23  F   UNL     1      -3.971  -3.385  24.274  0.00  0.00    -0.204 F 
ATOM     24  C   UNL     1      -4.021  -1.999  23.930  0.00  0.00    +0.030 A 
ATOM     25  C   UNL     1      -3.876  -1.209  24.121  0.00  0.00    +0.007 A 
ENDBRANCH  17  19
ENDBRANCH  15  16
ENDBRANCH  14  15
TORSDOF 7
ENDMDL
MODEL 2
REMARK VINA RESULT:      -8.5      4.361      5.074
REMARK  Name = 
REMARK  7 active torsions:
REMARK  status: ('A' for Active; 'I' for Inactive)
REMARK    1  A    between atoms: N_4  and  C_5
REMARK    2  A    between atoms: C_8  and  C_9
REMARK    3  A    between atoms: C_9  and  N_10
REMARK    4  A    between atoms: N_10  and  C_11
REMARK    5  A    between atoms: C_14  and  C_15
REMARK    6  A    between atoms: C_15  and  N_16
REMARK    7  A    between atoms: C_17  and  C_19
REMARK                            x       y       z     vdW  Elec       q    Type
REMARK                         _______ _______ _______ _____ _____    ______ ____
ROOT
ATOM     11  C   UNL     1      -4.307   1.438  24.619  0.00  0.00    +0.135 C 
ATOM     12  C   UNL     1      -4.967   1.135  25.012  0.00  0.00    +0.162 C 
ATOM     13  O   UNL     1      -4.915   0.312  25.002  0.00  0.00    -0.350 OA
ATOM     14  C   UNL     1      -4.223   0.105  24.603  0.00  0.00    +0.169 C 
ATOM     26  C   UNL     1      -3.848   0.801  24.366  0.00  0.00    +0.199 C 
ATOM     27  O   UNL     1      -3.137   0.851  23.949  0.00  0.00    -0.219 OA
ENDROOT
BRANCH  11  10
ATOM     10  N   UNL     1      -4.137   2.236  24.500  0.00  0.00    -0.209 NA
BRANCH  10   9
ATOM      9  C   UNL     1      -4.109   2.752  25.144  0.00  0.00    +0.115 C 
BRANCH   9   8
ATOM      5  C   UNL     1      -2.422   4.561  25.206  0.00  0.00    +0.073 A 
ATOM      6  C   UNL     1      -2.889   4.456  24.535  0.00  0.00    +0.016 A 
ATOM      7  C   UNL     1      -3.452   3.853  24.514  0.00  0.00    -0.002 A 
ATOM      8  C   UNL     1      -3.547   3.355  25.165  0.00  0.00    -0.005 A 
ATOM     28  C   UNL     1      -3.079   3.460  25.837  0.00  0.00    -0.002 A 
ATOM     29  C   UNL     1      -2.516   4.063  25.857  0.00  0.00    +0.016 A 
BRANCH   5   4
ATOM      1  C   UNL     1      -0.532   5.629  24.968  0.00  0.00    +0.097 C 
ATOM      2  C   UNL     1      -1.095   5.026  24.947  0.00  0.00    +0.246 C 
ATOM      3  O   UNL     1      -0.894   4.284  24.648  0.00  0.00    -0.273 OA
ATOM      4  N   UNL     1      -1.859   5.164  25.227  0.00  0.00    -0.179 NA
ENDBRANCH   5   4
ENDBRANCH   9   8
ENDBRANCH  10   9
ENDBRANCH  11  10
BRANCH  14  15
ATOM     15  C   UNL     1      -3.954  -0.662  24.464  0.00  0.00    +0.148 C 
BRANCH  15  16
ATOM     16  N   UNL     1      -4.453  -1.218  24.114  0.00  0.00    -0.199 NA
ATOM     17  C   UNL     1      -4.214  -2.004  24.051  0.00  0.00    +0.265 C 
ATOM     18  O   UNL     1      -4.714  -2.561  23.702  0.00  0.00    -0.268 OA
BRANCH  17  19
ATOM     19  C   UNL     1      -3.476  -2.236  24.338  0.00  0.00    +0.055 A 
ATOM     20  C   UNL     1      -3.390  -2.450  25.130  0.00  0.00    +0.007 A 
ATOM     21  C   UNL     1      -2.652  -2.681  25.417  0.00  0.00    +0.030 A 
ATOM     22  C   UNL     1      -2.000  -2.700  24.911  0.00  0.00    +0.140 A 
ATOM     23  F   UNL     1      -1.262  -2.932  25.198  0.00  0.00    -0.204 F 
ATOM     24  C   UNL     1      -2.086  -2.487  24.119  0.00  0.00    +0.030 A 
ATOM     25  C   UNL     1      -2.824  -2.254  23.832  0.00  0.00    +0.007 A 
ENDBRANCH  17  19
ENDBRANCH  15  16
ENDBRANCH  14  15
TORSDOF 7
ENDMDL
MODEL 3
REMARK VINA RESULT:      -8.4      4.633      6.346
REMARK  Name = 
REMARK  7 active torsions:
REMARK  status: ('A' for Active; 'I' for Inactive)
REMARK    1  A    between atoms: N_4  and  C_5
REMARK    2  A    between atoms: C_8  and  C_9
REMARK    3  A    between atoms: C_9  and  N_10
REMARK    4  A    between atoms: N_10  and  C_11
REMARK    5  A    between atoms: C_14  and  C_15
REMARK    6  A    between atoms: C_15  and  N_16
REMARK    7  A    between atoms: C_17  and  C_19
REMARK                            x       y       z     vdW  Elec       q    Type
REMARK                         _______ _______ _______ _____ _____    ______ ____
ROOT
ATOM     11  C   UNL     1      -4.279   1.561  24.640  0.00  0.00    +0.135 C 
ATOM     12  C   UNL     1      -4.912   1.961  24.986  0.00  0.00    +0.162 C 
ATOM     13  O   UNL     1      -4.637   2.691  25.255  0.00  0.00    -0.350 OA
ATOM     14  C   UNL     1      -3.833   2.742  25.075  0.00  0.00    +0.169 C 
ATOM     26  C   UNL     1      -3.612   2.043  24.695  0.00  0.00    +0.199 C 
ATOM     27  O   UNL     1      -2.856   1.859  24.419  0.00  0.00    -0.219 OA
ENDROOT
BRANCH  11  10
ATOM     10  N   UNL     1      -4.307   0.810  24.299  0.00  0.00    -0.209 NA
BRANCH  10   9
ATOM      9  C   UNL     1      -4.619   0.176  24.725  0.00  0.00    +0.115 C 
BRANCH   9   8
ATOM      5  C   UNL     1      -3.605  -2.072  24.514  0.00  0.00    +0.073 A 
ATOM      6  C   UNL     1      -3.556  -1.663  25.228  0.00  0.00    +0.016 A 
ATOM      7  C   UNL     1      -3.894  -0.914  25.298  0.00  0.00    -0.002 A 
ATOM      8  C   UNL     1      -4.281  -0.574  24.655  0.00  0.00    -0.005 A 
ATOM     28  C   UNL     1      -4.331  -0.984  23.940  0.00  0.00    -0.002 A 
ATOM     29  C   UNL     1      -3.993  -1.733  23.869  0.00  0.00    +0.016 A 
BRANCH   5   4
ATOM      1  C   UNL     1      -2.120  -3.647  24.232  0.00  0.00    +0.097 C 
ATOM      2  C   UNL     1      -2.458  -2.898  24.302  0.00  0.00    +0.246 C 
ATOM      3  O   UNL     1      -1.987  -2.224  24.230  0.00  0.00    -0.273 OA
ATOM      4  N   UNL     1      -3.267  -2.822  24.444  0.00  0.00    -0.179 NA
ENDBRANCH   5   4
ENDBRANCH   9   8
ENDBRANCH  10   9
ENDBRANCH  11  10
BRANCH  14  15
ATOM     15  C   UNL     1      -3.337   3.378  25.245  0.00  0.00    +0.148 C 
BRANCH  15  16
ATOM     16  N   UNL     1      -3.465   3.832  25.923  0.00  0.00    -0.199 NA
ATOM     17  C   UNL     1      -2.907   4.392  26.155  0.00  0.00    +0.265 C 
ATOM     18  O   UNL     1      -3.034   4.845  26.833  0.00  0.00    -0.268 OA
BRANCH  17  19
ATOM     19  C   UNL     1      -2.220   4.500  25.711  0.00  0.00    +0.055 A 
ATOM     20  C   UNL     1      -2.190   5.091  25.136  0.00  0.00    +0.007 A 
ATOM     21  C   UNL     1      -1.504   5.200  24.691  0.00  0.00    +0.030 A 
ATOM     22  C   UNL     1      -0.848   4.717  24.821  0.00  0.00    +0.140 A 
ATOM     23  F   UNL     1      -0.161   4.826  24.376  0.00  0.00    -0.204 F 
ATOM     24  C   UNL     1      -0.877   4.126  25.395  0.00  0.00    +0.030 A 
ATOM     25  C   UNL     1      -1.564   4.017  25.841  0.00  0.00    +0.007 A 
ENDBRANCH  17  19
ENDBRANCH  15  16
ENDBRANCH  14  15
TORSDOF 7
ENDMDL
MODEL 4
REMARK VINA RESULT:      -8.0      2.775      4.016
REMARK  Name = 
REMARK  7 active torsions:
REMARK  status: ('A' for Active; 'I' for Inactive)
REMARK    1  A    between atoms: N_4  and  C_5
REMARK    2  A    between atoms: C_8  and  C_9
REMARK    3  A    between atoms: C_9  and  N_10
REMARK    4  A    between atoms: N_10  and  C_11
REMARK    5  A    between atoms: C_14  and  C_15
REMARK    6  A    between atoms: C_15  and  N_16
REMARK    7  A    between atoms: C_17  and  C_19
REMARK                            x       y       z     vdW  Elec       q    Type
REMARK                         _______ _______ _______ _____ _____    ______ ____
ROOT
ATOM     11  C   UNL     1      -0.756   0.582  24.530  0.00  0.00    +0.135 C 
ATOM     12  C   UNL     1      -0.291  -0.002  24.882  0.00  0.00    +0.162 C 
ATOM     13  O   UNL     1      -0.779  -0.641  25.065  0.00  0.00    -0.350 OA
ATOM     14  C   UNL     1      -1.546  -0.453  24.826  0.00  0.00    +0.169 C 
ATOM     26  C   UNL     1      -1.532   0.303  24.496  0.00  0.00    +0.199 C 
ATOM     27  O   UNL     1      -2.180   0.709  24.185  0.00  0.00    -0.219 OA
ENDROOT
BRANCH  11  10
ATOM     10  N   UNL     1      -0.492   1.315  24.259  0.00  0.00    -0.209 NA
BRANCH  10   9
ATOM      9  C   UNL     1      -0.057   1.807  24.760  0.00  0.00    +0.115 C 
BRANCH   9   8
ATOM      5  C   UNL     1      -0.601   4.217  24.905  0.00  0.00    +0.073 A 
ATOM      6  C   UNL     1      -0.468   3.868  24.170  0.00  0.00    +0.016 A 
ATOM      7  C   UNL     1      -0.286   3.065  24.122  0.00  0.00    -0.002 A 
ATOM      8  C   UNL     1      -0.239   2.610  24.808  0.00  0.00    -0.005 A 
ATOM     28  C   UNL     1      -0.372   2.960  25.544  0.00  0.00    -0.002 A 
ATOM     29  C   UNL     1      -0.554   3.763  25.593  0.00  0.00    +0.016 A 
BRANCH   5   4
ATOM      1  C   UNL     1      -1.748   6.065  25.094  0.00  0.00    +0.097 C 
ATOM      2  C   UNL     1      -1.567   5.262  25.045  0.00  0.00    +0.246 C 
ATOM      3  O   UNL     1      -2.168   4.699  25.089  0.00  0.00    -0.273 OA
ATOM      4  N   UNL     1      -0.783   5.020  24.953  0.00  0.00    -0.179 NA
ENDBRANCH   5   4
ENDBRANCH   9   8
ENDBRANCH  10   9
ENDBRANCH  11  10
BRANCH  14  15
ATOM     15  C   UNL     1      -2.211  -0.935  24.904  0.00  0.00    +0.148 C 
BRANCH  15  16
ATOM     16  N   UNL     1      -2.542  -1.065  25.649  0.00  0.00    -0.199 NA
ATOM     17  C   UNL     1      -3.216  -1.533  25.725  0.00  0.00    +0.265 C 
ATOM     18  O   UNL     1      -3.546  -1.663  26.470  0.00  0.00    -0.268 OA
BRANCH  17  19
ATOM     19  C   UNL     1      -3.560  -1.873  25.056  0.00  0.00    +0.055 A 
ATOM     20  C   UNL     1      -3.345  -2.635  24.824  0.00  0.00    +0.007 A 
ATOM     21  C   UNL     1      -3.690  -2.975  24.156  0.00  0.00    +0.030 A 
ATOM     22  C   UNL     1      -4.248  -2.553  23.720  0.00  0.00    +0.140 A 
ATOM     23  F   UNL     1      -4.592  -2.893  23.051  0.00  0.00    -0.204 F 
ATOM     24  C   UNL     1      -4.462  -1.791  23.952  0.00  0.00    +0.030 A 
ATOM     25  C   UNL     1      -4.118  -1.451  24.620  0.00  0.00    +0.007 A 
ENDBRANCH  17  19
ENDBRANCH  15  16
ENDBRANCH  14  15
TORSDOF 7
ENDMDL
MODEL 5
REMARK VINA RESULT:      -7.5      2.125      2.813
REMARK  Name = 
REMARK  7 active torsions:
REMARK  status: ('A' for Active; 'I' for Inactive)
REMARK    1  A    between atoms: N_4  and  C_5
REMARK    2  A    between atoms: C_8  and  C_9
REMARK    3  A    between atoms: C_9  and  N_10
REMARK    4  A    between atoms: N_10  and  C_11
REMARK    5  A    between atoms: C_14  and  C_15
REMARK    6  A    between atoms: C_15  and  N_16
REMARK    7  A    between atoms: C_17  and  C_19
REMARK                            x       y       z     vdW  Elec       q    Type
REMARK                         _______ _______ _______ _____ _____    ______ ____
ROOT
ATOM     11  C   UNL     1      -0.628   0.612  23.899  0.00  0.00    +0.135 C 
ATOM     12  C   UNL     1      -0.920  -0.108  24.178  0.00  0.00    +0.162 C 
ATOM     13  O   UNL     1      -1.717  -0.004  24.364  0.00  0.00    -0.350 OA
ATOM     14  C   UNL     1      -1.918   0.779  24.200  0.00  0.00    +0.169 C 
ATOM     26  C   UNL     1      -1.244   1.160  23.912  0.00  0.00    +0.199 C 
ATOM     27  O   UNL     1      -1.196   1.950  23.679  0.00  0.00    -0.219 OA
ENDROOT
BRANCH  11  10
ATOM     10  N   UNL     1       0.145   0.758  23.651  0.00  0.00    -0.209 NA
BRANCH  10   9
ATOM      9  C   UNL     1       0.573   0.166  23.266  0.00  0.00    +0.115 C 
BRANCH   9   8
ATOM      5  C   UNL     1       2.966   0.515  22.738  0.00  0.00    +0.073 A 
ATOM      6  C   UNL     1       2.539  -0.074  22.349  0.00  0.00    +0.016 A 
ATOM      7  C   UNL     1       1.742  -0.190  22.525  0.00  0.00    -0.002 A 
ATOM      8  C   UNL     1       1.371   0.282  23.090  0.00  0.00    -0.005 A 
ATOM     28  C   UNL     1       1.798   0.871  23.480  0.00  0.00    -0.002 A 
ATOM     29  C   UNL     1       2.596   0.987  23.304  0.00  0.00    +0.016 A 
BRANCH   5   4
ATOM      1  C   UNL     1       5.140   0.327  22.798  0.00  0.00    +0.097 C 
ATOM      2  C   UNL     1       4.343   0.211  22.974  0.00  0.00    +0.246 C 
ATOM      3  O   UNL     1       4.123  -0.325  23.562  0.00  0.00    -0.273 OA
ATOM      4  N   UNL     1       3.763   0.631  22.562  0.00  0.00    -0.179 NA
ENDBRANCH   5   4
ENDBRANCH   9   8
ENDBRANCH  10   9
ENDBRANCH  11  10
BRANCH  14  15
ATOM     15  C   UNL     1      -2.661   1.122  24.304  0.00  0.00    +0.148 C 
BRANCH  15  16
ATOM     16  N   UNL     1      -3.325   0.643  24.413  0.00  0.00    -0.199 NA
ATOM     17  C   UNL     1      -4.058   0.986  24.565  0.00  0.00    +0.265 C 
ATOM     18  O   UNL     1      -4.723   0.508  24.674  0.00  0.00    -0.268 OA
BRANCH  17  19
ATOM     19  C   UNL     1      -4.131   1.807  24.608  0.00  0.00    +0.055 A 
ATOM     20  C   UNL     1      -4.279   2.244  23.923  0.00  0.00    +0.007 A 
ATOM     21  C   UNL     1      -4.351   3.065  23.966  0.00  0.00    +0.030 A 
ATOM     22  C   UNL     1      -4.275   3.448  24.692  0.00  0.00    +0.140 A 
ATOM     23  F   UNL     1      -4.347   4.269  24.734  0.00  0.00    -0.204 F 
ATOM     24  C   UNL     1      -4.126   3.012  25.376  0.00  0.00    +0.030 A 
ATOM     25  C   UNL     1      -4.054   2.191  25.334  0.00  0.00    +0.007 A 
ENDBRANCH  17  19
ENDBRANCH  15  16
ENDBRANCH  14  15
TORSDOF 7
ENDMDL
MODEL 6
REMARK VINA RESULT:      -7.4      2.815      6.722
REMARK  Name = 
REMARK  7 active torsions:
REMARK  status: ('A' for Active; 'I' for Inactive)
REMARK    1  A    between atoms: N_4  and  C_5
REMARK    2  A    between atoms: C_8  and  C_9
REMARK    3  A    between atoms: C_9  and  N_10
REMARK    4  A    between atoms: N_10  and  C_11
REMARK    5  A    between atoms: C_14  and  C_15
REMARK    6  A    between atoms: C_15  and  N_16
REMARK    7  A    between atoms: C_17  and  C_19
REMARK                            x       y       z     vdW  Elec       q    Type
REMARK                         _______ _______ _______ _____ _____    ______ ____
ROOT
ATOM     11  C   UNL     1      -0.208   0.804  24.054  0.00  0.00    +0.135 C 
ATOM     12  C   UNL     1      -0.301  -0.004  23.911  0.00  0.00    +0.162 C 
ATOM     13  O   UNL     1       0.386  -0.278  23.545  0.00  0.00    -0.350 OA
ATOM     14  C   UNL     1       0.903   0.360  23.461  0.00  0.00    +0.169 C 
ATOM     26  C   UNL     1       0.535   1.028  23.776  0.00  0.00    +0.199 C 
ATOM     27  O   UNL     1       0.855   1.788  23.807  0.00  0.00    -0.219 OA
ENDROOT
BRANCH  11  10
ATOM     10  N   UNL     1      -0.762   1.300  24.411  0.00  0.00    -0.209 NA
BRANCH  10   9
ATOM      9  C   UNL     1      -1.554   1.070  24.455  0.00  0.00    +0.115 C 
BRANCH   9   8
ATOM      5  C   UNL     1      -3.316   2.767  24.827  0.00  0.00    +0.073 A 
ATOM      6  C   UNL     1      -2.705   2.680  25.374  0.00  0.00    +0.016 A 
ATOM      7  C   UNL     1      -2.118   2.114  25.250  0.00  0.00    -0.002 A 
ATOM      8  C   UNL     1      -2.141   1.636  24.579  0.00  0.00    -0.005 A 
ATOM     28  C   UNL     1      -2.753   1.723  24.031  0.00  0.00    -0.002 A 
ATOM     29  C   UNL     1      -3.340   2.289  24.155  0.00  0.00    +0.016 A 
BRANCH   5   4
ATOM      1  C   UNL     1      -5.200   3.685  25.438  0.00  0.00    +0.097 C 
ATOM      2  C   UNL     1      -4.613   3.119  25.314  0.00  0.00    +0.246 C 
ATOM      3  O   UNL     1      -4.735   2.339  25.552  0.00  0.00    -0.273 OA
ATOM      4  N   UNL     1      -3.903   3.333  24.951  0.00  0.00    -0.179 NA
ENDBRANCH   5   4
ENDBRANCH   9   8
ENDBRANCH  10   9
ENDBRANCH  11  10
BRANCH  14  15
ATOM     15  C   UNL     1       1.654   0.334  23.123  0.00  0.00    +0.148 C 
BRANCH  15  16
ATOM     16  N   UNL     1       1.746   0.094  22.339  0.00  0.00    -0.199 NA
ATOM     17  C   UNL     1       2.501   0.012  22.019  0.00  0.00    +0.265 C 
ATOM     18  O   UNL     1       2.594  -0.228  21.235  0.00  0.00    -0.268 OA
BRANCH  17  19
ATOM     19  C   UNL     1       3.166   0.168  22.482  0.00  0.00    +0.055 A 
ATOM     20  C   UNL     1       3.511   0.918  22.467  0.00  0.00    +0.007 A 
ATOM     21  C   UNL     1       4.175   1.075  22.931  0.00  0.00    +0.030 A 
ATOM     22  C   UNL     1       4.494   0.483  23.408  0.00  0.00    +0.140 A 
ATOM     23  F   UNL     1       5.159   0.641  23.871  0.00  0.00    -0.204 F 
ATOM     24  C   UNL     1       4.150  -0.266  23.423  0.00  0.00    +0.030 A 
ATOM     25  C   UNL     1       3.485  -0.424  22.960  0.00  0.00    +0.007 A 
ENDBRANCH  17  19
ENDBRANCH  15  16
ENDBRANCH  14  15
TORSDOF 7
ENDMDL
MODEL 7
REMARK VINA RESULT:      -7.3      3.566      5.757
REMARK  Name = 
REMARK  7 active torsions:
REMARK  status: ('A' for Active; 'I' for Inactive)
REMARK    1  A    between atoms: N_4  and  C_5
REMARK    2  A    between atoms: C_8  and  C_9
REMARK    3  A    between atoms: C_9  and  N_10
REMARK    4  A    between atoms: N_10  and  C_11
REMARK    5  A    between atoms: C_14  and  C_15
REMARK    6  A    between atoms: C_15  and  N_16
REMARK    7  A    between atoms: C_17  and  C_19
REMARK                            x       y       z     vdW  Elec       q    Type
REMARK                         _______ _______ _______ _____ _____    ______ ____
ROOT
ATOM     11  C   UNL     1      -0.991   0.782  25.119  0.00  0.00    +0.135 C 
ATOM     12  C   UNL     1      -0.493   1.115  25.687  0.00  0.00    +0.162 C 
ATOM     13  O   UNL     1      -0.713   1.904  25.788  0.00  0.00    -0.350 OA
ATOM     14  C   UNL     1      -1.346   2.058  25.282  0.00  0.00    +0.169 C 
ATOM     26  C   UNL     1      -1.518   1.365  24.869  0.00  0.00    +0.199 C 
ATOM     27  O   UNL     1      -2.113   1.271  24.305  0.00  0.00    -0.219 OA
ENDROOT
BRANCH  11  10
ATOM     10  N   UNL     1      -0.966   0.003  24.849  0.00  0.00    -0.209 NA
BRANCH  10   9
ATOM      9  C   UNL     1      -1.114  -0.619  25.371  0.00  0.00    +0.115 C 
BRANCH   9   8
ATOM      5  C   UNL     1      -2.683  -2.423  24.732  0.00  0.00    +0.073 A 
ATOM      6  C   UNL     1      -1.970  -2.335  24.328  0.00  0.00    +0.016 A 
ATOM      7  C   UNL     1      -1.447  -1.734  24.541  0.00  0.00    -0.002 A 
ATOM      8  C   UNL     1      -1.637  -1.221  25.158  0.00  0.00    -0.005 A 
ATOM     28  C   UNL     1      -2.351  -1.309  25.562  0.00  0.00    -0.002 A 
ATOM     29  C   UNL     1      -2.874  -1.910  25.349  0.00  0.00    +0.016 A 
BRANCH   5   4
ATOM      1  C   UNL     1      -4.395  -3.451  23.849  0.00  0.00    +0.097 C 
ATOM      2  C   UNL     1      -3.872  -2.850  24.062  0.00  0.00    +0.246 C 
ATOM      3  O   UNL     1      -4.013  -2.074  23.819  0.00  0.00    -0.273 OA
ATOM      4  N   UNL     1      -3.206  -3.024  24.519  0.00  0.00    -0.179 NA
ENDBRANCH   5   4
ENDBRANCH   9   8
ENDBRANCH  10   9
ENDBRANCH  11  10
BRANCH  14  15
ATOM     15  C   UNL     1      -1.739   2.779  25.203  0.00  0.00    +0.148 C 
BRANCH  15  16
ATOM     16  N   UNL     1      -1.318   3.487  25.258  0.00  0.00    -0.199 NA
ATOM     17  C   UNL     1      -1.722   4.201  25.336  0.00  0.00    +0.265 C 
ATOM     18  O   UNL     1      -1.301   4.910  25.391  0.00  0.00    -0.268 OA
BRANCH  17  19
ATOM     19  C   UNL     1      -2.546   4.210  25.360  0.00  0.00    +0.055 A 
ATOM     20  C   UNL     1      -2.938   4.160  26.085  0.00  0.00    +0.007 A 
ATOM     21  C   UNL     1      -3.763   4.169  26.109  0.00  0.00    +0.030 A 
ATOM     22  C   UNL     1      -4.195   4.226  25.409  0.00  0.00    +0.140 A 
ATOM     23  F   UNL     1      -5.020   4.234  25.434  0.00  0.00    -0.204 F 
ATOM     24  C   UNL     1      -3.804   4.276  24.685  0.00  0.00    +0.030 A 
ATOM     25  C   UNL     1      -2.979   4.267  24.660  0.00  0.00    +0.007 A 
ENDBRANCH  17  19
ENDBRANCH  15  16
ENDBRANCH  14  15
TORSDOF 7
ENDMDL
MODEL 8
REMARK VINA RESULT:      -7.0      3.158      5.590
REMARK  Name = 
REMARK  7 active torsions:
REMARK  status: ('A' for Active; 'I' for Inactive)
REMARK    1  A    between atoms: N_4  and  C_5
REMARK    2  A    between atoms: C_8  and  C_9
REMARK    3  A    between atoms: C_9  and  N_10
REMARK    4  A    between atoms: N_10  and  C_11
REMARK    5  A    between atoms: C_14  and  C_15
REMARK    6  A    between atoms: C_15  and  N_16
REMARK    7  A    between atoms: C_17  and  C_19
REMARK                            x       y       z     vdW  Elec       q    Type
REMARK                         _______ _______ _______ _____ _____    ______ ____
ROOT
ATOM     11  C   UNL     1      -1.554   1.506  24.377  0.00  0.00    +0.135 C 
ATOM     12  C   UNL     1      -0.820   1.423  24.746  0.00  0.00    +0.162 C 
ATOM     13  O   UNL     1      -0.684   0.618  24.866  0.00  0.00    -0.350 OA
ATOM     14  C   UNL     1      -1.334   0.203  24.572  0.00  0.00    +0.169 C 
ATOM     26  C   UNL     1      -1.871   0.752  24.269  0.00  0.00    +0.199 C 
ATOM     27  O   UNL     1      -2.598   0.577  23.921  0.00  0.00    -0.219 OA
ENDROOT
BRANCH  11  10
ATOM     10  N   UNL     1      -1.908   2.217  24.155  0.00  0.00    -0.209 NA
BRANCH  10   9
ATOM      9  C   UNL     1      -1.918   2.854  24.680  0.00  0.00    +0.115 C 
BRANCH   9   8
ATOM      5  C   UNL     1      -4.050   4.005  25.187  0.00  0.00    +0.073 A 
ATOM      6  C   UNL     1      -3.533   3.806  25.798  0.00  0.00    +0.016 A 
ATOM      7  C   UNL     1      -2.823   3.422  25.629  0.00  0.00    -0.002 A 
ATOM      8  C   UNL     1      -2.629   3.237  24.849  0.00  0.00    -0.005 A 
ATOM     28  C   UNL     1      -3.146   3.436  24.237  0.00  0.00    -0.002 A 
ATOM     29  C   UNL     1      -3.857   3.820  24.406  0.00  0.00    +0.016 A 
BRANCH   5   4
ATOM      1  C   UNL     1      -6.149   4.331  25.691  0.00  0.00    +0.097 C 
ATOM      2  C   UNL     1      -5.438   3.947  25.522  0.00  0.00    +0.246 C 
ATOM      3  O   UNL     1      -5.404   3.123  25.520  0.00  0.00    -0.273 OA
ATOM      4  N   UNL     1      -4.760   4.388  25.356  0.00  0.00    -0.179 NA
ENDBRANCH   5   4
ENDBRANCH   9   8
ENDBRANCH  10   9
ENDBRANCH  11  10
BRANCH  14  15
ATOM     15  C   UNL     1      -1.429  -0.616  24.578  0.00  0.00    +0.148 C 
BRANCH  15  16
ATOM     16  N   UNL     1      -0.850  -1.097  24.917  0.00  0.00    -0.199 NA
ATOM     17  C   UNL     1      -1.013  -1.889  25.073  0.00  0.00    +0.265 C 
ATOM     18  O   UNL     1      -0.434  -2.371  25.412  0.00  0.00    -0.268 OA
BRANCH  17  19
ATOM     19  C   UNL     1      -1.755  -2.203  24.892  0.00  0.00    +0.055 A 
ATOM     20  C   UNL     1      -2.368  -2.156  25.443  0.00  0.00    +0.007 A 
ATOM     21  C   UNL     1      -3.109  -2.470  25.262  0.00  0.00    +0.030 A 
ATOM     22  C   UNL     1      -3.238  -2.829  24.530  0.00  0.00    +0.140 A 
ATOM     23  F   UNL     1      -3.980  -3.142  24.350  0.00  0.00    -0.204 F 
ATOM     24  C   UNL     1      -2.625  -2.875  23.980  0.00  0.00    +0.030 A 
ATOM     25  C   UNL     1      -1.883  -2.562  24.161  0.00  0.00    +0.007 A 
ENDBRANCH  17  19
ENDBRANCH  15  16
ENDBRANCH  14  15
TORSDOF 7
ENDMDL
