MODEL 1
REMARK VINA RESULT:      -8.4      0.000      0.000
REMARK  Name = 
REMARK  8 active torsions:
REMARK  status: ('A' for Active; 'I' for Inactive)
REMARK    1  A    between atoms: N_2  and  C_4
REMARK    2  A    between atoms: C_7  and  C_10
REMARK    3  A    between atoms: N_15  and  C_16
REMARK    4  A    between atoms: C_20  and  N_24
REMARK    5  A    between atoms: C_25  and  C_27
REMARK    6  A    between atoms: C_27  and  C_28
REMARK    7  A    between atoms: C_28  and  C_31
REMARK    8  A    between atoms: C_31  and  C_32
REMARK                            x       y       z     vdW  Elec       q    Type
REMARK                         _______ _______ _______ _____ _____    ______ ____
ROOT
ATOM     16  C   UNL     1      -0.493   0.514  24.272  0.00  0.00    +0.154 C 
ATOM     17  C   UNL     1      -0.419  -0.293  24.120  0.00  0.00    +0.166 C 
ATOM     18  O   UNL     1       0.310  -0.418  23.757  0.00  0.00    -0.350 OA
ATOM     19  C   UNL     1       0.688   0.311  23.684  0.00  0.00    +0.166 C 
ATOM     20  C   UNL     1       1.372   0.685  23.414  0.00  0.00    +0.154 C 
ATOM     21  C   UNL     1       1.299   1.492  23.566  0.00  0.00    +0.166 C 
ATOM     22  O   UNL     1       0.569   1.618  23.929  0.00  0.00    -0.350 OA
ATOM     23  C   UNL     1       0.191   0.887  24.002  0.00  0.00    +0.166 C 
ENDROOT
BRANCH  16  15
ATOM     10  C   UNL     1      -3.262   1.222  24.258  0.00  0.00    +0.086 A 
ATOM     11  C   UNL     1      -3.357   0.838  23.535  0.00  0.00    +0.040 A 
ATOM     12  C   UNL     1      -2.712   0.468  23.176  0.00  0.00    +0.103 A 
ATOM     13  N   UNL     1      -1.972   0.483  23.541  0.00  0.00    -0.211 NA
ATOM     14  C   UNL     1      -1.878   0.869  24.265  0.00  0.00    +0.237 A 
ATOM     15  N   UNL     1      -1.138   0.884  24.630  0.00  0.00    -0.200 NA
ATOM     35  N   UNL     1      -2.522   1.238  24.623  0.00  0.00    -0.212 NA
BRANCH  10   7
ATOM      4  C   UNL     1      -5.197   2.330  25.333  0.00  0.00    +0.048 A 
ATOM      5  C   UNL     1      -4.637   2.780  24.927  0.00  0.00    +0.015 A 
ATOM      6  C   UNL     1      -3.992   2.411  24.569  0.00  0.00    +0.003 A 
ATOM      7  C   UNL     1      -3.907   1.591  24.616  0.00  0.00    +0.018 A 
ATOM      8  C   UNL     1      -4.466   1.141  25.022  0.00  0.00    +0.003 A 
ATOM      9  C   UNL     1      -5.112   1.510  25.380  0.00  0.00    +0.015 A 
BRANCH   4   2
ATOM      1  C   UNL     1      -5.906   3.521  25.677  0.00  0.00    +0.112 C 
ATOM      2  N   UNL     1      -5.842   2.699  25.691  0.00  0.00    -0.304 N 
ATOM      3  C   UNL     1      -6.423   2.246  26.063  0.00  0.00    +0.112 C 
ENDBRANCH   4   2
ENDBRANCH  10   7
ENDBRANCH  16  15
BRANCH  20  24
ATOM     24  N   UNL     1       2.017   0.316  23.056  0.00  0.00    -0.202 NA
ATOM     25  C   UNL     1       2.754   0.687  23.049  0.00  0.00    +0.241 C 
ATOM     26  O   UNL     1       2.846   1.428  23.400  0.00  0.00    -0.273 OA
BRANCH  25  27
ATOM     27  C   UNL     1       3.399   0.317  22.690  0.00  0.00    +0.087 C 
BRANCH  27  28
ATOM     28  C   UNL     1       4.156   0.416  23.002  0.00  0.00    +0.019 C 
ATOM     29  C   UNL     1       4.259   1.091  22.538  0.00  0.00    +0.001 C 
ATOM     30  C   UNL     1       4.054  -0.258  23.467  0.00  0.00    +0.001 C 
BRANCH  28  31
ATOM     31  C   UNL     1       4.914   0.515  23.313  0.00  0.00    +0.115 C 
BRANCH  31  32
ATOM     32  C   UNL     1       5.441  -0.120  23.327  0.00  0.00    +0.365 C 
ATOM     33  O   UNL     1       5.475  -0.612  23.989  0.00  0.00    -0.246 OA
ATOM     34  O   UNL     1       5.931  -0.262  22.679  0.00  0.00    -0.246 OA
ENDBRANCH  31  32
ENDBRANCH  28  31
ENDBRANCH  27  28
ENDBRANCH  25  27
ENDBRANCH  20  24
TORSDOF 8
ENDMDL
MODEL 2
REMARK VINA RESULT:      -8.2      2.142      7.756
REMARK  Name = 
REMARK  8 active torsions:
REMARK  status: ('A' for Active; 'I' for Inactive)
REMARK    1  A    between atoms: N_2  and  C_4
REMARK    2  A    between atoms: C_7  and  C_10
REMARK    3  A    between atoms: N_15  and  C_16
REMARK    4  A    between atoms: C_20  and  N_24
REMARK    5  A    between atoms: C_25  and  C_27
REMARK    6  A    between atoms: C_27  and  C_28
REMARK    7  A    between atoms: C_28  and  C_31
REMARK    8  A    between atoms: C_31  and  C_32
REMARK                            x       y       z     vdW  Elec       q    Type
REMARK                         _______ _______ _______ _____ _____    ______ ____
ROOT
ATOM     16  C   UNL     1      -0.284   0.908  23.943  0.00  0.00    +0.154 C 
ATOM     17  C   UNL     1      -0.764   0.246  23.835  0.00  0.00    +0.166 C 
ATOM     18  O   UNL     1      -1.545   0.506  23.778  0.00  0.00    -0.350 OA
ATOM     19  C   UNL     1      -1.547   1.326  23.851  0.00  0.00    +0.166 C 
ATOM     20  C   UNL     1      -2.031   1.995  23.860  0.00  0.00    +0.154 C 
ATOM     21  C   UNL     1      -1.550   2.657  23.968  0.00  0.00    +0.166 C 
ATOM     22  O   UNL     1      -0.769   2.397  24.025  0.00  0.00    -0.350 OA
ATOM     23  C   UNL     1      -0.767   1.575  23.953  0.00  0.00    +0.166 C 
ENDROOT
BRANCH  16  15
ATOM     10  C   UNL     1       2.299   0.163  22.971  0.00  0.00    +0.086 A 
ATOM     11  C   UNL     1       1.949  -0.198  22.317  0.00  0.00    +0.040 A 
ATOM     12  C   UNL     1       1.128  -0.192  22.233  0.00  0.00    +0.103 A 
ATOM     13  N   UNL     1       0.657   0.174  22.803  0.00  0.00    -0.211 NA
ATOM     14  C   UNL     1       1.008   0.536  23.457  0.00  0.00    +0.237 A 
ATOM     15  N   UNL     1       0.537   0.902  24.027  0.00  0.00    -0.200 NA
ATOM     35  N   UNL     1       1.828   0.530  23.541  0.00  0.00    -0.212 NA
BRANCH  10   7
ATOM      4  C   UNL     1       4.762   0.147  23.221  0.00  0.00    +0.048 A 
ATOM      5  C   UNL     1       4.317  -0.503  23.468  0.00  0.00    +0.015 A 
ATOM      6  C   UNL     1       3.497  -0.498  23.384  0.00  0.00    +0.003 A 
ATOM      7  C   UNL     1       3.119   0.158  23.054  0.00  0.00    +0.018 A 
ATOM      8  C   UNL     1       3.563   0.808  22.808  0.00  0.00    +0.003 A 
ATOM      9  C   UNL     1       4.384   0.803  22.891  0.00  0.00    +0.015 A 
BRANCH   4   2
ATOM      1  C   UNL     1       6.052  -0.225  22.734  0.00  0.00    +0.112 C 
ATOM      2  N   UNL     1       5.582   0.141  23.305  0.00  0.00    -0.304 N 
ATOM      3  C   UNL     1       5.933   0.502  23.958  0.00  0.00    +0.112 C 
ENDBRANCH   4   2
ENDBRANCH  10   7
ENDBRANCH  16  15
BRANCH  20  24
ATOM     24  N   UNL     1      -2.852   2.001  23.776  0.00  0.00    -0.202 NA
ATOM     25  C   UNL     1      -3.319   2.410  24.319  0.00  0.00    +0.241 C 
ATOM     26  O   UNL     1      -2.966   2.814  24.946  0.00  0.00    -0.273 OA
BRANCH  25  27
ATOM     27  C   UNL     1      -4.140   2.416  24.235  0.00  0.00    +0.087 C 
BRANCH  27  28
ATOM     28  C   UNL     1      -4.623   2.345  24.900  0.00  0.00    +0.019 C 
ATOM     29  C   UNL     1      -4.595   3.163  25.006  0.00  0.00    +0.001 C 
ATOM     30  C   UNL     1      -4.651   1.527  24.794  0.00  0.00    +0.001 C 
BRANCH  28  31
ATOM     31  C   UNL     1      -5.106   2.275  25.565  0.00  0.00    +0.115 C 
BRANCH  31  32
ATOM     32  C   UNL     1      -5.904   2.480  25.519  0.00  0.00    +0.365 C 
ATOM     33  O   UNL     1      -6.181   3.153  25.907  0.00  0.00    -0.246 OA
ATOM     34  O   UNL     1      -6.425   2.010  25.084  0.00  0.00    -0.246 OA
ENDBRANCH  31  32
ENDBRANCH  28  31
ENDBRANCH  27  28
ENDBRANCH  25  27
ENDBRANCH  20  24
TORSDOF 8
ENDMDL
MODEL 3
REMARK VINA RESULT:      -6.8     14.375     15.394
REMARK  Name = 
REMARK  8 active torsions:
REMARK  status: ('A' for Active; 'I' for Inactive)
REMARK    1  A    between atoms: N_2  and  C_4
REMARK    2  A    between atoms: C_7  and  C_10
REMARK    3  A    between atoms: N_15  and  C_16
REMARK    4  A    between atoms: C_20  and  N_24
REMARK    5  A    between atoms: C_25  and  C_27
REMARK    6  A    between atoms: C_27  and  C_28
REMARK    7  A    between atoms: C_28  and  C_31
REMARK    8  A    between atoms: C_31  and  C_32
REMARK                            x       y       z     vdW  Elec       q    Type
REMARK                         _______ _______ _______ _____ _____    ______ ____
ROOT
ATOM     16  C   UNL     1      -5.243 -10.535  14.450  0.00  0.00    +0.154 C 
ATOM     17  C   UNL     1      -4.562 -10.746  14.865  0.00  0.00    +0.166 C 
ATOM     18  O   UNL     1      -3.936 -10.777  14.328  0.00  0.00    -0.350 OA
ATOM     19  C   UNL     1      -4.230 -10.585  13.583  0.00  0.00    +0.166 C 
ATOM     20  C   UNL     1      -4.025 -10.484  12.790  0.00  0.00    +0.154 C 
ATOM     21  C   UNL     1      -4.706 -10.273  12.375  0.00  0.00    +0.166 C 
ATOM     22  O   UNL     1      -5.332 -10.243  12.911  0.00  0.00    -0.350 OA
ATOM     23  C   UNL     1      -5.037 -10.435  13.658  0.00  0.00    +0.166 C 
ENDROOT
BRANCH  16  15
ATOM     10  C   UNL     1      -6.930  -9.692  16.597  0.00  0.00    +0.086 A 
ATOM     11  C   UNL     1      -6.266  -9.460  17.028  0.00  0.00    +0.040 A 
ATOM     12  C   UNL     1      -5.512  -9.555  16.707  0.00  0.00    +0.103 A 
ATOM     13  N   UNL     1      -5.422  -9.882  15.954  0.00  0.00    -0.211 NA
ATOM     14  C   UNL     1      -6.087 -10.114  15.524  0.00  0.00    +0.237 A 
ATOM     15  N   UNL     1      -5.997 -10.440  14.771  0.00  0.00    -0.200 NA
ATOM     35  N   UNL     1      -6.840 -10.019  15.845  0.00  0.00    -0.212 NA
BRANCH  10   7
ATOM      4  C   UNL     1      -9.192  -9.407  17.562  0.00  0.00    +0.048 A 
ATOM      5  C   UNL     1      -8.749 -10.081  17.740  0.00  0.00    +0.015 A 
ATOM      6  C   UNL     1      -7.995 -10.175  17.419  0.00  0.00    +0.003 A 
ATOM      7  C   UNL     1      -7.684  -9.597  16.919  0.00  0.00    +0.018 A 
ATOM      8  C   UNL     1      -8.126  -8.925  16.740  0.00  0.00    +0.003 A 
ATOM      9  C   UNL     1      -8.880  -8.829  17.062  0.00  0.00    +0.015 A 
BRANCH   4   2
ATOM      1  C   UNL     1     -10.392  -8.644  17.697  0.00  0.00    +0.112 C 
ATOM      2  N   UNL     1      -9.945  -9.312  17.883  0.00  0.00    -0.304 N 
ATOM      3  C   UNL     1     -10.253  -9.885  18.391  0.00  0.00    +0.112 C 
ENDBRANCH   4   2
ENDBRANCH  10   7
ENDBRANCH  16  15
BRANCH  20  24
ATOM     24  N   UNL     1      -3.271 -10.579  12.468  0.00  0.00    -0.202 NA
ATOM     25  C   UNL     1      -3.045 -10.137  11.809  0.00  0.00    +0.241 C 
ATOM     26  O   UNL     1      -3.572  -9.600  11.471  0.00  0.00    -0.273 OA
BRANCH  25  27
ATOM     27  C   UNL     1      -2.291 -10.232  11.488  0.00  0.00    +0.087 C 
BRANCH  27  28
ATOM     28  C   UNL     1      -1.839  -9.570  11.293  0.00  0.00    +0.019 C 
ATOM     29  C   UNL     1      -1.380  -9.684  11.968  0.00  0.00    +0.001 C 
ATOM     30  C   UNL     1      -2.299  -9.455  10.616  0.00  0.00    +0.001 C 
BRANCH  28  31
ATOM     31  C   UNL     1      -1.388  -8.907  11.097  0.00  0.00    +0.115 C 
BRANCH  31  32
ATOM     32  C   UNL     1      -0.576  -8.903  11.246  0.00  0.00    +0.365 C 
ATOM     33  O   UNL     1      -0.062  -9.303  10.738  0.00  0.00    -0.246 OA
ATOM     34  O   UNL     1      -0.279  -8.499  11.901  0.00  0.00    -0.246 OA
ENDBRANCH  31  32
ENDBRANCH  28  31
ENDBRANCH  27  28
ENDBRANCH  25  27
ENDBRANCH  20  24
TORSDOF 8
ENDMDL
MODEL 4
REMARK VINA RESULT:      -6.0     14.914     16.341
REMARK  Name = 
REMARK  8 active torsions:
REMARK  status: ('A' for Active; 'I' for Inactive)
REMARK    1  A    between atoms: N_2  and  C_4
REMARK    2  A    between atoms: C_7  and  C_10
REMARK    3  A    between atoms: N_15  and  C_16
REMARK    4  A    between atoms: C_20  and  N_24
REMARK    5  A    between atoms: C_25  and  C_27
REMARK    6  A    between atoms: C_27  and  C_28
REMARK    7  A    between atoms: C_28  and  C_31
REMARK    8  A    between atoms: C_31  and  C_32
REMARK                            x       y       z     vdW  Elec       q    Type
REMARK                         _______ _______ _______ _____ _____    ______ ____
ROOT
ATOM     16  C   UNL     1      -6.345 -10.492  14.547  0.00  0.00    +0.154 C 
ATOM     17  C   UNL     1      -5.534 -10.524  14.695  0.00  0.00    +0.166 C 
ATOM     18  O   UNL     1      -5.141 -10.337  13.994  0.00  0.00    -0.350 OA
ATOM     19  C   UNL     1      -5.708 -10.190  13.414  0.00  0.00    +0.166 C 
ATOM     20  C   UNL     1      -5.817  -9.984  12.623  0.00  0.00    +0.154 C 
ATOM     21  C   UNL     1      -6.627  -9.952  12.475  0.00  0.00    +0.166 C 
ATOM     22  O   UNL     1      -7.020 -10.139  13.176  0.00  0.00    -0.350 OA
ATOM     23  C   UNL     1      -6.452 -10.286  13.756  0.00  0.00    +0.166 C 
ENDROOT
BRANCH  16  15
ATOM     10  C   UNL     1      -7.536 -10.016  17.102  0.00  0.00    +0.086 A 
ATOM     11  C   UNL     1      -6.935  -9.481  17.282  0.00  0.00    +0.040 A 
ATOM     12  C   UNL     1      -6.336  -9.333  16.734  0.00  0.00    +0.103 A 
ATOM     13  N   UNL     1      -6.339  -9.719  16.005  0.00  0.00    -0.211 NA
ATOM     14  C   UNL     1      -6.941 -10.254  15.825  0.00  0.00    +0.237 A 
ATOM     15  N   UNL     1      -6.944 -10.641  15.096  0.00  0.00    -0.200 NA
ATOM     35  N   UNL     1      -7.539 -10.403  16.373  0.00  0.00    -0.212 NA
BRANCH  10   7
ATOM      4  C   UNL     1      -9.331 -10.462  18.747  0.00  0.00    +0.048 A 
ATOM      5  C   UNL     1      -9.497 -10.038  18.059  0.00  0.00    +0.015 A 
ATOM      6  C   UNL     1      -8.900  -9.890  17.511  0.00  0.00    +0.003 A 
ATOM      7  C   UNL     1      -8.134 -10.165  17.650  0.00  0.00    +0.018 A 
ATOM      8  C   UNL     1      -7.967 -10.588  18.338  0.00  0.00    +0.003 A 
ATOM      9  C   UNL     1      -8.565 -10.737  18.886  0.00  0.00    +0.015 A 
BRANCH   4   2
ATOM      1  C   UNL     1      -9.736 -10.781  20.079  0.00  0.00    +0.112 C 
ATOM      2  N   UNL     1      -9.929 -10.610  19.295  0.00  0.00    -0.304 N 
ATOM      3  C   UNL     1     -10.719 -10.588  19.060  0.00  0.00    +0.112 C 
ENDBRANCH   4   2
ENDBRANCH  10   7
ENDBRANCH  16  15
BRANCH  20  24
ATOM     24  N   UNL     1      -5.218  -9.835  12.074  0.00  0.00    -0.202 NA
ATOM     25  C   UNL     1      -5.348  -9.307  11.454  0.00  0.00    +0.241 C 
ATOM     26  O   UNL     1      -6.077  -8.927  11.382  0.00  0.00    -0.273 OA
BRANCH  25  27
ATOM     27  C   UNL     1      -4.750  -9.159  10.906  0.00  0.00    +0.087 C 
BRANCH  27  28
ATOM     28  C   UNL     1      -4.941  -9.004  10.118  0.00  0.00    +0.019 C 
ATOM     29  C   UNL     1      -5.183  -9.787  10.023  0.00  0.00    +0.001 C 
ATOM     30  C   UNL     1      -4.699  -8.220  10.213  0.00  0.00    +0.001 C 
BRANCH  28  31
ATOM     31  C   UNL     1      -5.132  -8.849   9.331  0.00  0.00    +0.115 C 
BRANCH  31  32
ATOM     32  C   UNL     1      -4.691  -9.192   8.724  0.00  0.00    +0.365 C 
ATOM     33  O   UNL     1      -3.876  -9.065   8.683  0.00  0.00    -0.246 OA
ATOM     34  O   UNL     1      -5.064  -9.663   8.159  0.00  0.00    -0.246 OA
ENDBRANCH  31  32
ENDBRANCH  28  31
ENDBRANCH  27  28
ENDBRANCH  25  27
ENDBRANCH  20  24
TORSDOF 8
ENDMDL
