MODEL 1
REMARK VINA RESULT:     -10.0      0.000      0.000
REMARK  Name = 
REMARK  10 active torsions:
REMARK  status: ('A' for Active; 'I' for Inactive)
REMARK    1  A    between atoms: O_2  and  C_3
REMARK    2  A    between atoms: C_6  and  C_7
REMARK    3  A    between atoms: C_7  and  C_8
REMARK    4  A    between atoms: C_8  and  N_9
REMARK    5  A    between atoms: C_8  and  C_37
REMARK    6  A    between atoms: C_10  and  C_12
REMARK    7  A    between atoms: C_14  and  N_25
REMARK    8  A    between atoms: C_17  and  C_19
REMARK    9  A    between atoms: N_28  and  C_29
REMARK   10  A    between atoms: C_33  and  O_34
REMARK                            x       y       z     vdW  Elec       q    Type
REMARK                         _______ _______ _______ _____ _____    ______ ____
ROOT
ATOM     12  C   UNL     1      -2.583   0.424  24.967  0.00  0.00    +0.156 C 
ATOM     13  C   UNL     1      -1.765   0.528  24.962  0.00  0.00    +0.053 C 
ATOM     14  C   UNL     1      -1.415  -0.214  24.875  0.00  0.00    +0.119 C 
ATOM     15  C   UNL     1      -2.016  -0.776  24.827  0.00  0.00    +0.116 C 
ATOM     16  N   UNL     1      -2.738  -0.383  24.884  0.00  0.00    -0.266 N 
ATOM     17  C   UNL     1      -3.485  -0.733  24.861  0.00  0.00    +0.265 C 
ATOM     18  O   UNL     1      -4.162  -0.266  24.925  0.00  0.00    -0.268 OA
ENDROOT
BRANCH  17  19
ATOM     19  C   UNL     1      -3.554  -1.550  24.775  0.00  0.00    +0.114 A 
ATOM     20  C   UNL     1      -3.271  -2.119  25.300  0.00  0.00    +0.023 A 
ATOM     21  C   UNL     1      -3.461  -2.864  24.997  0.00  0.00    +0.020 A 
ATOM     22  C   UNL     1      -3.861  -2.754  24.284  0.00  0.00    +0.076 A 
ATOM     23  N   UNL     1      -3.918  -1.942  24.146  0.00  0.00    -0.320 N 
ATOM     24  C   UNL     1      -4.278  -1.585  23.495  0.00  0.00    +0.131 C 
ENDBRANCH  17  19
BRANCH  14  25
ATOM     25  N   UNL     1      -0.604  -0.366  24.842  0.00  0.00    -0.187 NA
ATOM     26  C   UNL     1      -0.187  -0.226  24.144  0.00  0.00    +0.343 C 
ATOM     27  O   UNL     1      -0.579   0.066  23.481  0.00  0.00    -0.249 OA
ATOM     28  N   UNL     1       0.624  -0.379  24.111  0.00  0.00    -0.161 NA
BRANCH  28  29
ATOM     29  C   UNL     1       1.042  -0.239  23.414  0.00  0.00    +0.078 A 
ATOM     30  C   UNL     1       0.794  -0.587  22.708  0.00  0.00    +0.017 A 
ATOM     31  C   UNL     1       1.212  -0.448  22.011  0.00  0.00    +0.004 A 
ATOM     32  C   UNL     1       1.877   0.039  22.019  0.00  0.00    +0.037 A 
ATOM     33  C   UNL     1       2.125   0.388  22.725  0.00  0.00    +0.140 A 
ATOM     36  C   UNL     1       1.707   0.248  23.422  0.00  0.00    +0.054 A 
BRANCH  33  34
ATOM     34  O   UNL     1       2.790   0.875  22.733  0.00  0.00    -0.471 OA
ATOM     35  C   UNL     1       3.543   0.548  22.645  0.00  0.00    +0.252 C 
ENDBRANCH  33  34
ENDBRANCH  28  29
ENDBRANCH  14  25
BRANCH  12  10
ATOM      9  N   UNL     1      -3.055   1.731  24.633  0.00  0.00    -0.196 NA
ATOM     10  C   UNL     1      -3.148   1.020  25.043  0.00  0.00    +0.260 C 
ATOM     11  O   UNL     1      -3.805   0.908  25.528  0.00  0.00    -0.272 OA
BRANCH   9   8
ATOM      8  C   UNL     1      -3.619   2.328  24.709  0.00  0.00    +0.179 C 
BRANCH   8  37
ATOM     37  C   UNL     1      -4.228   2.392  24.156  0.00  0.00    +0.281 C 
ATOM     38  N   UNL     1      -5.008   2.480  24.409  0.00  0.00    -0.086 NA
ATOM     39  O   UNL     1      -4.057   2.366  23.349  0.00  0.00    -0.270 OA
ENDBRANCH   8  37
BRANCH   8   7
ATOM      7  C   UNL     1      -3.574   2.861  25.337  0.00  0.00    +0.057 C 
BRANCH   7   6
ATOM      3  C   UNL     1      -1.922   4.702  25.281  0.00  0.00    +0.139 A 
ATOM      4  C   UNL     1      -2.443   4.597  24.651  0.00  0.00    +0.037 A 
ATOM      5  C   UNL     1      -2.994   3.984  24.670  0.00  0.00    -0.001 A 
ATOM      6  C   UNL     1      -3.023   3.474  25.318  0.00  0.00    -0.020 A 
ATOM     40  C   UNL     1      -2.501   3.580  25.948  0.00  0.00    -0.001 A 
ATOM     41  C   UNL     1      -1.950   4.194  25.930  0.00  0.00    +0.037 A 
BRANCH   3   2
ATOM      1  C   UNL     1      -0.689   5.245  24.802  0.00  0.00    +0.252 C 
ATOM      2  O   UNL     1      -1.371   5.316  25.262  0.00  0.00    -0.471 OA
ENDBRANCH   3   2
ENDBRANCH   7   6
ENDBRANCH   8   7
ENDBRANCH   9   8
ENDBRANCH  12  10
TORSDOF 10
ENDMDL
MODEL 2
REMARK VINA RESULT:      -9.6      1.205      4.306
REMARK  Name = 
REMARK  10 active torsions:
REMARK  status: ('A' for Active; 'I' for Inactive)
REMARK    1  A    between atoms: O_2  and  C_3
REMARK    2  A    between atoms: C_6  and  C_7
REMARK    3  A    between atoms: C_7  and  C_8
REMARK    4  A    between atoms: C_8  and  N_9
REMARK    5  A    between atoms: C_8  and  C_37
REMARK    6  A    between atoms: C_10  and  C_12
REMARK    7  A    between atoms: C_14  and  N_25
REMARK    8  A    between atoms: C_17  and  C_19
REMARK    9  A    between atoms: N_28  and  C_29
REMARK   10  A    between atoms: C_33  and  O_34
REMARK                            x       y       z     vdW  Elec       q    Type
REMARK                         _______ _______ _______ _____ _____    ______ ____
ROOT
ATOM     12  C   UNL     1      -2.165   1.749  24.499  0.00  0.00    +0.156 C 
ATOM     13  C   UNL     1      -1.533   1.220  24.516  0.00  0.00    +0.053 C 
ATOM     14  C   UNL     1      -0.848   1.647  24.684  0.00  0.00    +0.119 C 
ATOM     15  C   UNL     1      -1.057   2.440  24.771  0.00  0.00    +0.116 C 
ATOM     16  N   UNL     1      -1.871   2.504  24.657  0.00  0.00    -0.266 N 
ATOM     17  C   UNL     1      -2.312   3.199  24.695  0.00  0.00    +0.265 C 
ATOM     18  O   UNL     1      -3.127   3.178  24.567  0.00  0.00    -0.268 OA
ENDROOT
BRANCH  17  19
ATOM     19  C   UNL     1      -1.940   3.916  24.859  0.00  0.00    +0.114 A 
ATOM     20  C   UNL     1      -1.307   4.241  24.442  0.00  0.00    +0.023 A 
ATOM     21  C   UNL     1      -1.110   4.960  24.795  0.00  0.00    +0.020 A 
ATOM     22  C   UNL     1      -1.622   5.081  25.431  0.00  0.00    +0.076 A 
ATOM     23  N   UNL     1      -2.135   4.435  25.470  0.00  0.00    -0.320 N 
ATOM     24  C   UNL     1      -2.737   4.328  26.025  0.00  0.00    +0.131 C 
ENDBRANCH  17  19
BRANCH  14  25
ATOM     25  N   UNL     1      -0.087   1.335  24.753  0.00  0.00    -0.187 NA
ATOM     26  C   UNL     1       0.315   1.076  24.080  0.00  0.00    +0.343 C 
ATOM     27  O   UNL     1      -0.044   1.129  23.339  0.00  0.00    -0.249 OA
ATOM     28  N   UNL     1       1.076   0.764  24.148  0.00  0.00    -0.161 NA
BRANCH  28  29
ATOM     29  C   UNL     1       1.478   0.506  23.477  0.00  0.00    +0.078 A 
ATOM     30  C   UNL     1       1.147  -0.080  22.998  0.00  0.00    +0.017 A 
ATOM     31  C   UNL     1       1.549  -0.339  22.326  0.00  0.00    +0.004 A 
ATOM     32  C   UNL     1       2.281  -0.013  22.132  0.00  0.00    +0.037 A 
ATOM     33  C   UNL     1       2.612   0.573  22.611  0.00  0.00    +0.140 A 
ATOM     36  C   UNL     1       2.210   0.832  23.282  0.00  0.00    +0.054 A 
BRANCH  33  34
ATOM     34  O   UNL     1       3.344   0.899  22.416  0.00  0.00    -0.471 OA
ATOM     35  C   UNL     1       4.039   0.536  22.673  0.00  0.00    +0.252 C 
ENDBRANCH  33  34
ENDBRANCH  28  29
ENDBRANCH  14  25
BRANCH  12  10
ATOM      9  N   UNL     1      -3.342   1.005  24.825  0.00  0.00    -0.196 NA
ATOM     10  C   UNL     1      -2.954   1.559  24.350  0.00  0.00    +0.260 C 
ATOM     11  O   UNL     1      -3.356   1.920  23.727  0.00  0.00    -0.272 OA
BRANCH   9   8
ATOM      8  C   UNL     1      -4.130   0.814  24.677  0.00  0.00    +0.179 C 
BRANCH   8  37
ATOM     37  C   UNL     1      -4.733   1.207  25.081  0.00  0.00    +0.281 C 
ATOM     38  N   UNL     1      -5.370   1.526  24.666  0.00  0.00    -0.086 NA
ATOM     39  O   UNL     1      -4.697   1.281  25.902  0.00  0.00    -0.270 OA
ENDBRANCH   8  37
BRANCH   8   7
ATOM      7  C   UNL     1      -4.316   0.232  24.124  0.00  0.00    +0.057 C 
BRANCH   7   6
ATOM      3  C   UNL     1      -3.848  -2.146  24.629  0.00  0.00    +0.139 A 
ATOM      4  C   UNL     1      -3.819  -1.583  25.231  0.00  0.00    +0.037 A 
ATOM      5  C   UNL     1      -3.975  -0.791  25.063  0.00  0.00    -0.001 A 
ATOM      6  C   UNL     1      -4.160  -0.561  24.292  0.00  0.00    -0.020 A 
ATOM     40  C   UNL     1      -4.189  -1.125  23.690  0.00  0.00    -0.001 A 
ATOM     41  C   UNL     1      -4.033  -1.917  23.858  0.00  0.00    +0.037 A 
BRANCH   3   2
ATOM      1  C   UNL     1      -2.952  -3.259  24.623  0.00  0.00    +0.252 C 
ATOM      2  O   UNL     1      -3.692  -2.938  24.797  0.00  0.00    -0.471 OA
ENDBRANCH   3   2
ENDBRANCH   7   6
ENDBRANCH   8   7
ENDBRANCH   9   8
ENDBRANCH  12  10
TORSDOF 10
ENDMDL
MODEL 3
REMARK VINA RESULT:      -9.4      1.532      2.637
REMARK  Name = 
REMARK  10 active torsions:
REMARK  status: ('A' for Active; 'I' for Inactive)
REMARK    1  A    between atoms: O_2  and  C_3
REMARK    2  A    between atoms: C_6  and  C_7
REMARK    3  A    between atoms: C_7  and  C_8
REMARK    4  A    between atoms: C_8  and  N_9
REMARK    5  A    between atoms: C_8  and  C_37
REMARK    6  A    between atoms: C_10  and  C_12
REMARK    7  A    between atoms: C_14  and  N_25
REMARK    8  A    between atoms: C_17  and  C_19
REMARK    9  A    between atoms: N_28  and  C_29
REMARK   10  A    between atoms: C_33  and  O_34
REMARK                            x       y       z     vdW  Elec       q    Type
REMARK                         _______ _______ _______ _____ _____    ______ ____
ROOT
ATOM     12  C   UNL     1      -0.348   0.945  24.489  0.00  0.00    +0.156 C 
ATOM     13  C   UNL     1       0.252   1.028  23.929  0.00  0.00    +0.053 C 
ATOM     14  C   UNL     1       0.378   0.293  23.579  0.00  0.00    +0.119 C 
ATOM     15  C   UNL     1      -0.144  -0.246  23.922  0.00  0.00    +0.116 C 
ATOM     16  N   UNL     1      -0.593   0.156  24.484  0.00  0.00    -0.266 N 
ATOM     17  C   UNL     1      -1.182  -0.171  24.959  0.00  0.00    +0.265 C 
ATOM     18  O   UNL     1      -1.587   0.302  25.500  0.00  0.00    -0.268 OA
ENDROOT
BRANCH  17  19
ATOM     19  C   UNL     1      -1.368  -0.972  24.892  0.00  0.00    +0.114 A 
ATOM     20  C   UNL     1      -0.852  -1.602  25.025  0.00  0.00    +0.023 A 
ATOM     21  C   UNL     1      -1.267  -2.303  24.896  0.00  0.00    +0.020 A 
ATOM     22  C   UNL     1      -2.040  -2.107  24.683  0.00  0.00    +0.076 A 
ATOM     23  N   UNL     1      -2.102  -1.283  24.681  0.00  0.00    -0.320 N 
ATOM     24  C   UNL     1      -2.780  -0.849  24.498  0.00  0.00    +0.131 C 
ENDBRANCH  17  19
BRANCH  14  25
ATOM     25  N   UNL     1       0.930   0.125  22.988  0.00  0.00    -0.187 NA
ATOM     26  C   UNL     1       1.732   0.267  23.121  0.00  0.00    +0.343 C 
ATOM     27  O   UNL     1       1.982   0.576  23.843  0.00  0.00    -0.249 OA
ATOM     28  N   UNL     1       2.284   0.099  22.531  0.00  0.00    -0.161 NA
BRANCH  28  29
ATOM     29  C   UNL     1       3.085   0.240  22.663  0.00  0.00    +0.078 A 
ATOM     30  C   UNL     1       3.424   0.953  22.422  0.00  0.00    +0.017 A 
ATOM     31  C   UNL     1       4.225   1.095  22.554  0.00  0.00    +0.004 A 
ATOM     32  C   UNL     1       4.689   0.524  22.928  0.00  0.00    +0.037 A 
ATOM     33  C   UNL     1       4.350  -0.189  23.169  0.00  0.00    +0.140 A 
ATOM     36  C   UNL     1       3.549  -0.330  23.036  0.00  0.00    +0.054 A 
BRANCH  33  34
ATOM     34  O   UNL     1       4.814  -0.760  23.542  0.00  0.00    -0.471 OA
ATOM     35  C   UNL     1       5.438  -0.530  24.031  0.00  0.00    +0.252 C 
ENDBRANCH  33  34
ENDBRANCH  28  29
ENDBRANCH  14  25
BRANCH  12  10
ATOM      9  N   UNL     1      -1.059   2.176  24.632  0.00  0.00    -0.196 NA
ATOM     10  C   UNL     1      -0.650   1.543  24.969  0.00  0.00    +0.260 C 
ATOM     11  O   UNL     1      -0.544   1.510  25.787  0.00  0.00    -0.272 OA
BRANCH   9   8
ATOM      8  C   UNL     1      -1.362   2.775  25.112  0.00  0.00    +0.179 C 
BRANCH   8  37
ATOM     37  C   UNL     1      -1.001   3.517  25.122  0.00  0.00    +0.281 C 
ATOM     38  N   UNL     1      -0.748   3.844  25.835  0.00  0.00    -0.086 NA
ATOM     39  O   UNL     1      -0.894   3.932  24.417  0.00  0.00    -0.270 OA
ENDBRANCH   8  37
BRANCH   8   7
ATOM      7  C   UNL     1      -2.024   2.631  25.582  0.00  0.00    +0.057 C 
BRANCH   7   6
ATOM      3  C   UNL     1      -4.219   3.585  24.952  0.00  0.00    +0.139 A 
ATOM      4  C   UNL     1      -3.847   3.043  24.455  0.00  0.00    +0.037 A 
ATOM      5  C   UNL     1      -3.115   2.725  24.665  0.00  0.00    -0.001 A 
ATOM      6  C   UNL     1      -2.755   2.949  25.372  0.00  0.00    -0.020 A 
ATOM     40  C   UNL     1      -3.128   3.493  25.870  0.00  0.00    -0.001 A 
ATOM     41  C   UNL     1      -3.859   3.811  25.660  0.00  0.00    +0.037 A 
BRANCH   3   2
ATOM      1  C   UNL     1      -5.584   3.866  25.271  0.00  0.00    +0.252 C 
ATOM      2  O   UNL     1      -4.950   3.903  24.742  0.00  0.00    -0.471 OA
ENDBRANCH   3   2
ENDBRANCH   7   6
ENDBRANCH   8   7
ENDBRANCH   9   8
ENDBRANCH  12  10
TORSDOF 10
ENDMDL
MODEL 4
REMARK VINA RESULT:      -9.1      1.658      4.739
REMARK  Name = 
REMARK  10 active torsions:
REMARK  status: ('A' for Active; 'I' for Inactive)
REMARK    1  A    between atoms: O_2  and  C_3
REMARK    2  A    between atoms: C_6  and  C_7
REMARK    3  A    between atoms: C_7  and  C_8
REMARK    4  A    between atoms: C_8  and  N_9
REMARK    5  A    between atoms: C_8  and  C_37
REMARK    6  A    between atoms: C_10  and  C_12
REMARK    7  A    between atoms: C_14  and  N_25
REMARK    8  A    between atoms: C_17  and  C_19
REMARK    9  A    between atoms: N_28  and  C_29
REMARK   10  A    between atoms: C_33  and  O_34
REMARK                            x       y       z     vdW  Elec       q    Type
REMARK                         _______ _______ _______ _____ _____    ______ ____
ROOT
ATOM     12  C   UNL     1      -2.097   0.095  24.450  0.00  0.00    +0.156 C 
ATOM     13  C   UNL     1      -2.687   0.649  24.293  0.00  0.00    +0.053 C 
ATOM     14  C   UNL     1      -3.410   0.252  24.274  0.00  0.00    +0.119 C 
ATOM     15  C   UNL     1      -3.266  -0.547  24.420  0.00  0.00    +0.116 C 
ATOM     16  N   UNL     1      -2.455  -0.644  24.529  0.00  0.00    -0.266 N 
ATOM     17  C   UNL     1      -2.069  -1.355  24.689  0.00  0.00    +0.265 C 
ATOM     18  O   UNL     1      -1.249  -1.368  24.785  0.00  0.00    -0.268 OA
ENDROOT
BRANCH  17  19
ATOM     19  C   UNL     1      -2.502  -2.054  24.753  0.00  0.00    +0.114 A 
ATOM     20  C   UNL     1      -3.145  -2.182  25.252  0.00  0.00    +0.023 A 
ATOM     21  C   UNL     1      -3.409  -2.956  25.136  0.00  0.00    +0.020 A 
ATOM     22  C   UNL     1      -2.928  -3.306  24.565  0.00  0.00    +0.076 A 
ATOM     23  N   UNL     1      -2.367  -2.749  24.328  0.00  0.00    -0.320 N 
ATOM     24  C   UNL     1      -1.775  -2.866  23.765  0.00  0.00    +0.131 C 
ENDBRANCH  17  19
BRANCH  14  25
ATOM     25  N   UNL     1      -4.148   0.594  24.134  0.00  0.00    -0.187 NA
ATOM     26  C   UNL     1      -4.460   1.135  24.674  0.00  0.00    +0.343 C 
ATOM     27  O   UNL     1      -4.036   1.333  25.352  0.00  0.00    -0.249 OA
ATOM     28  N   UNL     1      -5.198   1.477  24.533  0.00  0.00    -0.161 NA
BRANCH  28  29
ATOM     29  C   UNL     1      -5.511   2.017  25.072  0.00  0.00    +0.078 A 
ATOM     30  C   UNL     1      -6.041   1.763  25.652  0.00  0.00    +0.017 A 
ATOM     31  C   UNL     1      -6.354   2.303  26.190  0.00  0.00    +0.004 A 
ATOM     32  C   UNL     1      -6.138   3.098  26.150  0.00  0.00    +0.037 A 
ATOM     33  C   UNL     1      -5.609   3.353  25.570  0.00  0.00    +0.140 A 
ATOM     36  C   UNL     1      -5.296   2.812  25.032  0.00  0.00    +0.054 A 
BRANCH  33  34
ATOM     34  O   UNL     1      -5.393   4.148  25.530  0.00  0.00    -0.471 OA
ATOM     35  C   UNL     1      -5.974   4.734  25.539  0.00  0.00    +0.252 C 
ENDBRANCH  33  34
ENDBRANCH  28  29
ENDBRANCH  14  25
BRANCH  12  10
ATOM      9  N   UNL     1      -0.958   0.891  24.111  0.00  0.00    -0.196 NA
ATOM     10  C   UNL     1      -1.290   0.253  24.518  0.00  0.00    +0.260 C 
ATOM     11  O   UNL     1      -0.813  -0.227  24.990  0.00  0.00    -0.272 OA
BRANCH   9   8
ATOM      8  C   UNL     1      -0.151   1.048  24.179  0.00  0.00    +0.179 C 
BRANCH   8  37
ATOM     37  C   UNL     1       0.377   0.734  23.628  0.00  0.00    +0.281 C 
ATOM     38  N   UNL     1       1.126   0.486  23.869  0.00  0.00    -0.086 NA
ATOM     39  O   UNL     1       0.156   0.667  22.836  0.00  0.00    -0.270 OA
ENDBRANCH   8  37
BRANCH   8   7
ATOM      7  C   UNL     1       0.127   1.519  24.795  0.00  0.00    +0.057 C 
BRANCH   7   6
ATOM      3  C   UNL     1      -0.560   3.892  24.945  0.00  0.00    +0.139 A 
ATOM      4  C   UNL     1      -0.260   3.594  24.238  0.00  0.00    +0.037 A 
ATOM      5  C   UNL     1      -0.031   2.803  24.188  0.00  0.00    -0.001 A 
ATOM      6  C   UNL     1      -0.102   2.310  24.845  0.00  0.00    -0.020 A 
ATOM     40  C   UNL     1      -0.403   2.609  25.554  0.00  0.00    -0.001 A 
ATOM     41  C   UNL     1      -0.632   3.400  25.604  0.00  0.00    +0.037 A 
BRANCH   3   2
ATOM      1  C   UNL     1      -1.558   4.877  25.228  0.00  0.00    +0.252 C 
ATOM      2  O   UNL     1      -0.789   4.683  24.995  0.00  0.00    -0.471 OA
ENDBRANCH   3   2
ENDBRANCH   7   6
ENDBRANCH   8   7
ENDBRANCH   9   8
ENDBRANCH  12  10
TORSDOF 10
ENDMDL
MODEL 5
REMARK VINA RESULT:      -8.8      1.574      5.212
REMARK  Name = 
REMARK  10 active torsions:
REMARK  status: ('A' for Active; 'I' for Inactive)
REMARK    1  A    between atoms: O_2  and  C_3
REMARK    2  A    between atoms: C_6  and  C_7
REMARK    3  A    between atoms: C_7  and  C_8
REMARK    4  A    between atoms: C_8  and  N_9
REMARK    5  A    between atoms: C_8  and  C_37
REMARK    6  A    between atoms: C_10  and  C_12
REMARK    7  A    between atoms: C_14  and  N_25
REMARK    8  A    between atoms: C_17  and  C_19
REMARK    9  A    between atoms: N_28  and  C_29
REMARK   10  A    between atoms: C_33  and  O_34
REMARK                            x       y       z     vdW  Elec       q    Type
REMARK                         _______ _______ _______ _____ _____    ______ ____
ROOT
ATOM     12  C   UNL     1      -0.223   0.218  24.193  0.00  0.00    +0.156 C 
ATOM     13  C   UNL     1      -0.371   0.870  24.676  0.00  0.00    +0.053 C 
ATOM     14  C   UNL     1       0.254   1.400  24.586  0.00  0.00    +0.119 C 
ATOM     15  C   UNL     1       0.789   1.075  24.048  0.00  0.00    +0.116 C 
ATOM     16  N   UNL     1       0.494   0.345  23.805  0.00  0.00    -0.266 N 
ATOM     17  C   UNL     1       0.853  -0.169  23.269  0.00  0.00    +0.265 C 
ATOM     18  O   UNL     1       0.491  -0.885  23.078  0.00  0.00    -0.268 OA
ENDROOT
BRANCH  17  19
ATOM     19  C   UNL     1       1.574   0.034  22.924  0.00  0.00    +0.114 A 
ATOM     20  C   UNL     1       2.218   0.374  23.310  0.00  0.00    +0.023 A 
ATOM     21  C   UNL     1       2.820   0.482  22.756  0.00  0.00    +0.020 A 
ATOM     22  C   UNL     1       2.548   0.208  22.027  0.00  0.00    +0.076 A 
ATOM     23  N   UNL     1       1.777  -0.069  22.131  0.00  0.00    -0.320 N 
ATOM     24  C   UNL     1       1.295  -0.393  21.544  0.00  0.00    +0.131 C 
ENDBRANCH  17  19
BRANCH  14  25
ATOM     25  N   UNL     1       0.332   2.127  24.968  0.00  0.00    -0.187 NA
ATOM     26  C   UNL     1      -0.289   2.672  24.948  0.00  0.00    +0.343 C 
ATOM     27  O   UNL     1      -0.985   2.489  24.546  0.00  0.00    -0.249 OA
ATOM     28  N   UNL     1      -0.211   3.399  25.329  0.00  0.00    -0.161 NA
BRANCH  28  29
ATOM     29  C   UNL     1      -0.830   3.944  25.309  0.00  0.00    +0.078 A 
ATOM     30  C   UNL     1      -0.770   4.620  24.840  0.00  0.00    +0.017 A 
ATOM     31  C   UNL     1      -1.389   5.164  24.820  0.00  0.00    +0.004 A 
ATOM     32  C   UNL     1      -2.069   5.033  25.269  0.00  0.00    +0.037 A 
ATOM     33  C   UNL     1      -2.129   4.356  25.737  0.00  0.00    +0.140 A 
ATOM     36  C   UNL     1      -1.510   3.812  25.757  0.00  0.00    +0.054 A 
BRANCH  33  34
ATOM     34  O   UNL     1      -2.809   4.225  26.186  0.00  0.00    -0.471 OA
ATOM     35  C   UNL     1      -3.551   4.235  25.824  0.00  0.00    +0.252 C 
ENDBRANCH  33  34
ENDBRANCH  28  29
ENDBRANCH  14  25
BRANCH  12  10
ATOM      9  N   UNL     1      -1.329  -0.570  24.641  0.00  0.00    -0.196 NA
ATOM     10  C   UNL     1      -0.708  -0.446  24.112  0.00  0.00    +0.260 C 
ATOM     11  O   UNL     1      -0.571  -0.984  23.503  0.00  0.00    -0.272 OA
BRANCH   9   8
ATOM      8  C   UNL     1      -1.813  -1.233  24.560  0.00  0.00    +0.179 C 
BRANCH   8  37
ATOM     37  C   UNL     1      -1.583  -1.954  24.890  0.00  0.00    +0.281 C 
ATOM     38  N   UNL     1      -1.722  -2.657  24.482  0.00  0.00    -0.086 NA
ATOM     39  O   UNL     1      -1.214  -1.971  25.627  0.00  0.00    -0.270 OA
ENDBRANCH   8  37
BRANCH   8   7
ATOM      7  C   UNL     1      -2.526  -1.176  24.150  0.00  0.00    +0.057 C 
BRANCH   7   6
ATOM      3  C   UNL     1      -4.373   0.193  25.068  0.00  0.00    +0.139 A 
ATOM      4  C   UNL     1      -4.055  -0.423  25.515  0.00  0.00    +0.037 A 
ATOM      5  C   UNL     1      -3.440  -0.879  25.209  0.00  0.00    -0.001 A 
ATOM      6  C   UNL     1      -3.142  -0.719  24.456  0.00  0.00    -0.020 A 
ATOM     40  C   UNL     1      -3.460  -0.102  24.010  0.00  0.00    -0.001 A 
ATOM     41  C   UNL     1      -4.075   0.354  24.316  0.00  0.00    +0.037 A 
BRANCH   3   2
ATOM      1  C   UNL     1      -5.182   1.371  25.023  0.00  0.00    +0.252 C 
ATOM      2  O   UNL     1      -4.988   0.650  25.374  0.00  0.00    -0.471 OA
ENDBRANCH   3   2
ENDBRANCH   7   6
ENDBRANCH   8   7
ENDBRANCH   9   8
ENDBRANCH  12  10
TORSDOF 10
ENDMDL
MODEL 6
REMARK VINA RESULT:      -8.5      1.860      4.321
REMARK  Name = 
REMARK  10 active torsions:
REMARK  status: ('A' for Active; 'I' for Inactive)
REMARK    1  A    between atoms: O_2  and  C_3
REMARK    2  A    between atoms: C_6  and  C_7
REMARK    3  A    between atoms: C_7  and  C_8
REMARK    4  A    between atoms: C_8  and  N_9
REMARK    5  A    between atoms: C_8  and  C_37
REMARK    6  A    between atoms: C_10  and  C_12
REMARK    7  A    between atoms: C_14  and  N_25
REMARK    8  A    between atoms: C_17  and  C_19
REMARK    9  A    between atoms: N_28  and  C_29
REMARK   10  A    between atoms: C_33  and  O_34
REMARK                            x       y       z     vdW  Elec       q    Type
REMARK                         _______ _______ _______ _____ _____    ______ ____
ROOT
ATOM     12  C   UNL     1      -3.322   2.410  25.004  0.00  0.00    +0.156 C 
ATOM     13  C   UNL     1      -3.152   1.772  24.510  0.00  0.00    +0.053 C 
ATOM     14  C   UNL     1      -3.851   1.354  24.383  0.00  0.00    +0.119 C 
ATOM     15  C   UNL     1      -4.454   1.733  24.799  0.00  0.00    +0.116 C 
ATOM     16  N   UNL     1      -4.128   2.386  25.183  0.00  0.00    -0.266 N 
ATOM     17  C   UNL     1      -4.534   2.921  25.661  0.00  0.00    +0.265 C 
ATOM     18  O   UNL     1      -4.132   3.551  26.010  0.00  0.00    -0.268 OA
ENDROOT
BRANCH  17  19
ATOM     19  C   UNL     1      -5.343   2.826  25.790  0.00  0.00    +0.114 A 
ATOM     20  C   UNL     1      -5.712   2.145  26.074  0.00  0.00    +0.023 A 
ATOM     21  C   UNL     1      -6.523   2.294  26.117  0.00  0.00    +0.020 A 
ATOM     22  C   UNL     1      -6.655   3.066  25.860  0.00  0.00    +0.076 A 
ATOM     23  N   UNL     1      -5.925   3.396  25.658  0.00  0.00    -0.320 N 
ATOM     24  C   UNL     1      -5.800   4.160  25.373  0.00  0.00    +0.131 C 
ENDBRANCH  17  19
BRANCH  14  25
ATOM     25  N   UNL     1      -3.934   0.675  23.921  0.00  0.00    -0.187 NA
ATOM     26  C   UNL     1      -3.684  -0.056  24.214  0.00  0.00    +0.343 C 
ATOM     27  O   UNL     1      -3.352  -0.107  24.967  0.00  0.00    -0.249 OA
ATOM     28  N   UNL     1      -3.766  -0.735  23.752  0.00  0.00    -0.161 NA
BRANCH  28  29
ATOM     29  C   UNL     1      -3.517  -1.465  24.044  0.00  0.00    +0.078 A 
ATOM     30  C   UNL     1      -4.067  -1.993  24.359  0.00  0.00    +0.017 A 
ATOM     31  C   UNL     1      -3.818  -2.723  24.651  0.00  0.00    +0.004 A 
ATOM     32  C   UNL     1      -3.019  -2.925  24.628  0.00  0.00    +0.037 A 
ATOM     33  C   UNL     1      -2.468  -2.397  24.313  0.00  0.00    +0.140 A 
ATOM     36  C   UNL     1      -2.718  -1.667  24.021  0.00  0.00    +0.054 A 
BRANCH  33  34
ATOM     34  O   UNL     1      -1.669  -2.600  24.290  0.00  0.00    -0.471 OA
ATOM     35  C   UNL     1      -1.203  -2.518  24.966  0.00  0.00    +0.252 C 
ENDBRANCH  33  34
ENDBRANCH  28  29
ENDBRANCH  14  25
BRANCH  12  10
ATOM      9  N   UNL     1      -2.180   3.238  24.774  0.00  0.00    -0.196 NA
ATOM     10  C   UNL     1      -2.782   2.973  25.273  0.00  0.00    +0.260 C 
ATOM     11  O   UNL     1      -2.844   3.271  26.039  0.00  0.00    -0.272 OA
BRANCH   9   8
ATOM      8  C   UNL     1      -1.640   3.801  25.043  0.00  0.00    +0.179 C 
BRANCH   8  37
ATOM     37  C   UNL     1      -1.775   4.603  24.899  0.00  0.00    +0.281 C 
ATOM     38  N   UNL     1      -1.592   5.162  25.477  0.00  0.00    -0.086 NA
ATOM     39  O   UNL     1      -2.093   4.844  24.177  0.00  0.00    -0.270 OA
ENDBRANCH   8  37
BRANCH   8   7
ATOM      7  C   UNL     1      -0.967   3.563  25.455  0.00  0.00    +0.057 C 
BRANCH   7   6
ATOM      3  C   UNL     1       0.677   2.061  24.374  0.00  0.00    +0.139 A 
ATOM      4  C   UNL     1       0.396   1.889  25.130  0.00  0.00    +0.037 A 
ATOM      5  C   UNL     1      -0.152   2.389  25.490  0.00  0.00    -0.001 A 
ATOM      6  C   UNL     1      -0.419   3.062  25.094  0.00  0.00    -0.020 A 
ATOM     40  C   UNL     1      -0.137   3.234  24.337  0.00  0.00    -0.001 A 
ATOM     41  C   UNL     1       0.410   2.734  23.977  0.00  0.00    +0.037 A 
BRANCH   3   2
ATOM      1  C   UNL     1       0.972   0.858  23.659  0.00  0.00    +0.252 C 
ATOM      2  O   UNL     1       1.224   1.560  24.014  0.00  0.00    -0.471 OA
ENDBRANCH   3   2
ENDBRANCH   7   6
ENDBRANCH   8   7
ENDBRANCH   9   8
ENDBRANCH  12  10
TORSDOF 10
ENDMDL
MODEL 7
REMARK VINA RESULT:      -8.4      1.767      6.300
REMARK  Name = 
REMARK  10 active torsions:
REMARK  status: ('A' for Active; 'I' for Inactive)
REMARK    1  A    between atoms: O_2  and  C_3
REMARK    2  A    between atoms: C_6  and  C_7
REMARK    3  A    between atoms: C_7  and  C_8
REMARK    4  A    between atoms: C_8  and  N_9
REMARK    5  A    between atoms: C_8  and  C_37
REMARK    6  A    between atoms: C_10  and  C_12
REMARK    7  A    between atoms: C_14  and  N_25
REMARK    8  A    between atoms: C_17  and  C_19
REMARK    9  A    between atoms: N_28  and  C_29
REMARK   10  A    between atoms: C_33  and  O_34
REMARK                            x       y       z     vdW  Elec       q    Type
REMARK                         _______ _______ _______ _____ _____    ______ ____
ROOT
ATOM     12  C   UNL     1      -1.181   1.573  23.855  0.00  0.00    +0.156 C 
ATOM     13  C   UNL     1      -1.953   1.435  23.601  0.00  0.00    +0.053 C 
ATOM     14  C   UNL     1      -2.383   2.131  23.703  0.00  0.00    +0.119 C 
ATOM     15  C   UNL     1      -1.877   2.699  24.021  0.00  0.00    +0.116 C 
ATOM     16  N   UNL     1      -1.134   2.355  24.115  0.00  0.00    -0.266 N 
ATOM     17  C   UNL     1      -0.462   2.726  24.416  0.00  0.00    +0.265 C 
ATOM     18  O   UNL     1       0.248   2.309  24.478  0.00  0.00    -0.268 OA
ENDROOT
BRANCH  17  19
ATOM     19  C   UNL     1      -0.499   3.515  24.654  0.00  0.00    +0.114 A 
ATOM     20  C   UNL     1      -0.546   4.170  24.157  0.00  0.00    +0.023 A 
ATOM     21  C   UNL     1      -0.571   4.848  24.628  0.00  0.00    +0.020 A 
ATOM     22  C   UNL     1      -0.540   4.610  25.417  0.00  0.00    +0.076 A 
ATOM     23  N   UNL     1      -0.495   3.786  25.434  0.00  0.00    -0.320 N 
ATOM     24  C   UNL     1      -0.453   3.316  26.111  0.00  0.00    +0.131 C 
ENDBRANCH  17  19
BRANCH  14  25
ATOM     25  N   UNL     1      -3.181   2.239  23.520  0.00  0.00    -0.187 NA
ATOM     26  C   UNL     1      -3.747   2.226  24.120  0.00  0.00    +0.343 C 
ATOM     27  O   UNL     1      -3.516   2.105  24.902  0.00  0.00    -0.249 OA
ATOM     28  N   UNL     1      -4.544   2.335  23.937  0.00  0.00    -0.161 NA
BRANCH  28  29
ATOM     29  C   UNL     1      -5.111   2.322  24.536  0.00  0.00    +0.078 A 
ATOM     30  C   UNL     1      -5.545   1.635  24.679  0.00  0.00    +0.017 A 
ATOM     31  C   UNL     1      -6.111   1.622  25.279  0.00  0.00    +0.004 A 
ATOM     32  C   UNL     1      -6.244   2.296  25.735  0.00  0.00    +0.037 A 
ATOM     33  C   UNL     1      -5.810   2.984  25.592  0.00  0.00    +0.140 A 
ATOM     36  C   UNL     1      -5.244   2.996  24.993  0.00  0.00    +0.054 A 
BRANCH  33  34
ATOM     34  O   UNL     1      -5.943   3.657  26.048  0.00  0.00    -0.471 OA
ATOM     35  C   UNL     1      -6.090   4.382  25.682  0.00  0.00    +0.252 C 
ENDBRANCH  33  34
ENDBRANCH  28  29
ENDBRANCH  14  25
BRANCH  12  10
ATOM      9  N   UNL     1      -0.727   0.219  23.779  0.00  0.00    -0.196 NA
ATOM     10  C   UNL     1      -0.563   1.025  23.851  0.00  0.00    +0.260 C 
ATOM     11  O   UNL     1       0.217   1.283  23.920  0.00  0.00    -0.272 OA
BRANCH   9   8
ATOM      8  C   UNL     1      -0.109  -0.328  23.774  0.00  0.00    +0.179 C 
BRANCH   8  37
ATOM     37  C   UNL     1       0.445  -0.319  23.163  0.00  0.00    +0.281 C 
ATOM     38  N   UNL     1       1.251  -0.325  23.336  0.00  0.00    -0.086 NA
ATOM     39  O   UNL     1       0.192  -0.304  22.378  0.00  0.00    -0.270 OA
ENDBRANCH   8  37
BRANCH   8   7
ATOM      7  C   UNL     1      -0.047  -0.883  24.381  0.00  0.00    +0.057 C 
BRANCH   7   6
ATOM      3  C   UNL     1      -1.981  -2.319  24.948  0.00  0.00    +0.139 A 
ATOM      4  C   UNL     1      -1.585  -2.425  24.233  0.00  0.00    +0.037 A 
ATOM      5  C   UNL     1      -0.940  -1.946  24.044  0.00  0.00    -0.001 A 
ATOM      6  C   UNL     1      -0.692  -1.362  24.570  0.00  0.00    -0.020 A 
ATOM     40  C   UNL     1      -1.089  -1.256  25.286  0.00  0.00    -0.001 A 
ATOM     41  C   UNL     1      -1.734  -1.734  25.475  0.00  0.00    +0.037 A 
BRANCH   3   2
ATOM      1  C   UNL     1      -3.394  -2.530  24.996  0.00  0.00    +0.252 C 
ATOM      2  O   UNL     1      -2.626  -2.798  25.137  0.00  0.00    -0.471 OA
ENDBRANCH   3   2
ENDBRANCH   7   6
ENDBRANCH   8   7
ENDBRANCH   9   8
ENDBRANCH  12  10
TORSDOF 10
ENDMDL
MODEL 8
REMARK VINA RESULT:      -8.3      1.778      4.642
REMARK  Name = 
REMARK  10 active torsions:
REMARK  status: ('A' for Active; 'I' for Inactive)
REMARK    1  A    between atoms: O_2  and  C_3
REMARK    2  A    between atoms: C_6  and  C_7
REMARK    3  A    between atoms: C_7  and  C_8
REMARK    4  A    between atoms: C_8  and  N_9
REMARK    5  A    between atoms: C_8  and  C_37
REMARK    6  A    between atoms: C_10  and  C_12
REMARK    7  A    between atoms: C_14  and  N_25
REMARK    8  A    between atoms: C_17  and  C_19
REMARK    9  A    between atoms: N_28  and  C_29
REMARK   10  A    between atoms: C_33  and  O_34
REMARK                            x       y       z     vdW  Elec       q    Type
REMARK                         _______ _______ _______ _____ _____    ______ ____
ROOT
ATOM     12  C   UNL     1      -0.476   0.505  24.559  0.00  0.00    +0.156 C 
ATOM     13  C   UNL     1       0.043   0.102  24.061  0.00  0.00    +0.053 C 
ATOM     14  C   UNL     1       0.391   0.652  23.555  0.00  0.00    +0.119 C 
ATOM     15  C   UNL     1       0.087   1.396  23.740  0.00  0.00    +0.116 C 
ATOM     16  N   UNL     1      -0.449   1.306  24.360  0.00  0.00    -0.266 N 
ATOM     17  C   UNL     1      -0.881   1.909  24.720  0.00  0.00    +0.265 C 
ATOM     18  O   UNL     1      -1.399   1.735  25.338  0.00  0.00    -0.268 OA
ENDROOT
BRANCH  17  19
ATOM     19  C   UNL     1      -0.796   2.688  24.461  0.00  0.00    +0.114 A 
ATOM     20  C   UNL     1      -0.109   3.142  24.506  0.00  0.00    +0.023 A 
ATOM     21  C   UNL     1      -0.272   3.884  24.184  0.00  0.00    +0.020 A 
ATOM     22  C   UNL     1      -1.059   3.889  23.939  0.00  0.00    +0.076 A 
ATOM     23  N   UNL     1      -1.384   3.149  24.110  0.00  0.00    -0.320 N 
ATOM     24  C   UNL     1      -2.160   2.913  23.957  0.00  0.00    +0.131 C 
ENDBRANCH  17  19
BRANCH  14  25
ATOM     25  N   UNL     1       0.945   0.487  22.966  0.00  0.00    -0.187 NA
ATOM     26  C   UNL     1       1.752   0.528  23.137  0.00  0.00    +0.343 C 
ATOM     27  O   UNL     1       2.003   0.733  23.895  0.00  0.00    -0.249 OA
ATOM     28  N   UNL     1       2.307   0.363  22.548  0.00  0.00    -0.161 NA
BRANCH  28  29
ATOM     29  C   UNL     1       3.113   0.404  22.718  0.00  0.00    +0.078 A 
ATOM     30  C   UNL     1       3.535   1.093  22.552  0.00  0.00    +0.017 A 
ATOM     31  C   UNL     1       4.341   1.134  22.722  0.00  0.00    +0.004 A 
ATOM     32  C   UNL     1       4.725   0.486  23.058  0.00  0.00    +0.037 A 
ATOM     33  C   UNL     1       4.302  -0.203  23.224  0.00  0.00    +0.140 A 
ATOM     36  C   UNL     1       3.497  -0.244  23.054  0.00  0.00    +0.054 A 
BRANCH  33  34
ATOM     34  O   UNL     1       4.687  -0.851  23.560  0.00  0.00    -0.471 OA
ATOM     35  C   UNL     1       5.342  -0.735  24.048  0.00  0.00    +0.252 C 
ENDBRANCH  33  34
ENDBRANCH  28  29
ENDBRANCH  14  25
BRANCH  12  10
ATOM      9  N   UNL     1      -1.426  -0.476  24.979  0.00  0.00    -0.196 NA
ATOM     10  C   UNL     1      -0.940   0.168  25.152  0.00  0.00    +0.260 C 
ATOM     11  O   UNL     1      -0.919   0.475  25.917  0.00  0.00    -0.272 OA
BRANCH   9   8
ATOM      8  C   UNL     1      -1.891  -0.813  25.572  0.00  0.00    +0.179 C 
BRANCH   8  37
ATOM     37  C   UNL     1      -1.541  -1.284  26.152  0.00  0.00    +0.281 C 
ATOM     38  N   UNL     1      -1.714  -1.157  26.947  0.00  0.00    -0.086 NA
ATOM     39  O   UNL     1      -1.017  -1.883  25.935  0.00  0.00    -0.270 OA
ENDBRANCH   8  37
BRANCH   8   7
ATOM      7  C   UNL     1      -2.704  -0.680  25.584  0.00  0.00    +0.057 C 
BRANCH   7   6
ATOM      3  C   UNL     1      -4.180  -1.886  24.005  0.00  0.00    +0.139 A 
ATOM      4  C   UNL     1      -3.746  -2.306  24.566  0.00  0.00    +0.037 A 
ATOM      5  C   UNL     1      -3.254  -1.904  25.092  0.00  0.00    -0.001 A 
ATOM      6  C   UNL     1      -3.196  -1.082  25.058  0.00  0.00    -0.020 A 
ATOM     40  C   UNL     1      -3.632  -0.661  24.496  0.00  0.00    -0.001 A 
ATOM     41  C   UNL     1      -4.124  -1.063  23.970  0.00  0.00    +0.037 A 
BRANCH   3   2
ATOM      1  C   UNL     1      -4.523  -3.079  23.297  0.00  0.00    +0.252 C 
ATOM      2  O   UNL     1      -4.672  -2.288  23.479  0.00  0.00    -0.471 OA
ENDBRANCH   3   2
ENDBRANCH   7   6
ENDBRANCH   8   7
ENDBRANCH   9   8
ENDBRANCH  12  10
TORSDOF 10
ENDMDL
MODEL 9
REMARK VINA RESULT:      -8.2      1.535      4.580
REMARK  Name = 
REMARK  10 active torsions:
REMARK  status: ('A' for Active; 'I' for Inactive)
REMARK    1  A    between atoms: O_2  and  C_3
REMARK    2  A    between atoms: C_6  and  C_7
REMARK    3  A    between atoms: C_7  and  C_8
REMARK    4  A    between atoms: C_8  and  N_9
REMARK    5  A    between atoms: C_8  and  C_37
REMARK    6  A    between atoms: C_10  and  C_12
REMARK    7  A    between atoms: C_14  and  N_25
REMARK    8  A    between atoms: C_17  and  C_19
REMARK    9  A    between atoms: N_28  and  C_29
REMARK   10  A    between atoms: C_33  and  O_34
REMARK                            x       y       z     vdW  Elec       q    Type
REMARK                         _______ _______ _______ _____ _____    ______ ____
ROOT
ATOM     12  C   UNL     1      -0.027   0.728  24.637  0.00  0.00    +0.156 C 
ATOM     13  C   UNL     1      -0.516   0.171  25.001  0.00  0.00    +0.053 C 
ATOM     14  C   UNL     1      -0.442  -0.540  24.589  0.00  0.00    +0.119 C 
ATOM     15  C   UNL     1       0.092  -0.423  23.971  0.00  0.00    +0.116 C 
ATOM     16  N   UNL     1       0.349   0.360  24.001  0.00  0.00    -0.266 N 
ATOM     17  C   UNL     1       0.886   0.714  23.485  0.00  0.00    +0.265 C 
ATOM     18  O   UNL     1       1.091   1.508  23.583  0.00  0.00    -0.268 OA
ENDROOT
BRANCH  17  19
ATOM     19  C   UNL     1       1.219   0.276  22.871  0.00  0.00    +0.114 A 
ATOM     20  C   UNL     1       0.804  -0.159  22.307  0.00  0.00    +0.023 A 
ATOM     21  C   UNL     1       1.354  -0.510  21.800  0.00  0.00    +0.020 A 
ATOM     22  C   UNL     1       2.108  -0.291  22.052  0.00  0.00    +0.076 A 
ATOM     23  N   UNL     1       2.025   0.195  22.714  0.00  0.00    -0.320 N 
ATOM     24  C   UNL     1       2.640   0.539  23.144  0.00  0.00    +0.131 C 
ENDBRANCH  17  19
BRANCH  14  25
ATOM     25  N   UNL     1      -0.834  -1.245  24.765  0.00  0.00    -0.187 NA
ATOM     26  C   UNL     1      -1.620  -1.347  24.536  0.00  0.00    +0.343 C 
ATOM     27  O   UNL     1      -2.014  -0.745  24.133  0.00  0.00    -0.249 OA
ATOM     28  N   UNL     1      -2.012  -2.052  24.711  0.00  0.00    -0.161 NA
BRANCH  28  29
ATOM     29  C   UNL     1      -2.798  -2.155  24.483  0.00  0.00    +0.078 A 
ATOM     30  C   UNL     1      -3.017  -2.819  24.046  0.00  0.00    +0.017 A 
ATOM     31  C   UNL     1      -3.803  -2.922  23.818  0.00  0.00    +0.004 A 
ATOM     32  C   UNL     1      -4.370  -2.361  24.027  0.00  0.00    +0.037 A 
ATOM     33  C   UNL     1      -4.151  -1.696  24.464  0.00  0.00    +0.140 A 
ATOM     36  C   UNL     1      -3.365  -1.594  24.692  0.00  0.00    +0.054 A 
BRANCH  33  34
ATOM     34  O   UNL     1      -4.718  -1.135  24.673  0.00  0.00    -0.471 OA
ATOM     35  C   UNL     1      -4.799  -0.445  24.228  0.00  0.00    +0.252 C 
ENDBRANCH  33  34
ENDBRANCH  28  29
ENDBRANCH  14  25
BRANCH  12  10
ATOM      9  N   UNL     1      -0.548   1.911  25.248  0.00  0.00    -0.196 NA
ATOM     10  C   UNL     1       0.069   1.514  24.869  0.00  0.00    +0.260 C 
ATOM     11  O   UNL     1       0.781   1.903  24.723  0.00  0.00    -0.272 OA
BRANCH   9   8
ATOM      8  C   UNL     1      -0.452   2.697  25.480  0.00  0.00    +0.179 C 
BRANCH   8  37
ATOM     37  C   UNL     1      -0.006   2.877  26.151  0.00  0.00    +0.281 C 
ATOM     38  N   UNL     1      -0.162   2.497  26.865  0.00  0.00    -0.086 NA
ATOM     39  O   UNL     1       0.598   3.438  26.106  0.00  0.00    -0.270 OA
ENDBRANCH   8  37
BRANCH   8   7
ATOM      7  C   UNL     1      -0.801   3.301  25.042  0.00  0.00    +0.057 C 
BRANCH   7   6
ATOM      3  C   UNL     1      -3.221   3.761  25.281  0.00  0.00    +0.139 A 
ATOM      4  C   UNL     1      -2.684   4.103  25.804  0.00  0.00    +0.037 A 
ATOM      5  C   UNL     1      -1.877   3.949  25.725  0.00  0.00    -0.001 A 
ATOM      6  C   UNL     1      -1.608   3.455  25.122  0.00  0.00    -0.020 A 
ATOM     40  C   UNL     1      -2.147   3.113  24.598  0.00  0.00    -0.001 A 
ATOM     41  C   UNL     1      -2.954   3.266  24.677  0.00  0.00    +0.037 A 
BRANCH   3   2
ATOM      1  C   UNL     1      -4.570   3.292  25.348  0.00  0.00    +0.252 C 
ATOM      2  O   UNL     1      -4.028   3.915  25.360  0.00  0.00    -0.471 OA
ENDBRANCH   3   2
ENDBRANCH   7   6
ENDBRANCH   8   7
ENDBRANCH   9   8
ENDBRANCH  12  10
TORSDOF 10
ENDMDL
