MODEL 1
REMARK VINA RESULT:     -10.7      0.000      0.000
REMARK  Name = 
REMARK  5 active torsions:
REMARK  status: ('A' for Active; 'I' for Inactive)
REMARK    1  A    between atoms: C_2  and  S_3
REMARK    2  A    between atoms: S_3  and  C_6
REMARK    3  A    between atoms: C_11  and  C_13
REMARK    4  A    between atoms: N_16  and  C_17
REMARK    5  A    between atoms: C_17  and  C_18
REMARK                            x       y       z     vdW  Elec       q    Type
REMARK                         _______ _______ _______ _____ _____    ______ ____
ROOT
ATOM      6  C   UNL     1      -0.825   3.424  25.290  0.00  0.00    +0.107 A 
ATOM      7  C   UNL     1      -1.347   2.845  25.022  0.00  0.00    +0.041 A 
ATOM      8  C   UNL     1      -1.242   2.058  25.246  0.00  0.00    +0.120 A 
ATOM      9  C   UNL     1      -0.613   1.851  25.739  0.00  0.00    +0.164 A 
ATOM     10  O   UNL     1      -0.648   1.037  25.867  0.00  0.00    -0.438 OA
ATOM     11  C   UNL     1      -1.297   0.741  25.454  0.00  0.00    +0.207 A 
ATOM     12  N   UNL     1      -1.663   1.372  25.070  0.00  0.00    -0.212 NA
ATOM     25  C   UNL     1      -0.091   2.431  26.008  0.00  0.00    +0.040 A 
ATOM     26  C   UNL     1      -0.197   3.217  25.783  0.00  0.00    +0.022 A 
ENDROOT
BRANCH  11  13
ATOM     13  C   UNL     1      -1.537  -0.048  25.428  0.00  0.00    +0.094 C 
ATOM     14  C   UNL     1      -1.065  -0.692  25.225  0.00  0.00    +0.028 C 
ATOM     15  C   UNL     1      -1.527  -1.374  25.273  0.00  0.00    +0.073 C 
ATOM     16  N   UNL     1      -2.286  -1.150  25.505  0.00  0.00    -0.267 NA
ATOM     24  C   UNL     1      -2.292  -0.330  25.601  0.00  0.00    +0.082 C 
BRANCH  16  17
ATOM     17  C   UNL     1      -2.927  -1.656  25.621  0.00  0.00    +0.119 C 
BRANCH  17  18
ATOM     18  C   UNL     1      -3.394  -1.885  24.980  0.00  0.00    +0.075 A 
ATOM     19  N   UNL     1      -3.914  -1.344  24.634  0.00  0.00    -0.247 NA
ATOM     20  C   UNL     1      -4.380  -1.574  23.994  0.00  0.00    +0.098 A 
ATOM     21  C   UNL     1      -4.329  -2.342  23.700  0.00  0.00    +0.021 A 
ATOM     22  C   UNL     1      -3.810  -2.883  24.046  0.00  0.00    +0.003 A 
ATOM     23  C   UNL     1      -3.342  -2.654  24.686  0.00  0.00    +0.016 A 
ENDBRANCH  17  18
ENDBRANCH  16  17
ENDBRANCH  11  13
BRANCH   6   3
ATOM      3  S   UNL     1      -0.931   4.211  25.066  0.00  0.00    +0.009 S 
ATOM      4  O   UNL     1      -1.474   4.313  25.678  0.00  0.00    -0.169 OA
ATOM      5  O   UNL     1      -0.387   4.109  24.453  0.00  0.00    -0.169 OA
BRANCH   3   2
ATOM      1  C   UNL     1      -1.681   5.425  25.128  0.00  0.00    +0.028 C 
ATOM      2  C   UNL     1      -1.036   4.998  24.841  0.00  0.00    +0.156 C 
ENDBRANCH   3   2
ENDBRANCH   6   3
TORSDOF 5
ENDMDL
MODEL 2
REMARK VINA RESULT:     -10.5      2.101      5.490
REMARK  Name = 
REMARK  5 active torsions:
REMARK  status: ('A' for Active; 'I' for Inactive)
REMARK    1  A    between atoms: C_2  and  S_3
REMARK    2  A    between atoms: S_3  and  C_6
REMARK    3  A    between atoms: C_11  and  C_13
REMARK    4  A    between atoms: N_16  and  C_17
REMARK    5  A    between atoms: C_17  and  C_18
REMARK                            x       y       z     vdW  Elec       q    Type
REMARK                         _______ _______ _______ _____ _____    ______ ____
ROOT
ATOM      6  C   UNL     1      -2.407  -1.904  24.728  0.00  0.00    +0.107 A 
ATOM      7  C   UNL     1      -2.488  -1.087  24.657  0.00  0.00    +0.041 A 
ATOM      8  C   UNL     1      -1.835  -0.596  24.771  0.00  0.00    +0.120 A 
ATOM      9  C   UNL     1      -1.100  -0.923  24.956  0.00  0.00    +0.164 A 
ATOM     10  O   UNL     1      -0.559  -0.307  25.036  0.00  0.00    -0.438 OA
ATOM     11  C   UNL     1      -0.958   0.402  24.902  0.00  0.00    +0.207 A 
ATOM     12  N   UNL     1      -1.746   0.223  24.738  0.00  0.00    -0.212 NA
ATOM     25  C   UNL     1      -1.019  -1.742  25.027  0.00  0.00    +0.040 A 
ATOM     26  C   UNL     1      -1.673  -2.232  24.913  0.00  0.00    +0.022 A 
ENDROOT
BRANCH  11  13
ATOM     13  C   UNL     1      -0.628   1.158  24.926  0.00  0.00    +0.094 C 
ATOM     14  C   UNL     1      -0.083   1.467  24.389  0.00  0.00    +0.028 C 
ATOM     15  C   UNL     1       0.098   2.237  24.623  0.00  0.00    +0.073 C 
ATOM     16  N   UNL     1      -0.335   2.404  25.305  0.00  0.00    -0.267 NA
ATOM     24  C   UNL     1      -0.783   1.737  25.492  0.00  0.00    +0.082 C 
BRANCH  16  17
ATOM     17  C   UNL     1      -0.322   3.113  25.726  0.00  0.00    +0.119 C 
BRANCH  17  18
ATOM     18  C   UNL     1      -0.871   3.705  25.555  0.00  0.00    +0.075 A 
ATOM     19  N   UNL     1      -1.635   3.662  25.865  0.00  0.00    -0.247 NA
ATOM     20  C   UNL     1      -2.183   4.254  25.694  0.00  0.00    +0.098 A 
ATOM     21  C   UNL     1      -1.969   4.889  25.214  0.00  0.00    +0.021 A 
ATOM     22  C   UNL     1      -1.205   4.932  24.904  0.00  0.00    +0.003 A 
ATOM     23  C   UNL     1      -0.656   4.340  25.074  0.00  0.00    +0.016 A 
ENDBRANCH  17  18
ENDBRANCH  16  17
ENDBRANCH  11  13
BRANCH   6   3
ATOM      3  S   UNL     1      -3.060  -2.394  24.614  0.00  0.00    +0.009 S 
ATOM      4  O   UNL     1      -3.403  -2.099  25.304  0.00  0.00    -0.169 OA
ATOM      5  O   UNL     1      -2.718  -2.691  23.924  0.00  0.00    -0.169 OA
BRANCH   3   2
ATOM      1  C   UNL     1      -4.272  -2.700  23.922  0.00  0.00    +0.028 C 
ATOM      2  C   UNL     1      -3.714  -2.886  24.500  0.00  0.00    +0.156 C 
ENDBRANCH   3   2
ENDBRANCH   6   3
TORSDOF 5
ENDMDL
MODEL 3
REMARK VINA RESULT:     -10.5      2.478      5.852
REMARK  Name = 
REMARK  5 active torsions:
REMARK  status: ('A' for Active; 'I' for Inactive)
REMARK    1  A    between atoms: C_2  and  S_3
REMARK    2  A    between atoms: S_3  and  C_6
REMARK    3  A    between atoms: C_11  and  C_13
REMARK    4  A    between atoms: N_16  and  C_17
REMARK    5  A    between atoms: C_17  and  C_18
REMARK                            x       y       z     vdW  Elec       q    Type
REMARK                         _______ _______ _______ _____ _____    ______ ____
ROOT
ATOM      6  C   UNL     1      -3.570  -1.265  24.555  0.00  0.00    +0.107 A 
ATOM      7  C   UNL     1      -3.117  -0.619  24.791  0.00  0.00    +0.041 A 
ATOM      8  C   UNL     1      -3.435   0.142  24.762  0.00  0.00    +0.120 A 
ATOM      9  C   UNL     1      -4.208   0.256  24.495  0.00  0.00    +0.164 A 
ATOM     10  O   UNL     1      -4.372   1.063  24.526  0.00  0.00    -0.438 OA
ATOM     11  C   UNL     1      -3.702   1.449  24.812  0.00  0.00    +0.207 A 
ATOM     12  N   UNL     1      -3.123   0.879  24.958  0.00  0.00    -0.212 NA
ATOM     25  C   UNL     1      -4.662  -0.392  24.258  0.00  0.00    +0.040 A 
ATOM     26  C   UNL     1      -4.343  -1.152  24.288  0.00  0.00    +0.022 A 
ENDROOT
BRANCH  11  13
ATOM     13  C   UNL     1      -3.624   2.261  24.932  0.00  0.00    +0.094 C 
ATOM     14  C   UNL     1      -4.071   2.850  24.566  0.00  0.00    +0.028 C 
ATOM     15  C   UNL     1      -3.809   3.581  24.846  0.00  0.00    +0.073 C 
ATOM     16  N   UNL     1      -3.200   3.443  25.386  0.00  0.00    -0.267 NA
ATOM     24  C   UNL     1      -3.086   2.628  25.439  0.00  0.00    +0.082 C 
BRANCH  16  17
ATOM     17  C   UNL     1      -2.779   4.019  25.800  0.00  0.00    +0.119 C 
BRANCH  17  18
ATOM     18  C   UNL     1      -2.068   4.309  25.497  0.00  0.00    +0.075 A 
ATOM     19  N   UNL     1      -1.396   3.829  25.491  0.00  0.00    -0.247 NA
ATOM     20  C   UNL     1      -0.686   4.120  25.188  0.00  0.00    +0.098 A 
ATOM     21  C   UNL     1      -0.647   4.888  24.892  0.00  0.00    +0.021 A 
ATOM     22  C   UNL     1      -1.319   5.367  24.897  0.00  0.00    +0.003 A 
ATOM     23  C   UNL     1      -2.030   5.078  25.200  0.00  0.00    +0.016 A 
ENDBRANCH  17  18
ENDBRANCH  16  17
ENDBRANCH  11  13
BRANCH   6   3
ATOM      3  S   UNL     1      -3.252  -2.025  24.584  0.00  0.00    +0.009 S 
ATOM      4  O   UNL     1      -2.935  -1.923  23.829  0.00  0.00    -0.169 OA
ATOM      5  O   UNL     1      -3.568  -2.129  25.339  0.00  0.00    -0.169 OA
BRANCH   3   2
ATOM      1  C   UNL     1      -2.122  -2.897  24.513  0.00  0.00    +0.028 C 
ATOM      2  C   UNL     1      -2.933  -2.786  24.614  0.00  0.00    +0.156 C 
ENDBRANCH   3   2
ENDBRANCH   6   3
TORSDOF 5
ENDMDL
MODEL 4
REMARK VINA RESULT:     -10.3      1.691      2.367
REMARK  Name = 
REMARK  5 active torsions:
REMARK  status: ('A' for Active; 'I' for Inactive)
REMARK    1  A    between atoms: C_2  and  S_3
REMARK    2  A    between atoms: S_3  and  C_6
REMARK    3  A    between atoms: C_11  and  C_13
REMARK    4  A    between atoms: N_16  and  C_17
REMARK    5  A    between atoms: C_17  and  C_18
REMARK                            x       y       z     vdW  Elec       q    Type
REMARK                         _______ _______ _______ _____ _____    ______ ____
ROOT
ATOM      6  C   UNL     1      -2.562   3.883  24.958  0.00  0.00    +0.107 A 
ATOM      7  C   UNL     1      -2.416   3.078  25.055  0.00  0.00    +0.041 A 
ATOM      8  C   UNL     1      -3.000   2.526  24.867  0.00  0.00    +0.120 A 
ATOM      9  C   UNL     1      -3.730   2.781  24.580  0.00  0.00    +0.164 A 
ATOM     10  O   UNL     1      -4.197   2.115  24.442  0.00  0.00    -0.438 OA
ATOM     11  C   UNL     1      -3.755   1.449  24.642  0.00  0.00    +0.207 A 
ATOM     12  N   UNL     1      -3.015   1.703  24.904  0.00  0.00    -0.212 NA
ATOM     25  C   UNL     1      -3.877   3.588  24.483  0.00  0.00    +0.040 A 
ATOM     26  C   UNL     1      -3.292   4.138  24.672  0.00  0.00    +0.022 A 
ENDROOT
BRANCH  11  13
ATOM     13  C   UNL     1      -4.007   0.665  24.589  0.00  0.00    +0.094 C 
ATOM     14  C   UNL     1      -4.606   0.317  25.037  0.00  0.00    +0.028 C 
ATOM     15  C   UNL     1      -4.675  -0.471  24.804  0.00  0.00    +0.073 C 
ATOM     16  N   UNL     1      -4.119  -0.611  24.211  0.00  0.00    -0.267 NA
ATOM     24  C   UNL     1      -3.707   0.092  24.078  0.00  0.00    +0.082 C 
BRANCH  16  17
ATOM     17  C   UNL     1      -3.997  -1.326  23.819  0.00  0.00    +0.119 C 
BRANCH  17  18
ATOM     18  C   UNL     1      -3.493  -1.894  24.143  0.00  0.00    +0.075 A 
ATOM     19  N   UNL     1      -2.675  -1.796  24.096  0.00  0.00    -0.247 NA
ATOM     20  C   UNL     1      -2.173  -2.364  24.420  0.00  0.00    +0.098 A 
ATOM     21  C   UNL     1      -2.488  -3.030  24.792  0.00  0.00    +0.021 A 
ATOM     22  C   UNL     1      -3.306  -3.128  24.840  0.00  0.00    +0.003 A 
ATOM     23  C   UNL     1      -3.809  -2.560  24.515  0.00  0.00    +0.016 A 
ENDBRANCH  17  18
ENDBRANCH  16  17
ENDBRANCH  11  13
BRANCH   6   3
ATOM      3  S   UNL     1      -1.978   4.434  25.147  0.00  0.00    +0.009 S 
ATOM      4  O   UNL     1      -1.564   4.230  24.464  0.00  0.00    -0.169 OA
ATOM      5  O   UNL     1      -2.392   4.638  25.831  0.00  0.00    -0.169 OA
BRANCH   3   2
ATOM      1  C   UNL     1      -0.727   5.060  24.857  0.00  0.00    +0.028 C 
ATOM      2  C   UNL     1      -1.394   4.985  25.337  0.00  0.00    +0.156 C 
ENDBRANCH   3   2
ENDBRANCH   6   3
TORSDOF 5
ENDMDL
