MODEL 1
REMARK VINA RESULT:      -9.5      0.000      0.000
REMARK  Name = 
REMARK  6 active torsions:
REMARK  status: ('A' for Active; 'I' for Inactive)
REMARK    1  A    between atoms: C_2  and  C_4
REMARK    2  A    between atoms: C_7  and  N_8
REMARK    3  A    between atoms: C_9  and  O_11
REMARK    4  A    between atoms: O_11  and  C_12
REMARK    5  A    between atoms: C_16  and  N_20
REMARK    6  A    between atoms: C_23  and  C_27
REMARK                            x       y       z     vdW  Elec       q    Type
REMARK                         _______ _______ _______ _____ _____    ______ ____
ROOT
ATOM     12  C   UNL     1      -0.093   0.339  23.474  0.00  0.00    +0.229 C 
ATOM     13  C   UNL     1      -0.203  -0.096  24.166  0.00  0.00    +0.188 C 
ATOM     14  O   UNL     1      -0.849   0.224  24.568  0.00  0.00    -0.348 OA
ATOM     15  C   UNL     1      -1.137   0.856  24.125  0.00  0.00    +0.168 C 
ATOM     16  C   UNL     1      -1.714   1.446  24.098  0.00  0.00    +0.155 C 
ATOM     17  C   UNL     1      -1.604   1.880  23.406  0.00  0.00    +0.166 C 
ATOM     18  O   UNL     1      -0.959   1.560  23.004  0.00  0.00    -0.348 OA
ATOM     19  C   UNL     1      -0.670   0.927  23.448  0.00  0.00    +0.186 C 
ENDROOT
BRANCH  16  20
ATOM     20  N   UNL     1      -2.299   1.577  24.665  0.00  0.00    -0.200 NA
ATOM     21  C   UNL     1      -3.001   1.956  24.454  0.00  0.00    +0.236 A 
ATOM     22  N   UNL     1      -3.586   2.087  25.020  0.00  0.00    -0.217 NA
ATOM     23  C   UNL     1      -4.287   2.466  24.810  0.00  0.00    +0.063 A 
ATOM     24  C   UNL     1      -4.404   2.714  24.032  0.00  0.00    +0.035 A 
ATOM     25  C   UNL     1      -3.819   2.583  23.465  0.00  0.00    +0.103 A 
ATOM     26  N   UNL     1      -3.118   2.204  23.676  0.00  0.00    -0.211 NA
BRANCH  23  27
ATOM     27  C   UNL     1      -4.872   2.597  25.376  0.00  0.00    +0.036 C 
ATOM     28  C   UNL     1      -5.457   2.728  25.943  0.00  0.00    +0.006 C 
ATOM     29  C   UNL     1      -4.530   3.325  25.560  0.00  0.00    +0.006 C 
ATOM     30  C   UNL     1      -5.214   1.869  25.191  0.00  0.00    +0.006 C 
ENDBRANCH  23  27
ENDBRANCH  16  20
BRANCH  12  11
ATOM     11  O   UNL     1       0.492   0.208  22.907  0.00  0.00    -0.432 OA
BRANCH  11   9
ATOM      8  N   UNL     1       1.874   0.045  22.581  0.00  0.00    -0.142 NA
ATOM      9  C   UNL     1       1.288   0.285  23.109  0.00  0.00    +0.425 C 
ATOM     10  O   UNL     1       1.498   0.602  23.842  0.00  0.00    -0.224 OA
BRANCH   8   7
ATOM      4  C   UNL     1       4.262   0.275  23.189  0.00  0.00    +0.035 A 
ATOM      5  C   UNL     1       3.863  -0.431  23.344  0.00  0.00    +0.004 A 
ATOM      6  C   UNL     1       3.067  -0.507  23.141  0.00  0.00    +0.017 A 
ATOM      7  C   UNL     1       2.670   0.122  22.784  0.00  0.00    +0.077 A 
ATOM     31  C   UNL     1       3.069   0.827  22.630  0.00  0.00    +0.017 A 
ATOM     32  C   UNL     1       3.865   0.904  22.832  0.00  0.00    +0.004 A 
BRANCH   4   2
ATOM      1  C   UNL     1       5.612  -0.185  23.097  0.00  0.00    +0.077 C 
ATOM      2  C   UNL     1       5.058   0.351  23.392  0.00  0.00    +0.173 C 
ATOM      3  O   UNL     1       5.300   0.963  23.890  0.00  0.00    -0.291 OA
ENDBRANCH   4   2
ENDBRANCH   8   7
ENDBRANCH  11   9
ENDBRANCH  12  11
TORSDOF 6
ENDMDL
MODEL 2
REMARK VINA RESULT:      -9.2      1.363      7.198
REMARK  Name = 
REMARK  6 active torsions:
REMARK  status: ('A' for Active; 'I' for Inactive)
REMARK    1  A    between atoms: C_2  and  C_4
REMARK    2  A    between atoms: C_7  and  N_8
REMARK    3  A    between atoms: C_9  and  O_11
REMARK    4  A    between atoms: O_11  and  C_12
REMARK    5  A    between atoms: C_16  and  N_20
REMARK    6  A    between atoms: C_23  and  C_27
REMARK                            x       y       z     vdW  Elec       q    Type
REMARK                         _______ _______ _______ _____ _____    ______ ____
ROOT
ATOM     12  C   UNL     1      -1.286   1.258  23.692  0.00  0.00    +0.229 C 
ATOM     13  C   UNL     1      -0.971   1.949  24.013  0.00  0.00    +0.188 C 
ATOM     14  O   UNL     1      -0.154   1.856  24.067  0.00  0.00    -0.348 OA
ATOM     15  C   UNL     1       0.038   1.108  23.779  0.00  0.00    +0.168 C 
ATOM     16  C   UNL     1       0.661   0.586  23.634  0.00  0.00    +0.155 C 
ATOM     17  C   UNL     1       0.346  -0.105  23.313  0.00  0.00    +0.166 C 
ATOM     18  O   UNL     1      -0.471  -0.012  23.259  0.00  0.00    -0.348 OA
ATOM     19  C   UNL     1      -0.662   0.738  23.547  0.00  0.00    +0.186 C 
ENDROOT
BRANCH  16  20
ATOM     20  N   UNL     1       1.459   0.732  23.785  0.00  0.00    -0.200 NA
ATOM     21  C   UNL     1       2.031   0.505  23.236  0.00  0.00    +0.236 A 
ATOM     22  N   UNL     1       2.828   0.650  23.386  0.00  0.00    -0.217 NA
ATOM     23  C   UNL     1       3.401   0.423  22.836  0.00  0.00    +0.063 A 
ATOM     24  C   UNL     1       3.174   0.049  22.136  0.00  0.00    +0.035 A 
ATOM     25  C   UNL     1       2.376  -0.096  21.986  0.00  0.00    +0.103 A 
ATOM     26  N   UNL     1       1.805   0.131  22.536  0.00  0.00    -0.211 NA
BRANCH  23  27
ATOM     27  C   UNL     1       4.198   0.568  22.986  0.00  0.00    +0.036 C 
ATOM     28  C   UNL     1       4.996   0.713  23.137  0.00  0.00    +0.006 C 
ATOM     29  C   UNL     1       4.138   1.295  22.602  0.00  0.00    +0.006 C 
ATOM     30  C   UNL     1       4.258  -0.160  23.371  0.00  0.00    +0.006 C 
ENDBRANCH  23  27
ENDBRANCH  16  20
BRANCH  12  11
ATOM     11  O   UNL     1      -2.084   1.112  23.541  0.00  0.00    -0.432 OA
BRANCH  11   9
ATOM      8  N   UNL     1      -3.373   1.695  23.738  0.00  0.00    -0.142 NA
ATOM      9  C   UNL     1      -2.661   1.415  24.046  0.00  0.00    +0.425 C 
ATOM     10  O   UNL     1      -2.526   1.438  24.860  0.00  0.00    -0.224 OA
BRANCH   8   7
ATOM      4  C   UNL     1      -5.106   2.605  25.254  0.00  0.00    +0.035 A 
ATOM      5  C   UNL     1      -5.069   1.793  25.110  0.00  0.00    +0.004 A 
ATOM      6  C   UNL     1      -4.491   1.490  24.604  0.00  0.00    +0.017 A 
ATOM      7  C   UNL     1      -3.951   1.999  24.244  0.00  0.00    +0.077 A 
ATOM     31  C   UNL     1      -3.988   2.809  24.388  0.00  0.00    +0.017 A 
ATOM     32  C   UNL     1      -4.566   3.113  24.893  0.00  0.00    +0.004 A 
BRANCH   4   2
ATOM      1  C   UNL     1      -6.154   2.393  26.203  0.00  0.00    +0.077 C 
ATOM      2  C   UNL     1      -5.684   2.907  25.759  0.00  0.00    +0.173 C 
ATOM      3  O   UNL     1      -5.793   3.722  25.821  0.00  0.00    -0.291 OA
ENDBRANCH   4   2
ENDBRANCH   8   7
ENDBRANCH  11   9
ENDBRANCH  12  11
TORSDOF 6
ENDMDL
MODEL 3
REMARK VINA RESULT:      -8.8      3.187      5.165
REMARK  Name = 
REMARK  6 active torsions:
REMARK  status: ('A' for Active; 'I' for Inactive)
REMARK    1  A    between atoms: C_2  and  C_4
REMARK    2  A    between atoms: C_7  and  N_8
REMARK    3  A    between atoms: C_9  and  O_11
REMARK    4  A    between atoms: O_11  and  C_12
REMARK    5  A    between atoms: C_16  and  N_20
REMARK    6  A    between atoms: C_23  and  C_27
REMARK                            x       y       z     vdW  Elec       q    Type
REMARK                         _______ _______ _______ _____ _____    ______ ____
ROOT
ATOM     12  C   UNL     1      -0.076   0.949  24.515  0.00  0.00    +0.229 C 
ATOM     13  C   UNL     1      -0.089   0.688  23.733  0.00  0.00    +0.188 C 
ATOM     14  O   UNL     1      -0.515  -0.018  23.707  0.00  0.00    -0.348 OA
ATOM     15  C   UNL     1      -0.767  -0.192  24.473  0.00  0.00    +0.168 C 
ATOM     16  C   UNL     1      -1.185  -0.735  24.931  0.00  0.00    +0.155 C 
ATOM     17  C   UNL     1      -1.173  -0.474  25.713  0.00  0.00    +0.166 C 
ATOM     18  O   UNL     1      -0.746   0.232  25.738  0.00  0.00    -0.348 OA
ATOM     19  C   UNL     1      -0.495   0.406  24.972  0.00  0.00    +0.186 C 
ENDROOT
BRANCH  16  20
ATOM     20  N   UNL     1      -1.553  -1.421  24.655  0.00  0.00    -0.200 NA
ATOM     21  C   UNL     1      -2.375  -1.482  24.667  0.00  0.00    +0.236 A 
ATOM     22  N   UNL     1      -2.743  -2.167  24.392  0.00  0.00    -0.217 NA
ATOM     23  C   UNL     1      -3.565  -2.228  24.404  0.00  0.00    +0.063 A 
ATOM     24  C   UNL     1      -4.021  -1.604  24.693  0.00  0.00    +0.035 A 
ATOM     25  C   UNL     1      -3.653  -0.918  24.969  0.00  0.00    +0.103 A 
ATOM     26  N   UNL     1      -2.831  -0.858  24.956  0.00  0.00    -0.211 NA
BRANCH  23  27
ATOM     27  C   UNL     1      -3.933  -2.913  24.128  0.00  0.00    +0.036 C 
ATOM     28  C   UNL     1      -4.300  -3.598  23.852  0.00  0.00    +0.006 C 
ATOM     29  C   UNL     1      -3.536  -3.356  24.700  0.00  0.00    +0.006 C 
ATOM     30  C   UNL     1      -4.329  -2.470  23.556  0.00  0.00    +0.006 C 
ENDBRANCH  23  27
ENDBRANCH  16  20
BRANCH  12  11
ATOM     11  O   UNL     1       0.291   1.635  24.791  0.00  0.00    -0.432 OA
BRANCH  11   9
ATOM      8  N   UNL     1      -0.272   2.806  25.385  0.00  0.00    -0.142 NA
ATOM      9  C   UNL     1      -0.086   2.365  24.714  0.00  0.00    +0.425 C 
ATOM     10  O   UNL     1      -0.276   2.653  23.964  0.00  0.00    -0.224 OA
BRANCH   8   7
ATOM      4  C   UNL     1      -1.402   4.996  25.153  0.00  0.00    +0.035 A 
ATOM      5  C   UNL     1      -0.644   4.888  24.845  0.00  0.00    +0.004 A 
ATOM      6  C   UNL     1      -0.268   4.158  24.922  0.00  0.00    +0.017 A 
ATOM      7  C   UNL     1      -0.649   3.536  25.308  0.00  0.00    +0.077 A 
ATOM     31  C   UNL     1      -1.406   3.644  25.616  0.00  0.00    +0.017 A 
ATOM     32  C   UNL     1      -1.783   4.374  25.539  0.00  0.00    +0.004 A 
BRANCH   4   2
ATOM      1  C   UNL     1      -2.597   5.779  25.160  0.00  0.00    +0.077 C 
ATOM      2  C   UNL     1      -1.778   5.726  25.076  0.00  0.00    +0.173 C 
ATOM      3  O   UNL     1      -1.336   6.403  24.915  0.00  0.00    -0.291 OA
ENDBRANCH   4   2
ENDBRANCH   8   7
ENDBRANCH  11   9
ENDBRANCH  12  11
TORSDOF 6
ENDMDL
MODEL 4
REMARK VINA RESULT:      -8.5      2.988      5.154
REMARK  Name = 
REMARK  6 active torsions:
REMARK  status: ('A' for Active; 'I' for Inactive)
REMARK    1  A    between atoms: C_2  and  C_4
REMARK    2  A    between atoms: C_7  and  N_8
REMARK    3  A    between atoms: C_9  and  O_11
REMARK    4  A    between atoms: O_11  and  C_12
REMARK    5  A    between atoms: C_16  and  N_20
REMARK    6  A    between atoms: C_23  and  C_27
REMARK                            x       y       z     vdW  Elec       q    Type
REMARK                         _______ _______ _______ _____ _____    ______ ____
ROOT
ATOM     12  C   UNL     1      -0.202   0.169  24.638  0.00  0.00    +0.229 C 
ATOM     13  C   UNL     1      -0.019   0.504  23.907  0.00  0.00    +0.188 C 
ATOM     14  O   UNL     1      -0.014   1.323  23.997  0.00  0.00    -0.348 OA
ATOM     15  C   UNL     1      -0.193   1.496  24.782  0.00  0.00    +0.168 C 
ATOM     16  C   UNL     1      -0.301   2.108  25.325  0.00  0.00    +0.155 C 
ATOM     17  C   UNL     1      -0.484   1.773  26.056  0.00  0.00    +0.166 C 
ATOM     18  O   UNL     1      -0.489   0.954  25.966  0.00  0.00    -0.348 OA
ATOM     19  C   UNL     1      -0.310   0.782  25.179  0.00  0.00    +0.186 C 
ENDROOT
BRANCH  16  20
ATOM     20  N   UNL     1      -0.237   2.915  25.163  0.00  0.00    -0.200 NA
ATOM     21  C   UNL     1      -0.896   3.405  25.241  0.00  0.00    +0.236 A 
ATOM     22  N   UNL     1      -0.833   4.211  25.080  0.00  0.00    -0.217 NA
ATOM     23  C   UNL     1      -1.492   4.701  25.158  0.00  0.00    +0.063 A 
ATOM     24  C   UNL     1      -2.215   4.385  25.397  0.00  0.00    +0.035 A 
ATOM     25  C   UNL     1      -2.279   3.578  25.559  0.00  0.00    +0.103 A 
ATOM     26  N   UNL     1      -1.619   3.089  25.481  0.00  0.00    -0.211 NA
BRANCH  23  27
ATOM     27  C   UNL     1      -1.428   5.507  24.996  0.00  0.00    +0.036 C 
ATOM     28  C   UNL     1      -1.365   6.314  24.835  0.00  0.00    +0.006 C 
ATOM     29  C   UNL     1      -0.697   5.378  24.638  0.00  0.00    +0.006 C 
ATOM     30  C   UNL     1      -2.160   5.637  25.355  0.00  0.00    +0.006 C 
ENDBRANCH  23  27
ENDBRANCH  16  20
BRANCH  12  11
ATOM     11  O   UNL     1      -0.266  -0.638  24.800  0.00  0.00    -0.432 OA
BRANCH  11   9
ATOM      8  N   UNL     1      -1.481  -1.336  25.078  0.00  0.00    -0.142 NA
ATOM      9  C   UNL     1      -0.924  -1.061  24.536  0.00  0.00    +0.425 C 
ATOM     10  O   UNL     1      -1.023  -1.208  23.730  0.00  0.00    -0.224 OA
BRANCH   8   7
ATOM      4  C   UNL     1      -3.455  -2.604  24.289  0.00  0.00    +0.035 A 
ATOM      5  C   UNL     1      -3.544  -1.832  24.566  0.00  0.00    +0.004 A 
ATOM      6  C   UNL     1      -2.886  -1.410  24.829  0.00  0.00    +0.017 A 
ATOM      7  C   UNL     1      -2.139  -1.759  24.815  0.00  0.00    +0.077 A 
ATOM     31  C   UNL     1      -2.050  -2.531  24.538  0.00  0.00    +0.017 A 
ATOM     32  C   UNL     1      -2.708  -2.954  24.275  0.00  0.00    +0.004 A 
BRANCH   4   2
ATOM      1  C   UNL     1      -4.737  -2.630  23.658  0.00  0.00    +0.077 C 
ATOM      2  C   UNL     1      -4.113  -3.026  24.026  0.00  0.00    +0.173 C 
ATOM      3  O   UNL     1      -4.148  -3.844  24.130  0.00  0.00    -0.291 OA
ENDBRANCH   4   2
ENDBRANCH   8   7
ENDBRANCH  11   9
ENDBRANCH  12  11
TORSDOF 6
ENDMDL
MODEL 5
REMARK VINA RESULT:      -6.6     15.471     16.812
REMARK  Name = 
REMARK  6 active torsions:
REMARK  status: ('A' for Active; 'I' for Inactive)
REMARK    1  A    between atoms: C_2  and  C_4
REMARK    2  A    between atoms: C_7  and  N_8
REMARK    3  A    between atoms: C_9  and  O_11
REMARK    4  A    between atoms: O_11  and  C_12
REMARK    5  A    between atoms: C_16  and  N_20
REMARK    6  A    between atoms: C_23  and  C_27
REMARK                            x       y       z     vdW  Elec       q    Type
REMARK                         _______ _______ _______ _____ _____    ______ ____
ROOT
ATOM     12  C   UNL     1      -6.623  -9.953  14.613  0.00  0.00    +0.229 C 
ATOM     13  C   UNL     1      -5.813 -10.028  14.749  0.00  0.00    +0.188 C 
ATOM     14  O   UNL     1      -5.429  -9.989  14.020  0.00  0.00    -0.348 OA
ATOM     15  C   UNL     1      -6.000  -9.890  13.435  0.00  0.00    +0.168 C 
ATOM     16  C   UNL     1      -6.117  -9.804  12.622  0.00  0.00    +0.155 C 
ATOM     17  C   UNL     1      -6.927  -9.728  12.487  0.00  0.00    +0.166 C 
ATOM     18  O   UNL     1      -7.311  -9.767  13.215  0.00  0.00    -0.348 OA
ATOM     19  C   UNL     1      -6.739  -9.867  13.801  0.00  0.00    +0.186 C 
ENDROOT
BRANCH  16  20
ATOM     20  N   UNL     1      -5.526  -9.795  12.046  0.00  0.00    -0.200 NA
ATOM     21  C   UNL     1      -5.678  -9.469  11.304  0.00  0.00    +0.236 A 
ATOM     22  N   UNL     1      -5.088  -9.461  10.728  0.00  0.00    -0.217 NA
ATOM     23  C   UNL     1      -5.240  -9.135   9.985  0.00  0.00    +0.063 A 
ATOM     24  C   UNL     1      -5.983  -8.818   9.819  0.00  0.00    +0.035 A 
ATOM     25  C   UNL     1      -6.574  -8.827  10.395  0.00  0.00    +0.103 A 
ATOM     26  N   UNL     1      -6.421  -9.152  11.137  0.00  0.00    -0.211 NA
BRANCH  23  27
ATOM     27  C   UNL     1      -4.650  -9.126   9.410  0.00  0.00    +0.036 C 
ATOM     28  C   UNL     1      -4.059  -9.117   8.834  0.00  0.00    +0.006 C 
ATOM     29  C   UNL     1      -5.101  -9.632   8.940  0.00  0.00    +0.006 C 
ATOM     30  C   UNL     1      -4.199  -8.620   9.880  0.00  0.00    +0.006 C 
ENDBRANCH  23  27
ENDBRANCH  16  20
BRANCH  12  11
ATOM     11  O   UNL     1      -7.214  -9.961  15.189  0.00  0.00    -0.432 OA
BRANCH  11   9
ATOM      8  N   UNL     1      -7.128 -10.619  16.455  0.00  0.00    -0.142 NA
ATOM      9  C   UNL     1      -7.012  -9.949  15.989  0.00  0.00    +0.425 C 
ATOM     10  O   UNL     1      -6.692  -9.264  16.322  0.00  0.00    -0.224 OA
BRANCH   8   7
ATOM      4  C   UNL     1      -6.519 -10.581  18.854  0.00  0.00    +0.035 A 
ATOM      5  C   UNL     1      -5.949 -10.765  18.286  0.00  0.00    +0.004 A 
ATOM      6  C   UNL     1      -6.153 -10.778  17.487  0.00  0.00    +0.017 A 
ATOM      7  C   UNL     1      -6.926 -10.606  17.255  0.00  0.00    +0.077 A 
ATOM     31  C   UNL     1      -7.495 -10.422  17.822  0.00  0.00    +0.017 A 
ATOM     32  C   UNL     1      -7.292 -10.410  18.622  0.00  0.00    +0.004 A 
BRANCH   4   2
ATOM      1  C   UNL     1      -5.532 -10.689  19.881  0.00  0.00    +0.077 C 
ATOM      2  C   UNL     1      -6.316 -10.569  19.653  0.00  0.00    +0.173 C 
ATOM      3  O   UNL     1      -6.895 -10.436  20.225  0.00  0.00    -0.291 OA
ENDBRANCH   4   2
ENDBRANCH   8   7
ENDBRANCH  11   9
ENDBRANCH  12  11
TORSDOF 6
ENDMDL
MODEL 6
REMARK VINA RESULT:      -6.6     15.894     16.563
REMARK  Name = 
REMARK  6 active torsions:
REMARK  status: ('A' for Active; 'I' for Inactive)
REMARK    1  A    between atoms: C_2  and  C_4
REMARK    2  A    between atoms: C_7  and  N_8
REMARK    3  A    between atoms: C_9  and  O_11
REMARK    4  A    between atoms: O_11  and  C_12
REMARK    5  A    between atoms: C_16  and  N_20
REMARK    6  A    between atoms: C_23  and  C_27
REMARK                            x       y       z     vdW  Elec       q    Type
REMARK                         _______ _______ _______ _____ _____    ______ ____
ROOT
ATOM     12  C   UNL     1      -7.598  -9.694  13.150  0.00  0.00    +0.229 C 
ATOM     13  C   UNL     1      -7.070 -10.242  13.469  0.00  0.00    +0.188 C 
ATOM     14  O   UNL     1      -7.378 -10.501  14.189  0.00  0.00    -0.348 OA
ATOM     15  C   UNL     1      -8.095 -10.114  14.315  0.00  0.00    +0.168 C 
ATOM     16  C   UNL     1      -8.729 -10.034  14.836  0.00  0.00    +0.155 C 
ATOM     17  C   UNL     1      -9.256  -9.486  14.517  0.00  0.00    +0.166 C 
ATOM     18  O   UNL     1      -8.948  -9.227  13.797  0.00  0.00    -0.348 OA
ATOM     19  C   UNL     1      -8.231  -9.615  13.672  0.00  0.00    +0.186 C 
ENDROOT
BRANCH  16  20
ATOM     20  N   UNL     1      -8.820 -10.433  15.553  0.00  0.00    -0.200 NA
ATOM     21  C   UNL     1      -8.943 -10.009  16.250  0.00  0.00    +0.236 A 
ATOM     22  N   UNL     1      -9.034 -10.407  16.966  0.00  0.00    -0.217 NA
ATOM     23  C   UNL     1      -9.157  -9.983  17.662  0.00  0.00    +0.063 A 
ATOM     24  C   UNL     1      -9.190  -9.159  17.642  0.00  0.00    +0.035 A 
ATOM     25  C   UNL     1      -9.100  -8.759  16.925  0.00  0.00    +0.103 A 
ATOM     26  N   UNL     1      -8.976  -9.185  16.229  0.00  0.00    -0.211 NA
BRANCH  23  27
ATOM     27  C   UNL     1      -9.248 -10.381  18.378  0.00  0.00    +0.036 C 
ATOM     28  C   UNL     1      -9.338 -10.780  19.095  0.00  0.00    +0.006 C 
ATOM     29  C   UNL     1     -10.059 -10.235  18.357  0.00  0.00    +0.006 C 
ATOM     30  C   UNL     1      -8.436 -10.527  18.399  0.00  0.00    +0.006 C 
ENDBRANCH  23  27
ENDBRANCH  16  20
BRANCH  12  11
ATOM     11  O   UNL     1      -7.507  -9.294  12.433  0.00  0.00    -0.432 OA
BRANCH  11   9
ATOM      8  N   UNL     1      -6.673  -9.333  11.274  0.00  0.00    -0.142 NA
ATOM      9  C   UNL     1      -6.761  -9.231  12.087  0.00  0.00    +0.425 C 
ATOM     10  O   UNL     1      -6.102  -9.066  12.556  0.00  0.00    -0.224 OA
BRANCH   8   7
ATOM      4  C   UNL     1      -4.434  -9.143  10.236  0.00  0.00    +0.035 A 
ATOM      5  C   UNL     1      -4.864  -8.462  10.417  0.00  0.00    +0.004 A 
ATOM      6  C   UNL     1      -5.610  -8.526  10.763  0.00  0.00    +0.017 A 
ATOM      7  C   UNL     1      -5.926  -9.270  10.928  0.00  0.00    +0.077 A 
ATOM     31  C   UNL     1      -5.496  -9.950  10.746  0.00  0.00    +0.017 A 
ATOM     32  C   UNL     1      -4.750  -9.887  10.400  0.00  0.00    +0.004 A 
BRANCH   4   2
ATOM      1  C   UNL     1      -3.015  -9.287  10.320  0.00  0.00    +0.077 C 
ATOM      2  C   UNL     1      -3.688  -9.079   9.890  0.00  0.00    +0.173 C 
ATOM      3  O   UNL     1      -3.614  -8.807   9.114  0.00  0.00    -0.291 OA
ENDBRANCH   4   2
ENDBRANCH   8   7
ENDBRANCH  11   9
ENDBRANCH  12  11
TORSDOF 6
ENDMDL
