MODEL 1
REMARK VINA RESULT:     -10.8      0.000      0.000
REMARK  Name = 
REMARK  5 active torsions:
REMARK  status: ('A' for Active; 'I' for Inactive)
REMARK    1  A    between atoms: C_4  and  C_13
REMARK    2  A    between atoms: N_5  and  C_6
REMARK    3  A    between atoms: C_6  and  C_7
REMARK    4  A    between atoms: C_15  and  C_18
REMARK    5  A    between atoms: C_22  and  N_24
REMARK                            x       y       z     vdW  Elec       q    Type
REMARK                         _______ _______ _______ _____ _____    ______ ____
ROOT
ATOM     13  C   UNL     1      -4.032   1.289  24.427  0.00  0.00    +0.251 A 
ATOM     14  N   UNL     1      -3.983   0.533  24.753  0.00  0.00    -0.190 NA
ATOM     15  C   UNL     1      -3.725   0.017  24.162  0.00  0.00    +0.203 A 
ATOM     16  N   UNL     1      -3.615   0.454  23.472  0.00  0.00    -0.056 NA
ATOM     17  O   UNL     1      -3.804   1.241  23.635  0.00  0.00    -0.336 OA
ENDROOT
BRANCH  13   4
ATOM      1  O   UNL     1      -5.653   3.255  25.819  0.00  0.00    -0.222 OA
ATOM      2  C   UNL     1      -5.012   2.877  25.462  0.00  0.00    +0.170 C 
ATOM      3  C   UNL     1      -5.026   2.134  25.105  0.00  0.00    +0.060 C 
ATOM      4  C   UNL     1      -4.267   1.973  24.823  0.00  0.00    +0.141 C 
ATOM      5  N   UNL     1      -3.785   2.617  25.006  0.00  0.00    -0.258 NA
ATOM     12  C   UNL     1      -4.246   3.176  25.402  0.00  0.00    +0.106 C 
BRANCH   5   6
ATOM      6  C   UNL     1      -2.984   2.690  24.826  0.00  0.00    +0.139 C 
BRANCH   6   7
ATOM      7  C   UNL     1      -2.552   3.331  25.116  0.00  0.00    +0.155 A 
ATOM      8  N   UNL     1      -2.482   4.070  24.757  0.00  0.00    -0.226 NA
ATOM      9  C   UNL     1      -2.002   4.541  25.235  0.00  0.00    +0.121 A 
ATOM     10  C   UNL     1      -1.774   4.092  25.889  0.00  0.00    +0.121 A 
ATOM     11  N   UNL     1      -2.114   3.344  25.814  0.00  0.00    -0.226 NA
ENDBRANCH   6   7
ENDBRANCH   5   6
ENDBRANCH  13   4
BRANCH  15  18
ATOM     18  C   UNL     1      -3.599  -0.795  24.248  0.00  0.00    +0.041 A 
ATOM     19  C   UNL     1      -4.229  -1.321  24.162  0.00  0.00    +0.003 A 
ATOM     20  C   UNL     1      -4.103  -2.131  24.247  0.00  0.00    +0.002 A 
ATOM     21  C   UNL     1      -3.348  -2.416  24.419  0.00  0.00    +0.024 A 
ATOM     22  C   UNL     1      -2.719  -1.890  24.505  0.00  0.00    +0.143 A 
ATOM     23  C   UNL     1      -2.844  -1.079  24.419  0.00  0.00    +0.027 A 
BRANCH  22  24
ATOM     24  N   UNL     1      -1.964  -2.174  24.676  0.00  0.00    +0.058 N 
ATOM     25  O   UNL     1      -1.571  -1.917  25.355  0.00  0.00    -0.126 OA
ATOM     26  O   UNL     1      -1.601  -2.715  24.170  0.00  0.00    -0.126 OA
ENDBRANCH  22  24
ENDBRANCH  15  18
TORSDOF 5
ENDMDL
MODEL 2
REMARK VINA RESULT:     -10.3      1.490      4.689
REMARK  Name = 
REMARK  5 active torsions:
REMARK  status: ('A' for Active; 'I' for Inactive)
REMARK    1  A    between atoms: C_4  and  C_13
REMARK    2  A    between atoms: N_5  and  C_6
REMARK    3  A    between atoms: C_6  and  C_7
REMARK    4  A    between atoms: C_15  and  C_18
REMARK    5  A    between atoms: C_22  and  N_24
REMARK                            x       y       z     vdW  Elec       q    Type
REMARK                         _______ _______ _______ _____ _____    ______ ____
ROOT
ATOM     13  C   UNL     1      -3.827  -0.146  24.307  0.00  0.00    +0.251 A 
ATOM     14  N   UNL     1      -4.212   0.308  24.878  0.00  0.00    -0.190 NA
ATOM     15  C   UNL     1      -4.342   1.060  24.563  0.00  0.00    +0.203 A 
ATOM     16  N   UNL     1      -4.038   1.070  23.796  0.00  0.00    -0.056 NA
ATOM     17  O   UNL     1      -3.720   0.325  23.638  0.00  0.00    -0.336 OA
ENDROOT
BRANCH  13   4
ATOM      1  O   UNL     1      -3.836  -3.049  24.272  0.00  0.00    -0.222 OA
ATOM      2  C   UNL     1      -3.595  -2.266  24.373  0.00  0.00    +0.170 C 
ATOM      3  C   UNL     1      -4.047  -1.596  24.206  0.00  0.00    +0.060 C 
ATOM      4  C   UNL     1      -3.592  -0.932  24.389  0.00  0.00    +0.141 C 
ATOM      5  N   UNL     1      -2.861  -1.192  24.669  0.00  0.00    -0.258 NA
ATOM     12  C   UNL     1      -2.863  -2.018  24.658  0.00  0.00    +0.106 C 
BRANCH   5   6
ATOM      6  C   UNL     1      -2.237  -0.713  24.915  0.00  0.00    +0.139 C 
BRANCH   6   7
ATOM      7  C   UNL     1      -1.471  -1.016  24.946  0.00  0.00    +0.155 A 
ATOM      8  N   UNL     1      -1.121  -1.384  25.597  0.00  0.00    -0.226 NA
ATOM      9  C   UNL     1      -0.353  -1.600  25.386  0.00  0.00    +0.121 A 
ATOM     10  C   UNL     1      -0.228  -1.367  24.604  0.00  0.00    +0.121 A 
ATOM     11  N   UNL     1      -0.919  -1.006  24.333  0.00  0.00    -0.226 NA
ENDBRANCH   6   7
ENDBRANCH   5   6
ENDBRANCH  13   4
BRANCH  15  18
ATOM     18  C   UNL     1      -4.712   1.690  24.947  0.00  0.00    +0.041 A 
ATOM     19  C   UNL     1      -5.481   1.605  25.231  0.00  0.00    +0.003 A 
ATOM     20  C   UNL     1      -5.850   2.235  25.615  0.00  0.00    +0.002 A 
ATOM     21  C   UNL     1      -5.450   2.950  25.714  0.00  0.00    +0.024 A 
ATOM     22  C   UNL     1      -4.680   3.034  25.429  0.00  0.00    +0.143 A 
ATOM     23  C   UNL     1      -4.311   2.404  25.045  0.00  0.00    +0.027 A 
BRANCH  22  24
ATOM     24  N   UNL     1      -4.280   3.749  25.528  0.00  0.00    +0.058 N 
ATOM     25  O   UNL     1      -3.785   3.857  26.180  0.00  0.00    -0.126 OA
ATOM     26  O   UNL     1      -4.373   4.354  24.976  0.00  0.00    -0.126 OA
ENDBRANCH  22  24
ENDBRANCH  15  18
TORSDOF 5
ENDMDL
MODEL 3
REMARK VINA RESULT:     -10.2      2.369      5.682
REMARK  Name = 
REMARK  5 active torsions:
REMARK  status: ('A' for Active; 'I' for Inactive)
REMARK    1  A    between atoms: C_4  and  C_13
REMARK    2  A    between atoms: N_5  and  C_6
REMARK    3  A    between atoms: C_6  and  C_7
REMARK    4  A    between atoms: C_15  and  C_18
REMARK    5  A    between atoms: C_22  and  N_24
REMARK                            x       y       z     vdW  Elec       q    Type
REMARK                         _______ _______ _______ _____ _____    ______ ____
ROOT
ATOM     13  C   UNL     1      -0.159   1.617  24.758  0.00  0.00    +0.251 A 
ATOM     14  N   UNL     1      -0.683   2.227  24.575  0.00  0.00    -0.190 NA
ATOM     15  C   UNL     1      -0.672   2.767  25.199  0.00  0.00    +0.203 A 
ATOM     16  N   UNL     1      -0.141   2.492  25.766  0.00  0.00    -0.056 NA
ATOM     17  O   UNL     1       0.177   1.780  25.494  0.00  0.00    -0.336 OA
ENDROOT
BRANCH  13   4
ATOM      1  O   UNL     1       0.946  -0.094  22.688  0.00  0.00    -0.222 OA
ATOM      2  C   UNL     1       0.510   0.172  23.336  0.00  0.00    +0.170 C 
ATOM      3  C   UNL     1       0.518   0.938  23.642  0.00  0.00    +0.060 C 
ATOM      4  C   UNL     1       0.003   0.959  24.287  0.00  0.00    +0.141 C 
ATOM      5  N   UNL     1      -0.322   0.206  24.378  0.00  0.00    -0.258 NA
ATOM     12  C   UNL     1      -0.008  -0.280  23.790  0.00  0.00    +0.106 C 
BRANCH   5   6
ATOM      6  C   UNL     1      -0.866  -0.021  24.955  0.00  0.00    +0.139 C 
BRANCH   6   7
ATOM      7  C   UNL     1      -1.226  -0.762  24.914  0.00  0.00    +0.155 A 
ATOM      8  N   UNL     1      -0.916  -1.469  25.205  0.00  0.00    -0.226 NA
ATOM      9  C   UNL     1      -1.458  -2.070  25.046  0.00  0.00    +0.121 A 
ATOM     10  C   UNL     1      -2.104  -1.735  24.657  0.00  0.00    +0.121 A 
ATOM     11  N   UNL     1      -1.960  -0.926  24.576  0.00  0.00    -0.226 NA
ENDBRANCH   6   7
ENDBRANCH   5   6
ENDBRANCH  13   4
BRANCH  15  18
ATOM     18  C   UNL     1      -1.115   3.462  25.246  0.00  0.00    +0.041 A 
ATOM     19  C   UNL     1      -0.783   4.180  25.010  0.00  0.00    +0.003 A 
ATOM     20  C   UNL     1      -1.226   4.874  25.058  0.00  0.00    +0.002 A 
ATOM     21  C   UNL     1      -2.001   4.851  25.341  0.00  0.00    +0.024 A 
ATOM     22  C   UNL     1      -2.333   4.133  25.576  0.00  0.00    +0.143 A 
ATOM     23  C   UNL     1      -1.890   3.439  25.529  0.00  0.00    +0.027 A 
BRANCH  22  24
ATOM     24  N   UNL     1      -3.107   4.110  25.860  0.00  0.00    +0.058 N 
ATOM     25  O   UNL     1      -3.260   4.263  26.656  0.00  0.00    -0.126 OA
ATOM     26  O   UNL     1      -3.729   3.933  25.347  0.00  0.00    -0.126 OA
ENDBRANCH  22  24
ENDBRANCH  15  18
TORSDOF 5
ENDMDL
MODEL 4
REMARK VINA RESULT:     -10.2      2.452      4.595
REMARK  Name = 
REMARK  5 active torsions:
REMARK  status: ('A' for Active; 'I' for Inactive)
REMARK    1  A    between atoms: C_4  and  C_13
REMARK    2  A    between atoms: N_5  and  C_6
REMARK    3  A    between atoms: C_6  and  C_7
REMARK    4  A    between atoms: C_15  and  C_18
REMARK    5  A    between atoms: C_22  and  N_24
REMARK                            x       y       z     vdW  Elec       q    Type
REMARK                         _______ _______ _______ _____ _____    ______ ____
ROOT
ATOM     13  C   UNL     1      -2.059   2.540  24.892  0.00  0.00    +0.251 A 
ATOM     14  N   UNL     1      -2.739   2.614  25.354  0.00  0.00    -0.190 NA
ATOM     15  C   UNL     1      -3.352   2.874  24.867  0.00  0.00    +0.203 A 
ATOM     16  N   UNL     1      -3.051   2.961  24.104  0.00  0.00    -0.056 NA
ATOM     17  O   UNL     1      -2.252   2.755  24.119  0.00  0.00    -0.336 OA
ENDROOT
BRANCH  13   4
ATOM      1  O   UNL     1       0.575   2.538  26.113  0.00  0.00    -0.222 OA
ATOM      2  C   UNL     1      -0.107   2.294  25.718  0.00  0.00    +0.170 C 
ATOM      3  C   UNL     1      -0.769   2.760  25.562  0.00  0.00    +0.060 C 
ATOM      4  C   UNL     1      -1.317   2.295  25.156  0.00  0.00    +0.141 C 
ATOM      5  N   UNL     1      -0.993   1.542  25.062  0.00  0.00    -0.258 NA
ATOM     12  C   UNL     1      -0.244   1.542  25.409  0.00  0.00    +0.106 C 
BRANCH   5   6
ATOM      6  C   UNL     1      -1.353   0.903  24.686  0.00  0.00    +0.139 C 
BRANCH   6   7
ATOM      7  C   UNL     1      -1.003   0.157  24.715  0.00  0.00    +0.155 A 
ATOM      8  N   UNL     1      -1.120  -0.411  25.302  0.00  0.00    -0.226 NA
ATOM      9  C   UNL     1      -0.664  -1.072  25.112  0.00  0.00    +0.121 A 
ATOM     10  C   UNL     1      -0.265  -0.913  24.407  0.00  0.00    +0.121 A 
ATOM     11  N   UNL     1      -0.475  -0.153  24.162  0.00  0.00    -0.226 NA
ENDBRANCH   6   7
ENDBRANCH   5   6
ENDBRANCH  13   4
BRANCH  15  18
ATOM     18  C   UNL     1      -4.129   3.021  25.101  0.00  0.00    +0.041 A 
ATOM     19  C   UNL     1      -4.360   3.786  25.308  0.00  0.00    +0.003 A 
ATOM     20  C   UNL     1      -5.137   3.932  25.542  0.00  0.00    +0.002 A 
ATOM     21  C   UNL     1      -5.683   3.315  25.571  0.00  0.00    +0.024 A 
ATOM     22  C   UNL     1      -5.453   2.550  25.364  0.00  0.00    +0.143 A 
ATOM     23  C   UNL     1      -4.675   2.403  25.130  0.00  0.00    +0.027 A 
BRANCH  22  24
ATOM     24  N   UNL     1      -5.998   1.932  25.392  0.00  0.00    +0.058 N 
ATOM     25  O   UNL     1      -6.165   1.562  26.111  0.00  0.00    -0.126 OA
ATOM     26  O   UNL     1      -6.377   1.685  24.703  0.00  0.00    -0.126 OA
ENDBRANCH  22  24
ENDBRANCH  15  18
TORSDOF 5
ENDMDL
MODEL 5
REMARK VINA RESULT:     -10.1      1.333      5.149
REMARK  Name = 
REMARK  5 active torsions:
REMARK  status: ('A' for Active; 'I' for Inactive)
REMARK    1  A    between atoms: C_4  and  C_13
REMARK    2  A    between atoms: N_5  and  C_6
REMARK    3  A    between atoms: C_6  and  C_7
REMARK    4  A    between atoms: C_15  and  C_18
REMARK    5  A    between atoms: C_22  and  N_24
REMARK                            x       y       z     vdW  Elec       q    Type
REMARK                         _______ _______ _______ _____ _____    ______ ____
ROOT
ATOM     13  C   UNL     1      -2.200   0.983  24.357  0.00  0.00    +0.251 A 
ATOM     14  N   UNL     1      -2.424   1.484  24.973  0.00  0.00    -0.190 NA
ATOM     15  C   UNL     1      -2.826   2.126  24.646  0.00  0.00    +0.203 A 
ATOM     16  N   UNL     1      -2.851   2.022  23.829  0.00  0.00    -0.056 NA
ATOM     17  O   UNL     1      -2.464   1.315  23.650  0.00  0.00    -0.336 OA
ENDROOT
BRANCH  13   4
ATOM      1  O   UNL     1      -0.037  -0.949  24.505  0.00  0.00    -0.222 OA
ATOM      2  C   UNL     1      -0.791  -0.614  24.503  0.00  0.00    +0.170 C 
ATOM      3  C   UNL     1      -0.965   0.185  24.397  0.00  0.00    +0.060 C 
ATOM      4  C   UNL     1      -1.785   0.274  24.435  0.00  0.00    +0.141 C 
ATOM      5  N   UNL     1      -2.116  -0.470  24.564  0.00  0.00    -0.258 NA
ATOM     12  C   UNL     1      -1.501  -1.019  24.606  0.00  0.00    +0.106 C 
BRANCH   5   6
ATOM      6  C   UNL     1      -2.920  -0.637  24.639  0.00  0.00    +0.139 C 
BRANCH   6   7
ATOM      7  C   UNL     1      -3.177  -1.419  24.685  0.00  0.00    +0.155 A 
ATOM      8  N   UNL     1      -3.413  -1.891  24.051  0.00  0.00    -0.226 NA
ATOM      9  C   UNL     1      -3.625  -2.631  24.347  0.00  0.00    +0.121 A 
ATOM     10  C   UNL     1      -3.520  -2.617  25.166  0.00  0.00    +0.121 A 
ATOM     11  N   UNL     1      -3.244  -1.868  25.374  0.00  0.00    -0.226 NA
ENDBRANCH   6   7
ENDBRANCH   5   6
ENDBRANCH  13   4
BRANCH  15  18
ATOM     18  C   UNL     1      -3.147   2.761  25.064  0.00  0.00    +0.041 A 
ATOM     19  C   UNL     1      -2.655   3.358  25.350  0.00  0.00    +0.003 A 
ATOM     20  C   UNL     1      -2.976   3.992  25.768  0.00  0.00    +0.002 A 
ATOM     21  C   UNL     1      -3.790   4.030  25.900  0.00  0.00    +0.024 A 
ATOM     22  C   UNL     1      -4.282   3.434  25.613  0.00  0.00    +0.143 A 
ATOM     23  C   UNL     1      -3.961   2.799  25.195  0.00  0.00    +0.027 A 
BRANCH  22  24
ATOM     24  N   UNL     1      -5.096   3.471  25.745  0.00  0.00    +0.058 N 
ATOM     25  O   UNL     1      -5.551   4.037  25.352  0.00  0.00    -0.126 OA
ATOM     26  O   UNL     1      -5.454   2.944  26.268  0.00  0.00    -0.126 OA
ENDBRANCH  22  24
ENDBRANCH  15  18
TORSDOF 5
ENDMDL
MODEL 6
REMARK VINA RESULT:      -9.9      1.920      2.630
REMARK  Name = 
REMARK  5 active torsions:
REMARK  status: ('A' for Active; 'I' for Inactive)
REMARK    1  A    between atoms: C_4  and  C_13
REMARK    2  A    between atoms: N_5  and  C_6
REMARK    3  A    between atoms: C_6  and  C_7
REMARK    4  A    between atoms: C_15  and  C_18
REMARK    5  A    between atoms: C_22  and  N_24
REMARK                            x       y       z     vdW  Elec       q    Type
REMARK                         _______ _______ _______ _____ _____    ______ ____
ROOT
ATOM     13  C   UNL     1      -1.363   1.352  24.835  0.00  0.00    +0.251 A 
ATOM     14  N   UNL     1      -2.015   0.908  25.078  0.00  0.00    -0.190 NA
ATOM     15  C   UNL     1      -2.289   0.481  24.427  0.00  0.00    +0.203 A 
ATOM     16  N   UNL     1      -1.806   0.660  23.783  0.00  0.00    -0.056 NA
ATOM     17  O   UNL     1      -1.234   1.198  24.035  0.00  0.00    -0.336 OA
ENDROOT
BRANCH  13   4
ATOM      1  O   UNL     1       0.543   2.345  26.787  0.00  0.00    -0.222 OA
ATOM      2  C   UNL     1      -0.043   2.316  26.207  0.00  0.00    +0.170 C 
ATOM      3  C   UNL     1      -0.347   1.632  25.860  0.00  0.00    +0.060 C 
ATOM      4  C   UNL     1      -0.919   1.859  25.310  0.00  0.00    +0.141 C 
ATOM      5  N   UNL     1      -0.968   2.683  25.318  0.00  0.00    -0.258 NA
ATOM     12  C   UNL     1      -0.426   2.965  25.873  0.00  0.00    +0.106 C 
BRANCH   5   6
ATOM      6  C   UNL     1      -1.470   3.143  24.854  0.00  0.00    +0.139 C 
BRANCH   6   7
ATOM      7  C   UNL     1      -1.517   3.957  24.979  0.00  0.00    +0.155 A 
ATOM      8  N   UNL     1      -0.975   4.520  24.715  0.00  0.00    -0.226 NA
ATOM      9  C   UNL     1      -1.236   5.263  24.963  0.00  0.00    +0.121 A 
ATOM     10  C   UNL     1      -1.941   5.158  25.380  0.00  0.00    +0.121 A 
ATOM     11  N   UNL     1      -2.113   4.351  25.390  0.00  0.00    -0.226 NA
ENDBRANCH   6   7
ENDBRANCH   5   6
ENDBRANCH  13   4
BRANCH  15  18
ATOM     18  C   UNL     1      -2.933  -0.035  24.421  0.00  0.00    +0.041 A 
ATOM     19  C   UNL     1      -3.681   0.240  24.210  0.00  0.00    +0.003 A 
ATOM     20  C   UNL     1      -4.324  -0.276  24.205  0.00  0.00    +0.002 A 
ATOM     21  C   UNL     1      -4.220  -1.068  24.411  0.00  0.00    +0.024 A 
ATOM     22  C   UNL     1      -3.472  -1.344  24.622  0.00  0.00    +0.143 A 
ATOM     23  C   UNL     1      -2.828  -0.827  24.628  0.00  0.00    +0.027 A 
BRANCH  22  24
ATOM     24  N   UNL     1      -3.367  -2.135  24.828  0.00  0.00    +0.058 N 
ATOM     25  O   UNL     1      -3.138  -2.684  24.255  0.00  0.00    -0.126 OA
ATOM     26  O   UNL     1      -3.490  -2.379  25.607  0.00  0.00    -0.126 OA
ENDBRANCH  22  24
ENDBRANCH  15  18
TORSDOF 5
ENDMDL
MODEL 7
REMARK VINA RESULT:      -9.9      1.777      4.349
REMARK  Name = 
REMARK  5 active torsions:
REMARK  status: ('A' for Active; 'I' for Inactive)
REMARK    1  A    between atoms: C_4  and  C_13
REMARK    2  A    between atoms: N_5  and  C_6
REMARK    3  A    between atoms: C_6  and  C_7
REMARK    4  A    between atoms: C_15  and  C_18
REMARK    5  A    between atoms: C_22  and  N_24
REMARK                            x       y       z     vdW  Elec       q    Type
REMARK                         _______ _______ _______ _____ _____    ______ ____
ROOT
ATOM     13  C   UNL     1      -3.674   2.336  24.488  0.00  0.00    +0.251 A 
ATOM     14  N   UNL     1      -3.064   2.551  25.000  0.00  0.00    -0.190 NA
ATOM     15  C   UNL     1      -2.518   2.999  24.572  0.00  0.00    +0.203 A 
ATOM     16  N   UNL     1      -2.791   3.059  23.796  0.00  0.00    -0.056 NA
ATOM     17  O   UNL     1      -3.506   2.650  23.744  0.00  0.00    -0.336 OA
ENDROOT
BRANCH  13   4
ATOM      1  O   UNL     1      -6.339   1.578  25.358  0.00  0.00    -0.222 OA
ATOM      2  C   UNL     1      -5.561   1.537  25.086  0.00  0.00    +0.170 C 
ATOM      3  C   UNL     1      -5.059   2.179  24.957  0.00  0.00    +0.060 C 
ATOM      4  C   UNL     1      -4.337   1.886  24.686  0.00  0.00    +0.141 C 
ATOM      5  N   UNL     1      -4.394   1.064  24.647  0.00  0.00    -0.258 NA
ATOM     12  C   UNL     1      -5.151   0.848  24.894  0.00  0.00    +0.106 C 
BRANCH   5   6
ATOM      6  C   UNL     1      -3.798   0.547  24.404  0.00  0.00    +0.139 C 
BRANCH   6   7
ATOM      7  C   UNL     1      -3.902  -0.267  24.481  0.00  0.00    +0.155 A 
ATOM      8  N   UNL     1      -3.731  -0.717  25.151  0.00  0.00    -0.226 NA
ATOM      9  C   UNL     1      -3.918  -1.503  24.986  0.00  0.00    +0.121 A 
ATOM     10  C   UNL     1      -4.205  -1.540  24.213  0.00  0.00    +0.121 A 
ATOM     11  N   UNL     1      -4.195  -0.776  23.901  0.00  0.00    -0.226 NA
ENDBRANCH   6   7
ENDBRANCH   5   6
ENDBRANCH  13   4
BRANCH  15  18
ATOM     18  C   UNL     1      -1.822   3.327  24.868  0.00  0.00    +0.041 A 
ATOM     19  C   UNL     1      -1.721   4.146  24.873  0.00  0.00    +0.003 A 
ATOM     20  C   UNL     1      -1.025   4.474  25.169  0.00  0.00    +0.002 A 
ATOM     21  C   UNL     1      -0.429   3.984  25.461  0.00  0.00    +0.024 A 
ATOM     22  C   UNL     1      -0.529   3.165  25.456  0.00  0.00    +0.143 A 
ATOM     23  C   UNL     1      -1.226   2.837  25.160  0.00  0.00    +0.027 A 
BRANCH  22  24
ATOM     24  N   UNL     1       0.066   2.675  25.747  0.00  0.00    +0.058 N 
ATOM     25  O   UNL     1       0.549   2.257  25.224  0.00  0.00    -0.126 OA
ATOM     26  O   UNL     1       0.180   2.601  26.561  0.00  0.00    -0.126 OA
ENDBRANCH  22  24
ENDBRANCH  15  18
TORSDOF 5
ENDMDL
MODEL 8
REMARK VINA RESULT:      -9.8      1.826      4.781
REMARK  Name = 
REMARK  5 active torsions:
REMARK  status: ('A' for Active; 'I' for Inactive)
REMARK    1  A    between atoms: C_4  and  C_13
REMARK    2  A    between atoms: N_5  and  C_6
REMARK    3  A    between atoms: C_6  and  C_7
REMARK    4  A    between atoms: C_15  and  C_18
REMARK    5  A    between atoms: C_22  and  N_24
REMARK                            x       y       z     vdW  Elec       q    Type
REMARK                         _______ _______ _______ _____ _____    ______ ____
ROOT
ATOM     13  C   UNL     1      -3.237   1.143  24.235  0.00  0.00    +0.251 A 
ATOM     14  N   UNL     1      -3.113   1.665  24.862  0.00  0.00    -0.190 NA
ATOM     15  C   UNL     1      -3.062   2.429  24.552  0.00  0.00    +0.203 A 
ATOM     16  N   UNL     1      -3.153   2.378  23.734  0.00  0.00    -0.056 NA
ATOM     17  O   UNL     1      -3.261   1.584  23.538  0.00  0.00    -0.336 OA
ENDROOT
BRANCH  13   4
ATOM      1  O   UNL     1      -4.375  -1.527  24.178  0.00  0.00    -0.222 OA
ATOM      2  C   UNL     1      -3.844  -0.902  24.268  0.00  0.00    +0.170 C 
ATOM      3  C   UNL     1      -4.008  -0.104  24.139  0.00  0.00    +0.060 C 
ATOM      4  C   UNL     1      -3.321   0.325  24.295  0.00  0.00    +0.141 C 
ATOM      5  N   UNL     1      -2.733  -0.208  24.521  0.00  0.00    -0.258 NA
ATOM     12  C   UNL     1      -3.057  -0.967  24.504  0.00  0.00    +0.106 C 
BRANCH   5   6
ATOM      6  C   UNL     1      -1.958  -0.016  24.727  0.00  0.00    +0.139 C 
BRANCH   6   7
ATOM      7  C   UNL     1      -1.400  -0.613  24.835  0.00  0.00    +0.155 A 
ATOM      8  N   UNL     1      -1.258  -1.025  25.535  0.00  0.00    -0.226 NA
ATOM      9  C   UNL     1      -0.656  -1.571  25.394  0.00  0.00    +0.121 A 
ATOM     10  C   UNL     1      -0.424  -1.496  24.605  0.00  0.00    +0.121 A 
ATOM     11  N   UNL     1      -0.884  -0.905  24.260  0.00  0.00    -0.226 NA
ENDBRANCH   6   7
ENDBRANCH   5   6
ENDBRANCH  13   4
BRANCH  15  18
ATOM     18  C   UNL     1      -2.940   3.121  24.985  0.00  0.00    +0.041 A 
ATOM     19  C   UNL     1      -3.522   3.391  25.504  0.00  0.00    +0.003 A 
ATOM     20  C   UNL     1      -3.400   4.082  25.936  0.00  0.00    +0.002 A 
ATOM     21  C   UNL     1      -2.696   4.504  25.850  0.00  0.00    +0.024 A 
ATOM     22  C   UNL     1      -2.114   4.234  25.332  0.00  0.00    +0.143 A 
ATOM     23  C   UNL     1      -2.236   3.542  24.899  0.00  0.00    +0.027 A 
BRANCH  22  24
ATOM     24  N   UNL     1      -1.410   4.655  25.246  0.00  0.00    +0.058 N 
ATOM     25  O   UNL     1      -0.686   4.267  25.321  0.00  0.00    -0.126 OA
ATOM     26  O   UNL     1      -1.430   5.464  25.084  0.00  0.00    -0.126 OA
ENDBRANCH  22  24
ENDBRANCH  15  18
TORSDOF 5
ENDMDL
