MODEL 1
REMARK VINA RESULT:     -11.7      0.000      0.000
REMARK  Name = 
REMARK  5 active torsions:
REMARK  status: ('A' for Active; 'I' for Inactive)
REMARK    1  A    between atoms: C_2  and  O_5
REMARK    2  A    between atoms: O_5  and  C_6
REMARK    3  A    between atoms: C_8  and  C_9
REMARK    4  A    between atoms: C_9  and  N_10
REMARK    5  A    between atoms: N_16  and  C_17
REMARK                            x       y       z     vdW  Elec       q    Type
REMARK                         _______ _______ _______ _____ _____    ______ ____
ROOT
ATOM     10  N   UNL     1      -3.971   0.639  25.065  0.00  0.00    -0.266 NA
ATOM     11  C   UNL     1      -4.416   1.045  24.502  0.00  0.00    +0.094 C 
ATOM     12  C   UNL     1      -4.171   1.788  24.241  0.00  0.00    +0.112 C 
ATOM     13  N   UNL     1      -3.481   2.125  24.544  0.00  0.00    -0.261 N 
ATOM     14  C   UNL     1      -3.036   1.719  25.107  0.00  0.00    +0.113 C 
ATOM     15  C   UNL     1      -2.386   2.186  25.305  0.00  0.00    +0.116 C 
ATOM     16  N   UNL     1      -2.428   2.881  24.863  0.00  0.00    -0.264 N 
ATOM     23  C   UNL     1      -3.105   2.843  24.393  0.00  0.00    +0.307 C 
ATOM     24  O   UNL     1      -3.361   3.423  23.864  0.00  0.00    -0.252 OA
ATOM     25  C   UNL     1      -3.282   0.975  25.369  0.00  0.00    +0.094 C 
ENDROOT
BRANCH  16  17
ATOM     17  C   UNL     1      -1.889   3.504  24.887  0.00  0.00    +0.082 C 
ATOM     18  C   UNL     1      -2.098   4.219  25.245  0.00  0.00    +0.052 C 
ATOM     19  C   UNL     1      -1.558   4.842  25.269  0.00  0.00    +0.144 C 
ATOM     20  O   UNL     1      -0.809   4.751  24.936  0.00  0.00    -0.354 OA
ATOM     21  C   UNL     1      -0.599   4.039  24.579  0.00  0.00    +0.144 C 
ATOM     22  C   UNL     1      -1.139   3.415  24.554  0.00  0.00    +0.052 C 
ENDBRANCH  16  17
BRANCH  10   9
ATOM      9  C   UNL     1      -4.217  -0.105  25.327  0.00  0.00    +0.099 C 
BRANCH   9   8
ATOM      6  C   UNL     1      -3.111  -1.892  24.736  0.00  0.00    +0.147 A 
ATOM      7  C   UNL     1      -3.334  -1.215  25.152  0.00  0.00    +0.034 A 
ATOM      8  C   UNL     1      -3.993  -0.782  24.911  0.00  0.00    -0.003 A 
ATOM     26  C   UNL     1      -4.429  -1.025  24.254  0.00  0.00    -0.003 A 
ATOM     27  C   UNL     1      -4.205  -1.701  23.838  0.00  0.00    +0.003 A 
ATOM     28  C   UNL     1      -3.546  -2.135  24.080  0.00  0.00    +0.037 A 
BRANCH   6   5
ATOM      5  O   UNL     1      -2.452  -2.326  24.977  0.00  0.00    -0.404 OA
BRANCH   5   2
ATOM      1  F   UNL     1      -1.044  -2.233  24.122  0.00  0.00    -0.133 F 
ATOM      2  C   UNL     1      -1.748  -2.280  24.549  0.00  0.00    +0.575 C 
ATOM      3  F   UNL     1      -1.489  -1.669  25.041  0.00  0.00    -0.133 F 
ATOM      4  F   UNL     1      -2.006  -2.889  24.058  0.00  0.00    -0.133 F 
ENDBRANCH   5   2
ENDBRANCH   6   5
ENDBRANCH   9   8
ENDBRANCH  10   9
TORSDOF 5
ENDMDL
MODEL 2
REMARK VINA RESULT:     -11.7      2.424      5.323
REMARK  Name = 
REMARK  5 active torsions:
REMARK  status: ('A' for Active; 'I' for Inactive)
REMARK    1  A    between atoms: C_2  and  O_5
REMARK    2  A    between atoms: O_5  and  C_6
REMARK    3  A    between atoms: C_8  and  C_9
REMARK    4  A    between atoms: C_9  and  N_10
REMARK    5  A    between atoms: N_16  and  C_17
REMARK                            x       y       z     vdW  Elec       q    Type
REMARK                         _______ _______ _______ _____ _____    ______ ____
ROOT
ATOM     10  N   UNL     1      -3.798   2.407  24.340  0.00  0.00    -0.266 NA
ATOM     11  C   UNL     1      -4.576   2.324  24.603  0.00  0.00    +0.094 C 
ATOM     12  C   UNL     1      -4.886   1.572  24.739  0.00  0.00    +0.112 C 
ATOM     13  N   UNL     1      -4.419   0.903  24.614  0.00  0.00    -0.261 N 
ATOM     14  C   UNL     1      -3.642   0.987  24.351  0.00  0.00    +0.113 C 
ATOM     15  C   UNL     1      -3.316   0.233  24.276  0.00  0.00    +0.116 C 
ATOM     16  N   UNL     1      -3.892  -0.316  24.492  0.00  0.00    -0.264 N 
ATOM     23  C   UNL     1      -4.573   0.098  24.700  0.00  0.00    +0.307 C 
ATOM     24  O   UNL     1      -5.285  -0.235  24.952  0.00  0.00    -0.252 OA
ATOM     25  C   UNL     1      -3.331   1.739  24.214  0.00  0.00    +0.094 C 
ENDROOT
BRANCH  16  17
ATOM     17  C   UNL     1      -3.801  -1.136  24.498  0.00  0.00    +0.082 C 
ATOM     18  C   UNL     1      -3.420  -1.505  25.130  0.00  0.00    +0.052 C 
ATOM     19  C   UNL     1      -3.330  -2.325  25.137  0.00  0.00    +0.144 C 
ATOM     20  O   UNL     1      -3.621  -2.776  24.510  0.00  0.00    -0.354 OA
ATOM     21  C   UNL     1      -4.002  -2.408  23.878  0.00  0.00    +0.144 C 
ATOM     22  C   UNL     1      -4.092  -1.588  23.872  0.00  0.00    +0.052 C 
ENDBRANCH  16  17
BRANCH  10   9
ATOM      9  C   UNL     1      -3.487   3.160  24.204  0.00  0.00    +0.099 C 
BRANCH   9   8
ATOM      6  C   UNL     1      -1.897   4.068  25.392  0.00  0.00    +0.147 A 
ATOM      7  C   UNL     1      -2.282   3.665  24.784  0.00  0.00    +0.034 A 
ATOM      8  C   UNL     1      -3.100   3.562  24.811  0.00  0.00    -0.003 A 
ATOM     26  C   UNL     1      -3.533   3.862  25.448  0.00  0.00    -0.003 A 
ATOM     27  C   UNL     1      -3.147   4.264  26.055  0.00  0.00    +0.003 A 
ATOM     28  C   UNL     1      -2.329   4.367  26.028  0.00  0.00    +0.037 A 
BRANCH   6   5
ATOM      5  O   UNL     1      -1.079   4.171  25.365  0.00  0.00    -0.404 OA
BRANCH   5   2
ATOM      1  F   UNL     1      -0.424   5.323  24.381  0.00  0.00    -0.133 F 
ATOM      2  C   UNL     1      -0.752   4.748  24.874  0.00  0.00    +0.575 C 
ATOM      3  F   UNL     1      -0.495   4.159  24.355  0.00  0.00    -0.133 F 
ATOM      4  F   UNL     1      -1.008   5.336  25.392  0.00  0.00    -0.133 F 
ENDBRANCH   5   2
ENDBRANCH   6   5
ENDBRANCH   9   8
ENDBRANCH  10   9
TORSDOF 5
ENDMDL
MODEL 3
REMARK VINA RESULT:     -11.4      1.707      2.039
REMARK  Name = 
REMARK  5 active torsions:
REMARK  status: ('A' for Active; 'I' for Inactive)
REMARK    1  A    between atoms: C_2  and  O_5
REMARK    2  A    between atoms: O_5  and  C_6
REMARK    3  A    between atoms: C_8  and  C_9
REMARK    4  A    between atoms: C_9  and  N_10
REMARK    5  A    between atoms: N_16  and  C_17
REMARK                            x       y       z     vdW  Elec       q    Type
REMARK                         _______ _______ _______ _____ _____    ______ ____
ROOT
ATOM     10  N   UNL     1      -1.325   0.135  25.008  0.00  0.00    -0.266 NA
ATOM     11  C   UNL     1      -1.234   0.238  24.195  0.00  0.00    +0.094 C 
ATOM     12  C   UNL     1      -1.212   0.997  23.875  0.00  0.00    +0.112 C 
ATOM     13  N   UNL     1      -1.282   1.655  24.368  0.00  0.00    -0.261 N 
ATOM     14  C   UNL     1      -1.373   1.553  25.181  0.00  0.00    +0.113 C 
ATOM     15  C   UNL     1      -1.428   2.299  25.527  0.00  0.00    +0.116 C 
ATOM     16  N   UNL     1      -1.370   2.863  24.928  0.00  0.00    -0.264 N 
ATOM     23  C   UNL     1      -1.280   2.465  24.212  0.00  0.00    +0.307 C 
ATOM     24  O   UNL     1      -1.202   2.815  23.469  0.00  0.00    -0.252 OA
ATOM     25  C   UNL     1      -1.395   0.792  25.502  0.00  0.00    +0.094 C 
ENDROOT
BRANCH  16  17
ATOM     17  C   UNL     1      -1.398   3.681  25.028  0.00  0.00    +0.082 C 
ATOM     18  C   UNL     1      -2.103   4.046  25.254  0.00  0.00    +0.052 C 
ATOM     19  C   UNL     1      -2.131   4.865  25.354  0.00  0.00    +0.144 C 
ATOM     20  O   UNL     1      -1.454   5.318  25.228  0.00  0.00    -0.354 OA
ATOM     21  C   UNL     1      -0.749   4.955  25.002  0.00  0.00    +0.144 C 
ATOM     22  C   UNL     1      -0.721   4.136  24.902  0.00  0.00    +0.052 C 
ENDBRANCH  16  17
BRANCH  10   9
ATOM      9  C   UNL     1      -1.347  -0.625  25.329  0.00  0.00    +0.099 C 
BRANCH   9   8
ATOM      6  C   UNL     1      -2.973  -1.964  24.756  0.00  0.00    +0.147 A 
ATOM      7  C   UNL     1      -2.261  -1.548  24.732  0.00  0.00    +0.034 A 
ATOM      8  C   UNL     1      -2.058  -1.042  25.352  0.00  0.00    -0.003 A 
ATOM     26  C   UNL     1      -2.568  -0.954  25.996  0.00  0.00    -0.003 A 
ATOM     27  C   UNL     1      -3.279  -1.371  26.018  0.00  0.00    +0.003 A 
ATOM     28  C   UNL     1      -3.481  -1.876  25.399  0.00  0.00    +0.037 A 
BRANCH   6   5
ATOM      5  O   UNL     1      -3.175  -2.470  24.136  0.00  0.00    -0.404 OA
BRANCH   5   2
ATOM      1  F   UNL     1      -4.746  -2.587  23.645  0.00  0.00    -0.133 F 
ATOM      2  C   UNL     1      -3.961  -2.528  23.891  0.00  0.00    +0.575 C 
ATOM      3  F   UNL     1      -4.040  -3.233  24.313  0.00  0.00    -0.133 F 
ATOM      4  F   UNL     1      -3.882  -1.824  23.469  0.00  0.00    -0.133 F 
ENDBRANCH   5   2
ENDBRANCH   6   5
ENDBRANCH   9   8
ENDBRANCH  10   9
TORSDOF 5
ENDMDL
MODEL 4
REMARK VINA RESULT:     -11.0      2.496      5.357
REMARK  Name = 
REMARK  5 active torsions:
REMARK  status: ('A' for Active; 'I' for Inactive)
REMARK    1  A    between atoms: C_2  and  O_5
REMARK    2  A    between atoms: O_5  and  C_6
REMARK    3  A    between atoms: C_8  and  C_9
REMARK    4  A    between atoms: C_9  and  N_10
REMARK    5  A    between atoms: N_16  and  C_17
REMARK                            x       y       z     vdW  Elec       q    Type
REMARK                         _______ _______ _______ _____ _____    ______ ____
ROOT
ATOM     10  N   UNL     1      -1.708   1.935  24.821  0.00  0.00    -0.266 NA
ATOM     11  C   UNL     1      -1.137   1.710  25.373  0.00  0.00    +0.094 C 
ATOM     12  C   UNL     1      -1.064   0.918  25.591  0.00  0.00    +0.112 C 
ATOM     13  N   UNL     1      -1.561   0.350  25.257  0.00  0.00    -0.261 N 
ATOM     14  C   UNL     1      -2.131   0.575  24.705  0.00  0.00    +0.113 C 
ATOM     15  C   UNL     1      -2.540  -0.102  24.470  0.00  0.00    +0.116 C 
ATOM     16  N   UNL     1      -2.222  -0.745  24.877  0.00  0.00    -0.264 N 
ATOM     23  C   UNL     1      -1.618  -0.465  25.363  0.00  0.00    +0.307 C 
ATOM     24  O   UNL     1      -1.151  -0.922  25.867  0.00  0.00    -0.252 OA
ATOM     25  C   UNL     1      -2.205   1.368  24.487  0.00  0.00    +0.094 C 
ENDROOT
BRANCH  16  17
ATOM     17  C   UNL     1      -2.467  -1.530  24.810  0.00  0.00    +0.082 C 
ATOM     18  C   UNL     1      -3.180  -1.771  25.149  0.00  0.00    +0.052 C 
ATOM     19  C   UNL     1      -3.424  -2.556  25.082  0.00  0.00    +0.144 C 
ATOM     20  O   UNL     1      -2.956  -3.100  24.675  0.00  0.00    -0.354 OA
ATOM     21  C   UNL     1      -2.244  -2.860  24.336  0.00  0.00    +0.144 C 
ATOM     22  C   UNL     1      -2.000  -2.075  24.403  0.00  0.00    +0.052 C 
ENDBRANCH  16  17
BRANCH  10   9
ATOM      9  C   UNL     1      -1.781   2.728  24.603  0.00  0.00    +0.099 C 
BRANCH   9   8
ATOM      6  C   UNL     1      -3.605   3.783  25.172  0.00  0.00    +0.147 A 
ATOM      7  C   UNL     1      -3.085   3.290  24.763  0.00  0.00    +0.034 A 
ATOM      8  C   UNL     1      -2.302   3.220  25.011  0.00  0.00    -0.003 A 
ATOM     26  C   UNL     1      -2.038   3.644  25.669  0.00  0.00    -0.003 A 
ATOM     27  C   UNL     1      -2.558   4.136  26.078  0.00  0.00    +0.003 A 
ATOM     28  C   UNL     1      -3.342   4.206  25.829  0.00  0.00    +0.037 A 
BRANCH   6   5
ATOM      5  O   UNL     1      -4.388   3.853  24.924  0.00  0.00    -0.404 OA
BRANCH   5   2
ATOM      1  F   UNL     1      -5.603   3.191  25.823  0.00  0.00    -0.133 F 
ATOM      2  C   UNL     1      -4.995   3.522  25.373  0.00  0.00    +0.575 C 
ATOM      3  F   UNL     1      -5.060   4.223  25.803  0.00  0.00    -0.133 F 
ATOM      4  F   UNL     1      -4.932   2.821  24.943  0.00  0.00    -0.133 F 
ENDBRANCH   5   2
ENDBRANCH   6   5
ENDBRANCH   9   8
ENDBRANCH  10   9
TORSDOF 5
ENDMDL
MODEL 5
REMARK VINA RESULT:      -8.4     15.933     18.522
REMARK  Name = 
REMARK  5 active torsions:
REMARK  status: ('A' for Active; 'I' for Inactive)
REMARK    1  A    between atoms: C_2  and  O_5
REMARK    2  A    between atoms: O_5  and  C_6
REMARK    3  A    between atoms: C_8  and  C_9
REMARK    4  A    between atoms: C_9  and  N_10
REMARK    5  A    between atoms: N_16  and  C_17
REMARK                            x       y       z     vdW  Elec       q    Type
REMARK                         _______ _______ _______ _____ _____    ______ ____
ROOT
ATOM     10  N   UNL     1      12.887   8.303  19.354  0.00  0.00    -0.266 NA
ATOM     11  C   UNL     1      13.347   8.987  19.363  0.00  0.00    +0.094 C 
ATOM     12  C   UNL     1      14.169   8.930  19.391  0.00  0.00    +0.112 C 
ATOM     13  N   UNL     1      14.532   8.189  19.410  0.00  0.00    -0.261 N 
ATOM     14  C   UNL     1      14.071   7.505  19.400  0.00  0.00    +0.113 C 
ATOM     15  C   UNL     1      14.579   6.856  19.422  0.00  0.00    +0.116 C 
ATOM     16  N   UNL     1      15.353   7.138  19.446  0.00  0.00    -0.264 N 
ATOM     23  C   UNL     1      15.324   7.962  19.438  0.00  0.00    +0.307 C 
ATOM     24  O   UNL     1      15.973   8.471  19.456  0.00  0.00    -0.252 OA
ATOM     25  C   UNL     1      13.248   7.561  19.372  0.00  0.00    +0.094 C 
ENDROOT
BRANCH  16  17
ATOM     17  C   UNL     1      16.037   6.678  19.473  0.00  0.00    +0.082 C 
ATOM     18  C   UNL     1      16.465   6.614  20.176  0.00  0.00    +0.052 C 
ATOM     19  C   UNL     1      17.149   6.154  20.203  0.00  0.00    +0.144 C 
ATOM     20  O   UNL     1      17.405   5.757  19.526  0.00  0.00    -0.354 OA
ATOM     21  C   UNL     1      16.978   5.820  18.824  0.00  0.00    +0.144 C 
ATOM     22  C   UNL     1      16.294   6.281  18.797  0.00  0.00    +0.052 C 
ENDBRANCH  16  17
BRANCH  10   9
ATOM      9  C   UNL     1      12.063   8.359  19.326  0.00  0.00    +0.099 C 
BRANCH   9   8
ATOM      6  C   UNL     1      10.854   7.691  21.016  0.00  0.00    +0.147 A 
ATOM      7  C   UNL     1      11.290   7.677  20.315  0.00  0.00    +0.034 A 
ATOM      8  C   UNL     1      11.627   8.372  20.026  0.00  0.00    -0.003 A 
ATOM     26  C   UNL     1      11.529   9.081  20.437  0.00  0.00    -0.003 A 
ATOM     27  C   UNL     1      11.093   9.094  21.137  0.00  0.00    +0.003 A 
ATOM     28  C   UNL     1      10.756   8.399  21.426  0.00  0.00    +0.037 A 
BRANCH   6   5
ATOM      5  O   UNL     1      10.517   6.996  21.305  0.00  0.00    -0.404 OA
BRANCH   5   2
ATOM      1  F   UNL     1      11.461   5.870  22.056  0.00  0.00    -0.133 F 
ATOM      2  C   UNL     1      10.989   6.433  21.681  0.00  0.00    +0.575 C 
ATOM      3  F   UNL     1      11.013   5.989  20.985  0.00  0.00    -0.133 F 
ATOM      4  F   UNL     1      10.966   6.876  22.376  0.00  0.00    -0.133 F 
ENDBRANCH   5   2
ENDBRANCH   6   5
ENDBRANCH   9   8
ENDBRANCH  10   9
TORSDOF 5
ENDMDL
MODEL 6
REMARK VINA RESULT:      -8.1     17.691     18.969
REMARK  Name = 
REMARK  5 active torsions:
REMARK  status: ('A' for Active; 'I' for Inactive)
REMARK    1  A    between atoms: C_2  and  O_5
REMARK    2  A    between atoms: O_5  and  C_6
REMARK    3  A    between atoms: C_8  and  C_9
REMARK    4  A    between atoms: C_9  and  N_10
REMARK    5  A    between atoms: N_16  and  C_17
REMARK                            x       y       z     vdW  Elec       q    Type
REMARK                         _______ _______ _______ _____ _____    ______ ____
ROOT
ATOM     10  N   UNL     1      13.356   6.928  19.918  0.00  0.00    -0.266 NA
ATOM     11  C   UNL     1      12.762   7.286  20.365  0.00  0.00    +0.094 C 
ATOM     12  C   UNL     1      12.170   7.721  19.991  0.00  0.00    +0.112 C 
ATOM     13  N   UNL     1      12.170   7.798  19.169  0.00  0.00    -0.261 N 
ATOM     14  C   UNL     1      12.764   7.440  18.722  0.00  0.00    +0.113 C 
ATOM     15  C   UNL     1      12.623   7.610  17.928  0.00  0.00    +0.116 C 
ATOM     16  N   UNL     1      11.942   8.073  17.883  0.00  0.00    -0.264 N 
ATOM     23  C   UNL     1      11.663   8.189  18.650  0.00  0.00    +0.307 C 
ATOM     24  O   UNL     1      10.992   8.621  18.863  0.00  0.00    -0.252 OA
ATOM     25  C   UNL     1      13.357   7.005  19.096  0.00  0.00    +0.094 C 
ENDROOT
BRANCH  16  17
ATOM     17  C   UNL     1      11.600   8.368  17.193  0.00  0.00    +0.082 C 
ATOM     18  C   UNL     1      10.799   8.238  17.040  0.00  0.00    +0.052 C 
ATOM     19  C   UNL     1      10.458   8.533  16.349  0.00  0.00    +0.144 C 
ATOM     20  O   UNL     1      10.917   8.959  15.812  0.00  0.00    -0.354 OA
ATOM     21  C   UNL     1      11.716   9.090  15.964  0.00  0.00    +0.144 C 
ATOM     22  C   UNL     1      12.058   8.794  16.655  0.00  0.00    +0.052 C 
ENDBRANCH  16  17
BRANCH  10   9
ATOM      9  C   UNL     1      13.949   6.493  20.292  0.00  0.00    +0.099 C 
BRANCH   9   8
ATOM      6  C   UNL     1      16.038   7.064  20.020  0.00  0.00    +0.147 A 
ATOM      7  C   UNL     1      15.300   6.722  19.884  0.00  0.00    +0.034 A 
ATOM      8  C   UNL     1      14.688   6.835  20.426  0.00  0.00    -0.003 A 
ATOM     26  C   UNL     1      14.815   7.289  21.104  0.00  0.00    -0.003 A 
ATOM     27  C   UNL     1      15.554   7.631  21.238  0.00  0.00    +0.003 A 
ATOM     28  C   UNL     1      16.165   7.518  20.696  0.00  0.00    +0.037 A 
BRANCH   6   5
ATOM      5  O   UNL     1      16.650   6.952  19.477  0.00  0.00    -0.404 OA
BRANCH   5   2
ATOM      1  F   UNL     1      17.377   5.477  19.346  0.00  0.00    -0.133 F 
ATOM      2  C   UNL     1      17.014   6.215  19.412  0.00  0.00    +0.575 C 
ATOM      3  F   UNL     1      16.623   6.085  18.697  0.00  0.00    -0.133 F 
ATOM      4  F   UNL     1      17.405   6.344  20.127  0.00  0.00    -0.133 F 
ENDBRANCH   5   2
ENDBRANCH   6   5
ENDBRANCH   9   8
ENDBRANCH  10   9
TORSDOF 5
ENDMDL
MODEL 7
REMARK VINA RESULT:      -8.0     16.361     18.963
REMARK  Name = 
REMARK  5 active torsions:
REMARK  status: ('A' for Active; 'I' for Inactive)
REMARK    1  A    between atoms: C_2  and  O_5
REMARK    2  A    between atoms: O_5  and  C_6
REMARK    3  A    between atoms: C_8  and  C_9
REMARK    4  A    between atoms: C_9  and  N_10
REMARK    5  A    between atoms: N_16  and  C_17
REMARK                            x       y       z     vdW  Elec       q    Type
REMARK                         _______ _______ _______ _____ _____    ______ ____
ROOT
ATOM     10  N   UNL     1      14.562   7.940  19.985  0.00  0.00    -0.266 NA
ATOM     11  C   UNL     1      14.236   7.677  19.274  0.00  0.00    +0.094 C 
ATOM     12  C   UNL     1      13.477   7.354  19.264  0.00  0.00    +0.112 C 
ATOM     13  N   UNL     1      13.045   7.292  19.964  0.00  0.00    -0.261 N 
ATOM     14  C   UNL     1      13.372   7.555  20.675  0.00  0.00    +0.113 C 
ATOM     15  C   UNL     1      12.819   7.425  21.273  0.00  0.00    +0.116 C 
ATOM     16  N   UNL     1      12.151   7.082  20.933  0.00  0.00    -0.264 N 
ATOM     23  C   UNL     1      12.291   7.000  20.124  0.00  0.00    +0.307 C 
ATOM     24  O   UNL     1      11.767   6.682  19.571  0.00  0.00    -0.252 OA
ATOM     25  C   UNL     1      14.131   7.879  20.685  0.00  0.00    +0.094 C 
ENDROOT
BRANCH  16  17
ATOM     17  C   UNL     1      11.463   6.859  21.331  0.00  0.00    +0.082 C 
ATOM     18  C   UNL     1      10.915   7.433  21.559  0.00  0.00    +0.052 C 
ATOM     19  C   UNL     1      10.227   7.210  21.958  0.00  0.00    +0.144 C 
ATOM     20  O   UNL     1      10.089   6.415  22.128  0.00  0.00    -0.354 OA
ATOM     21  C   UNL     1      10.636   5.842  21.900  0.00  0.00    +0.144 C 
ATOM     22  C   UNL     1      11.324   6.065  21.501  0.00  0.00    +0.052 C 
ENDBRANCH  16  17
BRANCH  10   9
ATOM      9  C   UNL     1      15.322   8.264  19.995  0.00  0.00    +0.099 C 
BRANCH   9   8
ATOM      6  C   UNL     1      17.009   6.891  19.807  0.00  0.00    +0.147 A 
ATOM      7  C   UNL     1      16.362   7.364  19.608  0.00  0.00    +0.034 A 
ATOM      8  C   UNL     1      15.968   7.791  20.193  0.00  0.00    -0.003 A 
ATOM     26  C   UNL     1      16.221   7.746  20.978  0.00  0.00    -0.003 A 
ATOM     27  C   UNL     1      16.868   7.274  21.175  0.00  0.00    +0.003 A 
ATOM     28  C   UNL     1      17.262   6.846  20.590  0.00  0.00    +0.037 A 
BRANCH   6   5
ATOM      5  O   UNL     1      17.402   6.464  19.221  0.00  0.00    -0.404 OA
BRANCH   5   2
ATOM      1  F   UNL     1      16.767   5.045  18.666  0.00  0.00    -0.133 F 
ATOM      2  C   UNL     1      17.085   5.755  18.943  0.00  0.00    +0.575 C 
ATOM      3  F   UNL     1      17.349   5.370  19.624  0.00  0.00    -0.133 F 
ATOM      4  F   UNL     1      16.821   6.139  18.263  0.00  0.00    -0.133 F 
ENDBRANCH   5   2
ENDBRANCH   6   5
ENDBRANCH   9   8
ENDBRANCH  10   9
TORSDOF 5
ENDMDL
