MODEL 1
REMARK VINA RESULT:     -15.5      0.000      0.000
REMARK  Name = 
REMARK  3 active torsions:
REMARK  status: ('A' for Active; 'I' for Inactive)
REMARK    1  A    between atoms: N_3  and  C_4
REMARK    2  A    between atoms: N_10  and  C_11
REMARK    3  A    between atoms: C_21  and  C_23
REMARK                            x       y       z     vdW  Elec       q    Type
REMARK                         _______ _______ _______ _____ _____    ______ ____
ROOT
ATOM     11  C   UNL     1      -3.555   1.310  24.376  0.00  0.00    +0.131 A 
ATOM     12  C   UNL     1      -4.335   1.042  24.372  0.00  0.00    +0.023 A 
ATOM     13  C   UNL     1      -4.932   1.503  24.707  0.00  0.00    +0.014 A 
ATOM     14  C   UNL     1      -4.748   2.232  25.045  0.00  0.00    +0.041 A 
ATOM     15  C   UNL     1      -5.147   2.941  25.472  0.00  0.00    +0.058 C 
ATOM     16  C   UNL     1      -5.773   3.169  25.693  0.00  0.00    +0.011 C 
ATOM     17  C   UNL     1      -5.002   3.431  25.695  0.00  0.00    +0.043 C 
ATOM     18  C   UNL     1      -4.145   3.913  25.794  0.00  0.00    +0.096 C 
ATOM     19  N   UNL     1      -3.632   3.364  25.429  0.00  0.00    -0.275 N 
ATOM     20  C   UNL     1      -4.327   3.420  25.575  0.00  0.00    +0.100 C 
ATOM     21  C   UNL     1      -2.929   3.039  25.145  0.00  0.00    +0.255 C 
ATOM     22  O   UNL     1      -2.936   2.302  24.773  0.00  0.00    -0.269 OA
ATOM     28  C   UNL     1      -4.576   2.695  25.250  0.00  0.00    +0.110 C 
ATOM     29  N   UNL     1      -3.968   2.501  25.049  0.00  0.00    -0.298 N 
ATOM     30  C   UNL     1      -3.371   2.040  24.714  0.00  0.00    +0.276 A 
ATOM     31  O   UNL     1      -2.556   2.083  24.598  0.00  0.00    -0.266 OA
ENDROOT
BRANCH  21  23
ATOM     23  C   UNL     1      -2.219   3.450  25.233  0.00  0.00    +0.083 A 
ATOM     24  C   UNL     1      -1.972   4.092  24.779  0.00  0.00    +0.012 A 
ATOM     25  C   UNL     1      -1.231   4.330  25.057  0.00  0.00    +0.008 A 
ATOM     26  C   UNL     1      -1.022   3.834  25.682  0.00  0.00    +0.036 A 
ATOM     27  S   UNL     1      -1.632   3.290  25.792  0.00  0.00    -0.082 S 
ENDBRANCH  21  23
BRANCH  11  10
ATOM      1  O   UNL     1      -2.386  -0.434  23.778  0.00  0.00    -0.248 OA
ATOM      2  C   UNL     1      -2.983   0.027  24.113  0.00  0.00    +0.348 C 
ATOM      3  N   UNL     1      -3.604  -0.333  24.520  0.00  0.00    -0.161 NA
ATOM     10  N   UNL     1      -2.959   0.849  24.041  0.00  0.00    -0.156 NA
BRANCH   3   4
ATOM      4  C   UNL     1      -3.628  -1.155  24.591  0.00  0.00    +0.075 A 
ATOM      5  C   UNL     1      -3.973  -1.611  23.997  0.00  0.00    +0.017 A 
ATOM      6  C   UNL     1      -3.997  -2.432  24.069  0.00  0.00    +0.001 A 
ATOM      7  C   UNL     1      -3.675  -2.798  24.735  0.00  0.00    +0.000 A 
ATOM      8  C   UNL     1      -3.330  -2.342  25.329  0.00  0.00    +0.001 A 
ATOM      9  C   UNL     1      -3.307  -1.520  25.258  0.00  0.00    +0.017 A 
ENDBRANCH   3   4
ENDBRANCH  11  10
TORSDOF 3
ENDMDL
MODEL 2
REMARK VINA RESULT:     -13.7      1.097      2.347
REMARK  Name = 
REMARK  3 active torsions:
REMARK  status: ('A' for Active; 'I' for Inactive)
REMARK    1  A    between atoms: N_3  and  C_4
REMARK    2  A    between atoms: N_10  and  C_11
REMARK    3  A    between atoms: C_21  and  C_23
REMARK                            x       y       z     vdW  Elec       q    Type
REMARK                         _______ _______ _______ _____ _____    ______ ____
ROOT
ATOM     11  C   UNL     1      -2.695   1.239  24.228  0.00  0.00    +0.131 A 
ATOM     12  C   UNL     1      -1.911   0.982  24.219  0.00  0.00    +0.023 A 
ATOM     13  C   UNL     1      -1.327   1.426  24.597  0.00  0.00    +0.014 A 
ATOM     14  C   UNL     1      -1.528   2.126  24.984  0.00  0.00    +0.041 A 
ATOM     15  C   UNL     1      -1.148   2.808  25.469  0.00  0.00    +0.058 C 
ATOM     16  C   UNL     1      -0.530   3.029  25.718  0.00  0.00    +0.011 C 
ATOM     17  C   UNL     1      -1.305   3.279  25.725  0.00  0.00    +0.043 C 
ATOM     18  C   UNL     1      -2.171   3.740  25.842  0.00  0.00    +0.096 C 
ATOM     19  N   UNL     1      -2.668   3.211  25.429  0.00  0.00    -0.275 N 
ATOM     20  C   UNL     1      -1.977   3.266  25.591  0.00  0.00    +0.100 C 
ATOM     21  C   UNL     1      -3.361   2.897  25.109  0.00  0.00    +0.255 C 
ATOM     22  O   UNL     1      -3.336   2.189  24.685  0.00  0.00    -0.269 OA
ATOM     28  C   UNL     1      -1.711   2.570  25.219  0.00  0.00    +0.110 C 
ATOM     29  N   UNL     1      -2.312   2.383  24.993  0.00  0.00    -0.298 N 
ATOM     30  C   UNL     1      -2.896   1.939  24.615  0.00  0.00    +0.276 A 
ATOM     31  O   UNL     1      -3.710   1.978  24.487  0.00  0.00    -0.266 OA
ENDROOT
BRANCH  21  23
ATOM     23  C   UNL     1      -4.079   3.290  25.214  0.00  0.00    +0.083 A 
ATOM     24  C   UNL     1      -4.363   3.912  24.752  0.00  0.00    +0.012 A 
ATOM     25  C   UNL     1      -5.098   4.136  25.052  0.00  0.00    +0.008 A 
ATOM     26  C   UNL     1      -5.269   3.654  25.698  0.00  0.00    +0.036 A 
ATOM     27  S   UNL     1      -4.639   3.130  25.799  0.00  0.00    -0.082 S 
ENDBRANCH  21  23
BRANCH  11  10
ATOM      1  O   UNL     1      -3.941  -0.454  23.638  0.00  0.00    -0.248 OA
ATOM      2  C   UNL     1      -3.357  -0.010  24.017  0.00  0.00    +0.348 C 
ATOM      3  N   UNL     1      -2.854  -0.369  24.563  0.00  0.00    -0.161 NA
ATOM     10  N   UNL     1      -3.277   0.794  23.850  0.00  0.00    -0.156 NA
BRANCH   3   4
ATOM      4  C   UNL     1      -2.935  -1.174  24.730  0.00  0.00    +0.075 A 
ATOM      5  C   UNL     1      -2.515  -1.731  24.290  0.00  0.00    +0.017 A 
ATOM      6  C   UNL     1      -2.596  -2.534  24.458  0.00  0.00    +0.001 A 
ATOM      7  C   UNL     1      -3.097  -2.781  25.065  0.00  0.00    +0.000 A 
ATOM      8  C   UNL     1      -3.517  -2.224  25.505  0.00  0.00    +0.001 A 
ATOM      9  C   UNL     1      -3.436  -1.420  25.338  0.00  0.00    +0.017 A 
ENDBRANCH   3   4
ENDBRANCH  11  10
TORSDOF 3
ENDMDL
MODEL 3
REMARK VINA RESULT:     -13.6      1.375      4.012
REMARK  Name = 
REMARK  3 active torsions:
REMARK  status: ('A' for Active; 'I' for Inactive)
REMARK    1  A    between atoms: N_3  and  C_4
REMARK    2  A    between atoms: N_10  and  C_11
REMARK    3  A    between atoms: C_21  and  C_23
REMARK                            x       y       z     vdW  Elec       q    Type
REMARK                         _______ _______ _______ _____ _____    ______ ____
ROOT
ATOM     11  C   UNL     1      -3.382   2.115  23.938  0.00  0.00    +0.131 A 
ATOM     12  C   UNL     1      -3.705   2.872  23.998  0.00  0.00    +0.023 A 
ATOM     13  C   UNL     1      -4.438   2.980  24.362  0.00  0.00    +0.014 A 
ATOM     14  C   UNL     1      -4.846   2.331  24.667  0.00  0.00    +0.041 A 
ATOM     15  C   UNL     1      -5.627   2.120  25.102  0.00  0.00    +0.058 C 
ATOM     16  C   UNL     1      -6.209   2.414  25.362  0.00  0.00    +0.011 C 
ATOM     17  C   UNL     1      -5.886   1.669  25.301  0.00  0.00    +0.043 C 
ATOM     18  C   UNL     1      -5.667   0.705  25.325  0.00  0.00    +0.096 C 
ATOM     19  N   UNL     1      -4.927   0.721  24.938  0.00  0.00    -0.275 N 
ATOM     20  C   UNL     1      -5.429   1.186  25.133  0.00  0.00    +0.100 C 
ATOM     21  C   UNL     1      -4.222   0.440  24.613  0.00  0.00    +0.255 C 
ATOM     22  O   UNL     1      -3.691   0.965  24.262  0.00  0.00    -0.269 OA
ATOM     28  C   UNL     1      -5.068   1.879  24.846  0.00  0.00    +0.110 C 
ATOM     29  N   UNL     1      -4.522   1.575  24.607  0.00  0.00    -0.298 N 
ATOM     30  C   UNL     1      -3.790   1.467  24.242  0.00  0.00    +0.276 A 
ATOM     31  O   UNL     1      -3.279   0.844  24.066  0.00  0.00    -0.266 OA
ENDROOT
BRANCH  21  23
ATOM     23  C   UNL     1      -4.049  -0.366  24.638  0.00  0.00    +0.083 A 
ATOM     24  C   UNL     1      -4.240  -0.922  24.059  0.00  0.00    +0.012 A 
ATOM     25  C   UNL     1      -3.963  -1.657  24.311  0.00  0.00    +0.008 A 
ATOM     26  C   UNL     1      -3.602  -1.557  25.045  0.00  0.00    +0.036 A 
ATOM     27  S   UNL     1      -3.654  -0.759  25.248  0.00  0.00    -0.082 S 
ENDBRANCH  21  23
BRANCH  11  10
ATOM      1  O   UNL     1      -1.255   2.307  23.484  0.00  0.00    -0.248 OA
ATOM      2  C   UNL     1      -1.987   2.415  23.850  0.00  0.00    +0.348 C 
ATOM      3  N   UNL     1      -2.057   2.928  24.492  0.00  0.00    -0.161 NA
ATOM     10  N   UNL     1      -2.650   2.009  23.573  0.00  0.00    -0.156 NA
BRANCH   3   4
ATOM      4  C   UNL     1      -1.393   3.335  24.768  0.00  0.00    +0.075 A 
ATOM      5  C   UNL     1      -0.854   2.955  25.264  0.00  0.00    +0.017 A 
ATOM      6  C   UNL     1      -0.192   3.362  25.540  0.00  0.00    +0.001 A 
ATOM      7  C   UNL     1      -0.068   4.147  25.320  0.00  0.00    +0.000 A 
ATOM      8  C   UNL     1      -0.608   4.527  24.824  0.00  0.00    +0.001 A 
ATOM      9  C   UNL     1      -1.270   4.120  24.548  0.00  0.00    +0.017 A 
ENDBRANCH   3   4
ENDBRANCH  11  10
TORSDOF 3
ENDMDL
MODEL 4
REMARK VINA RESULT:     -13.5      1.661      4.240
REMARK  Name = 
REMARK  3 active torsions:
REMARK  status: ('A' for Active; 'I' for Inactive)
REMARK    1  A    between atoms: N_3  and  C_4
REMARK    2  A    between atoms: N_10  and  C_11
REMARK    3  A    between atoms: C_21  and  C_23
REMARK                            x       y       z     vdW  Elec       q    Type
REMARK                         _______ _______ _______ _____ _____    ______ ____
ROOT
ATOM     11  C   UNL     1      -3.503   0.318  23.956  0.00  0.00    +0.131 A 
ATOM     12  C   UNL     1      -4.213  -0.084  24.079  0.00  0.00    +0.023 A 
ATOM     13  C   UNL     1      -4.205  -0.855  24.372  0.00  0.00    +0.014 A 
ATOM     14  C   UNL     1      -3.487  -1.225  24.541  0.00  0.00    +0.041 A 
ATOM     15  C   UNL     1      -3.151  -2.020  24.856  0.00  0.00    +0.058 C 
ATOM     16  C   UNL     1      -3.354  -2.651  25.087  0.00  0.00    +0.011 C 
ATOM     17  C   UNL     1      -2.655  -2.251  24.964  0.00  0.00    +0.043 C 
ATOM     18  C   UNL     1      -1.720  -1.940  24.884  0.00  0.00    +0.096 C 
ATOM     19  N   UNL     1      -1.854  -1.171  24.587  0.00  0.00    -0.275 N 
ATOM     20  C   UNL     1      -2.242  -1.734  24.784  0.00  0.00    +0.100 C 
ATOM     21  C   UNL     1      -1.683  -0.414  24.307  0.00  0.00    +0.255 C 
ATOM     22  O   UNL     1      -2.296   0.094  24.089  0.00  0.00    -0.269 OA
ATOM     28  C   UNL     1      -2.997  -1.417  24.634  0.00  0.00    +0.110 C 
ATOM     29  N   UNL     1      -2.777  -0.823  24.417  0.00  0.00    -0.298 N 
ATOM     30  C   UNL     1      -2.785  -0.052  24.125  0.00  0.00    +0.276 A 
ATOM     31  O   UNL     1      -2.239   0.533  23.925  0.00  0.00    -0.266 OA
ENDROOT
BRANCH  21  23
ATOM     23  C   UNL     1      -0.899  -0.165  24.244  0.00  0.00    +0.083 A 
ATOM     24  C   UNL     1      -0.497   0.311  24.784  0.00  0.00    +0.012 A 
ATOM     25  C   UNL     1       0.272   0.422  24.503  0.00  0.00    +0.008 A 
ATOM     26  C   UNL     1       0.344   0.014  23.790  0.00  0.00    +0.036 A 
ATOM     27  S   UNL     1      -0.379  -0.348  23.629  0.00  0.00    -0.082 S 
ENDBRANCH  21  23
BRANCH  11  10
ATOM      1  O   UNL     1      -3.984   2.436  23.735  0.00  0.00    -0.248 OA
ATOM      2  C   UNL     1      -3.976   1.664  24.029  0.00  0.00    +0.348 C 
ATOM      3  N   UNL     1      -4.432   1.468  24.688  0.00  0.00    -0.161 NA
ATOM     10  N   UNL     1      -3.511   1.088  23.663  0.00  0.00    -0.156 NA
BRANCH   3   4
ATOM      4  C   UNL     1      -4.897   2.044  25.053  0.00  0.00    +0.075 A 
ATOM      5  C   UNL     1      -4.539   2.671  25.453  0.00  0.00    +0.017 A 
ATOM      6  C   UNL     1      -5.004   3.246  25.818  0.00  0.00    +0.001 A 
ATOM      7  C   UNL     1      -5.826   3.195  25.783  0.00  0.00    +0.000 A 
ATOM      8  C   UNL     1      -6.184   2.568  25.384  0.00  0.00    +0.001 A 
ATOM      9  C   UNL     1      -5.720   1.993  25.019  0.00  0.00    +0.017 A 
ENDBRANCH   3   4
ENDBRANCH  11  10
TORSDOF 3
ENDMDL
