MODEL 1
REMARK VINA RESULT:     -11.0      0.000      0.000
REMARK  Name = 
REMARK  6 active torsions:
REMARK  status: ('A' for Active; 'I' for Inactive)
REMARK    1  A    between atoms: C_4  and  N_22
REMARK    2  A    between atoms: C_6  and  C_7
REMARK    3  A    between atoms: C_9  and  C_12
REMARK    4  A    between atoms: C_23  and  C_25
REMARK    5  A    between atoms: C_25  and  O_26
REMARK    6  A    between atoms: O_26  and  C_27
REMARK                            x       y       z     vdW  Elec       q    Type
REMARK                         _______ _______ _______ _____ _____    ______ ____
ROOT
ATOM      1  C   UNL     1      -1.505  -1.389  24.821  0.00  0.00    +0.090 C 
ATOM      2  N   UNL     1      -1.091  -0.745  24.513  0.00  0.00    -0.264 NA
ATOM      3  C   UNL     1      -0.271  -0.685  24.441  0.00  0.00    +0.094 C 
ATOM      4  C   UNL     1      -0.098   0.049  24.106  0.00  0.00    +0.113 C 
ATOM      5  C   UNL     1      -0.811   0.442  23.970  0.00  0.00    +0.049 C 
ATOM      6  C   UNL     1      -1.424  -0.049  24.222  0.00  0.00    +0.139 C 
ENDROOT
BRANCH   6   7
ATOM      7  C   UNL     1      -2.230   0.127  24.188  0.00  0.00    +0.251 A 
ATOM      8  N   UNL     1      -2.619   0.705  24.629  0.00  0.00    -0.190 NA
ATOM      9  C   UNL     1      -3.417   0.690  24.421  0.00  0.00    +0.203 A 
ATOM     10  N   UNL     1      -3.521   0.102  23.851  0.00  0.00    -0.056 NA
ATOM     11  O   UNL     1      -2.787  -0.246  23.707  0.00  0.00    -0.336 OA
BRANCH   9  12
ATOM     12  C   UNL     1      -4.007   1.178  24.729  0.00  0.00    +0.039 A 
ATOM     13  C   UNL     1      -3.905   1.996  24.737  0.00  0.00    +0.003 A 
ATOM     14  C   UNL     1      -4.495   2.483  25.045  0.00  0.00    +0.000 A 
ATOM     15  C   UNL     1      -4.392   3.301  25.053  0.00  0.00    +0.000 A 
ATOM     16  C   UNL     1      -4.982   3.788  25.361  0.00  0.00    +0.000 A 
ATOM     17  C   UNL     1      -5.676   3.456  25.661  0.00  0.00    +0.000 A 
ATOM     18  C   UNL     1      -5.779   2.638  25.653  0.00  0.00    +0.000 A 
ATOM     19  C   UNL     1      -5.189   2.151  25.345  0.00  0.00    +0.000 A 
ATOM     20  C   UNL     1      -5.291   1.333  25.337  0.00  0.00    +0.000 A 
ATOM     21  C   UNL     1      -4.701   0.846  25.029  0.00  0.00    +0.003 A 
ENDBRANCH   9  12
ENDBRANCH   6   7
BRANCH   4  22
ATOM     22  N   UNL     1       0.656   0.338  23.936  0.00  0.00    -0.203 NA
ATOM     23  C   UNL     1       1.025   0.137  23.226  0.00  0.00    +0.286 C 
ATOM     24  O   UNL     1       0.640  -0.353  22.685  0.00  0.00    -0.269 OA
BRANCH  23  25
ATOM     25  C   UNL     1       1.779   0.427  23.057  0.00  0.00    +0.291 C 
BRANCH  25  26
ATOM     26  O   UNL     1       2.361  -0.083  22.770  0.00  0.00    -0.466 OA
BRANCH  26  27
ATOM     27  C   UNL     1       3.158   0.115  22.851  0.00  0.00    +0.139 A 
ATOM     28  C   UNL     1       3.433   0.843  22.577  0.00  0.00    +0.037 A 
ATOM     29  C   UNL     1       4.230   1.040  22.657  0.00  0.00    +0.003 A 
ATOM     30  C   UNL     1       4.752   0.508  23.011  0.00  0.00    +0.000 A 
ATOM     31  C   UNL     1       4.477  -0.220  23.285  0.00  0.00    +0.003 A 
ATOM     32  C   UNL     1       3.680  -0.417  23.205  0.00  0.00    +0.037 A 
ENDBRANCH  26  27
ENDBRANCH  25  26
ENDBRANCH  23  25
ENDBRANCH   4  22
TORSDOF 6
ENDMDL
MODEL 2
REMARK VINA RESULT:     -10.4      0.855      7.300
REMARK  Name = 
REMARK  6 active torsions:
REMARK  status: ('A' for Active; 'I' for Inactive)
REMARK    1  A    between atoms: C_4  and  N_22
REMARK    2  A    between atoms: C_6  and  C_7
REMARK    3  A    between atoms: C_9  and  C_12
REMARK    4  A    between atoms: C_23  and  C_25
REMARK    5  A    between atoms: C_25  and  O_26
REMARK    6  A    between atoms: O_26  and  C_27
REMARK                            x       y       z     vdW  Elec       q    Type
REMARK                         _______ _______ _______ _____ _____    ______ ____
ROOT
ATOM      1  C   UNL     1      -0.201  -1.181  24.209  0.00  0.00    +0.090 C 
ATOM      2  N   UNL     1      -0.433  -0.390  24.172  0.00  0.00    -0.264 NA
ATOM      3  C   UNL     1      -1.100  -0.062  24.532  0.00  0.00    +0.094 C 
ATOM      4  C   UNL     1      -1.118   0.742  24.351  0.00  0.00    +0.113 C 
ATOM      5  C   UNL     1      -0.463   0.912  23.878  0.00  0.00    +0.049 C 
ATOM      6  C   UNL     1      -0.041   0.213  23.768  0.00  0.00    +0.139 C 
ENDROOT
BRANCH   6   7
ATOM      7  C   UNL     1       0.654   0.130  23.330  0.00  0.00    +0.251 A 
ATOM      8  N   UNL     1       1.417   0.302  23.593  0.00  0.00    -0.190 NA
ATOM      9  C   UNL     1       1.941   0.140  22.977  0.00  0.00    +0.203 A 
ATOM     10  N   UNL     1       1.503  -0.133  22.333  0.00  0.00    -0.056 NA
ATOM     11  O   UNL     1       0.707  -0.138  22.551  0.00  0.00    -0.336 OA
BRANCH   9  12
ATOM     12  C   UNL     1       2.761   0.233  23.001  0.00  0.00    +0.039 A 
ATOM     13  C   UNL     1       3.232  -0.342  23.357  0.00  0.00    +0.003 A 
ATOM     14  C   UNL     1       4.050  -0.249  23.381  0.00  0.00    +0.000 A 
ATOM     15  C   UNL     1       4.522  -0.825  23.737  0.00  0.00    +0.000 A 
ATOM     16  C   UNL     1       5.341  -0.731  23.761  0.00  0.00    +0.000 A 
ATOM     17  C   UNL     1       5.689  -0.060  23.429  0.00  0.00    +0.000 A 
ATOM     18  C   UNL     1       5.218   0.516  23.074  0.00  0.00    +0.000 A 
ATOM     19  C   UNL     1       4.399   0.423  23.049  0.00  0.00    +0.000 A 
ATOM     20  C   UNL     1       3.928   0.998  22.694  0.00  0.00    +0.000 A 
ATOM     21  C   UNL     1       3.109   0.904  22.669  0.00  0.00    +0.003 A 
ENDBRANCH   9  12
ENDBRANCH   6   7
BRANCH   4  22
ATOM     22  N   UNL     1      -1.691   1.281  24.599  0.00  0.00    -0.203 NA
ATOM     23  C   UNL     1      -2.388   1.371  24.167  0.00  0.00    +0.286 C 
ATOM     24  O   UNL     1      -2.513   0.920  23.487  0.00  0.00    -0.269 OA
BRANCH  23  25
ATOM     25  C   UNL     1      -2.961   1.910  24.416  0.00  0.00    +0.291 C 
BRANCH  25  26
ATOM     26  O   UNL     1      -3.755   1.781  24.236  0.00  0.00    -0.466 OA
BRANCH  26  27
ATOM     27  C   UNL     1      -4.344   2.184  24.650  0.00  0.00    +0.139 A 
ATOM     28  C   UNL     1      -4.305   3.004  24.728  0.00  0.00    +0.037 A 
ATOM     29  C   UNL     1      -4.894   3.407  25.142  0.00  0.00    +0.003 A 
ATOM     30  C   UNL     1      -5.521   2.989  25.479  0.00  0.00    +0.000 A 
ATOM     31  C   UNL     1      -5.559   2.169  25.401  0.00  0.00    +0.003 A 
ATOM     32  C   UNL     1      -4.971   1.766  24.986  0.00  0.00    +0.037 A 
ENDBRANCH  26  27
ENDBRANCH  25  26
ENDBRANCH  23  25
ENDBRANCH   4  22
TORSDOF 6
ENDMDL
MODEL 3
REMARK VINA RESULT:     -10.1      2.044      3.038
REMARK  Name = 
REMARK  6 active torsions:
REMARK  status: ('A' for Active; 'I' for Inactive)
REMARK    1  A    between atoms: C_4  and  N_22
REMARK    2  A    between atoms: C_6  and  C_7
REMARK    3  A    between atoms: C_9  and  C_12
REMARK    4  A    between atoms: C_23  and  C_25
REMARK    5  A    between atoms: C_25  and  O_26
REMARK    6  A    between atoms: O_26  and  C_27
REMARK                            x       y       z     vdW  Elec       q    Type
REMARK                         _______ _______ _______ _____ _____    ______ ____
ROOT
ATOM      1  C   UNL     1      -0.994   2.641  24.207  0.00  0.00    +0.090 C 
ATOM      2  N   UNL     1      -0.357   2.116  24.200  0.00  0.00    -0.264 NA
ATOM      3  C   UNL     1       0.413   2.292  23.962  0.00  0.00    +0.094 C 
ATOM      4  C   UNL     1       0.867   1.608  24.044  0.00  0.00    +0.113 C 
ATOM      5  C   UNL     1       0.378   1.010  24.333  0.00  0.00    +0.049 C 
ATOM      6  C   UNL     1      -0.378   1.324  24.429  0.00  0.00    +0.139 C 
ENDROOT
BRANCH   6   7
ATOM      7  C   UNL     1      -1.041   0.917  24.705  0.00  0.00    +0.251 A 
ATOM      8  N   UNL     1      -1.506   0.394  24.268  0.00  0.00    -0.190 NA
ATOM      9  C   UNL     1      -2.107   0.115  24.761  0.00  0.00    +0.203 A 
ATOM     10  N   UNL     1      -2.013   0.466  25.503  0.00  0.00    -0.056 NA
ATOM     11  O   UNL     1      -1.353   0.961  25.468  0.00  0.00    -0.336 OA
BRANCH   9  12
ATOM     12  C   UNL     1      -2.698  -0.420  24.549  0.00  0.00    +0.039 A 
ATOM     13  C   UNL     1      -2.579  -1.229  24.654  0.00  0.00    +0.003 A 
ATOM     14  C   UNL     1      -3.169  -1.764  24.442  0.00  0.00    +0.000 A 
ATOM     15  C   UNL     1      -3.051  -2.574  24.546  0.00  0.00    +0.000 A 
ATOM     16  C   UNL     1      -3.641  -3.108  24.334  0.00  0.00    +0.000 A 
ATOM     17  C   UNL     1      -4.352  -2.833  24.017  0.00  0.00    +0.000 A 
ATOM     18  C   UNL     1      -4.471  -2.024  23.912  0.00  0.00    +0.000 A 
ATOM     19  C   UNL     1      -3.880  -1.489  24.124  0.00  0.00    +0.000 A 
ATOM     20  C   UNL     1      -3.999  -0.680  24.019  0.00  0.00    +0.000 A 
ATOM     21  C   UNL     1      -3.409  -0.145  24.231  0.00  0.00    +0.003 A 
ENDBRANCH   9  12
ENDBRANCH   6   7
BRANCH   4  22
ATOM     22  N   UNL     1       1.670   1.536  23.869  0.00  0.00    -0.203 NA
ATOM     23  C   UNL     1       1.922   0.990  23.304  0.00  0.00    +0.286 C 
ATOM     24  O   UNL     1       1.370   0.515  22.915  0.00  0.00    -0.269 OA
BRANCH  23  25
ATOM     25  C   UNL     1       2.725   0.918  23.129  0.00  0.00    +0.291 C 
BRANCH  25  26
ATOM     26  O   UNL     1       3.054   0.173  23.002  0.00  0.00    -0.466 OA
BRANCH  26  27
ATOM     27  C   UNL     1       3.848   0.036  23.180  0.00  0.00    +0.139 A 
ATOM     28  C   UNL     1       4.418   0.600  22.986  0.00  0.00    +0.037 A 
ATOM     29  C   UNL     1       5.212   0.464  23.164  0.00  0.00    +0.003 A 
ATOM     30  C   UNL     1       5.436  -0.239  23.536  0.00  0.00    +0.000 A 
ATOM     31  C   UNL     1       4.866  -0.803  23.729  0.00  0.00    +0.003 A 
ATOM     32  C   UNL     1       4.072  -0.666  23.551  0.00  0.00    +0.037 A 
ENDBRANCH  26  27
ENDBRANCH  25  26
ENDBRANCH  23  25
ENDBRANCH   4  22
TORSDOF 6
ENDMDL
MODEL 4
REMARK VINA RESULT:     -10.0      3.687      5.522
REMARK  Name = 
REMARK  6 active torsions:
REMARK  status: ('A' for Active; 'I' for Inactive)
REMARK    1  A    between atoms: C_4  and  N_22
REMARK    2  A    between atoms: C_6  and  C_7
REMARK    3  A    between atoms: C_9  and  C_12
REMARK    4  A    between atoms: C_23  and  C_25
REMARK    5  A    between atoms: C_25  and  O_26
REMARK    6  A    between atoms: O_26  and  C_27
REMARK                            x       y       z     vdW  Elec       q    Type
REMARK                         _______ _______ _______ _____ _____    ______ ____
ROOT
ATOM      1  C   UNL     1      -6.229   1.942  25.515  0.00  0.00    +0.090 C 
ATOM      2  N   UNL     1      -5.489   2.233  25.297  0.00  0.00    -0.264 NA
ATOM      3  C   UNL     1      -5.231   3.013  25.377  0.00  0.00    +0.094 C 
ATOM      4  C   UNL     1      -4.459   3.057  25.090  0.00  0.00    +0.113 C 
ATOM      5  C   UNL     1      -4.239   2.305  24.832  0.00  0.00    +0.049 C 
ATOM      6  C   UNL     1      -4.875   1.796  24.960  0.00  0.00    +0.139 C 
ENDROOT
BRANCH   6   7
ATOM      7  C   UNL     1      -4.895   0.990  24.782  0.00  0.00    +0.251 A 
ATOM      8  N   UNL     1      -4.246   0.482  24.766  0.00  0.00    -0.190 NA
ATOM      9  C   UNL     1      -4.517  -0.271  24.563  0.00  0.00    +0.203 A 
ATOM     10  N   UNL     1      -5.334  -0.227  24.453  0.00  0.00    -0.056 NA
ATOM     11  O   UNL     1      -5.567   0.553  24.588  0.00  0.00    -0.336 OA
BRANCH   9  12
ATOM     12  C   UNL     1      -4.052  -0.948  24.483  0.00  0.00    +0.039 A 
ATOM     13  C   UNL     1      -3.273  -0.948  24.752  0.00  0.00    +0.003 A 
ATOM     14  C   UNL     1      -2.809  -1.625  24.673  0.00  0.00    +0.000 A 
ATOM     15  C   UNL     1      -2.029  -1.626  24.942  0.00  0.00    +0.000 A 
ATOM     16  C   UNL     1      -1.566  -2.303  24.862  0.00  0.00    +0.000 A 
ATOM     17  C   UNL     1      -1.882  -2.981  24.513  0.00  0.00    +0.000 A 
ATOM     18  C   UNL     1      -2.661  -2.981  24.244  0.00  0.00    +0.000 A 
ATOM     19  C   UNL     1      -3.126  -2.304  24.323  0.00  0.00    +0.000 A 
ATOM     20  C   UNL     1      -3.905  -2.303  24.054  0.00  0.00    +0.000 A 
ATOM     21  C   UNL     1      -4.369  -1.627  24.134  0.00  0.00    +0.003 A 
ENDBRANCH   9  12
ENDBRANCH   6   7
BRANCH   4  22
ATOM     22  N   UNL     1      -3.989   3.735  25.066  0.00  0.00    -0.203 NA
ATOM     23  C   UNL     1      -3.443   3.881  25.667  0.00  0.00    +0.286 C 
ATOM     24  O   UNL     1      -3.367   3.349  26.293  0.00  0.00    -0.269 OA
BRANCH  23  25
ATOM     25  C   UNL     1      -2.974   4.559  25.641  0.00  0.00    +0.291 C 
BRANCH  25  26
ATOM     26  O   UNL     1      -2.194   4.531  25.907  0.00  0.00    -0.466 OA
BRANCH  26  27
ATOM     27  C   UNL     1      -1.580   4.768  25.410  0.00  0.00    +0.139 A 
ATOM     28  C   UNL     1      -0.995   4.230  25.189  0.00  0.00    +0.037 A 
ATOM     29  C   UNL     1      -0.381   4.468  24.692  0.00  0.00    +0.003 A 
ATOM     30  C   UNL     1      -0.352   5.245  24.416  0.00  0.00    +0.000 A 
ATOM     31  C   UNL     1      -0.937   5.783  24.636  0.00  0.00    +0.003 A 
ATOM     32  C   UNL     1      -1.551   5.545  25.133  0.00  0.00    +0.037 A 
ENDBRANCH  26  27
ENDBRANCH  25  26
ENDBRANCH  23  25
ENDBRANCH   4  22
TORSDOF 6
ENDMDL
