MODEL 1
REMARK VINA RESULT:     -12.2      0.000      0.000
REMARK  Name = 
REMARK  4 active torsions:
REMARK  status: ('A' for Active; 'I' for Inactive)
REMARK    1  A    between atoms: C_2  and  C_20
REMARK    2  A    between atoms: C_6  and  C_8
REMARK    3  A    between atoms: C_11  and  C_12
REMARK    4  A    between atoms: C_12  and  C_13
REMARK                            x       y       z     vdW  Elec       q    Type
REMARK                         _______ _______ _______ _____ _____    ______ ____
ROOT
ATOM      1  O   UNL     1      -3.957  -0.744  25.928  0.00  0.00    -0.270 OA
ATOM      2  C   UNL     1      -3.752  -0.719  25.129  0.00  0.00    +0.251 C 
ATOM      3  N   UNL     1      -3.611   0.007  24.763  0.00  0.00    -0.276 N 
ATOM      4  C   UNL     1      -3.402   0.119  23.973  0.00  0.00    +0.094 C 
ATOM      5  C   UNL     1      -3.317   0.930  23.844  0.00  0.00    +0.033 C 
ATOM      6  C   UNL     1      -3.473   1.319  24.554  0.00  0.00    +0.100 C 
ATOM      7  C   UNL     1      -3.655   0.748  25.122  0.00  0.00    +0.103 C 
ENDROOT
BRANCH   2  20
ATOM     20  C   UNL     1      -3.686  -1.418  24.697  0.00  0.00    +0.073 A 
ATOM     21  C   UNL     1      -4.315  -1.673  24.228  0.00  0.00    +0.008 A 
ATOM     22  C   UNL     1      -4.250  -2.374  23.795  0.00  0.00    +0.021 A 
ATOM     23  C   UNL     1      -3.556  -2.817  23.832  0.00  0.00    +0.099 A 
ATOM     24  N   UNL     1      -2.927  -2.562  24.301  0.00  0.00    -0.242 NA
ATOM     25  C   UNL     1      -2.992  -1.863  24.733  0.00  0.00    +0.103 A 
ENDBRANCH   2  20
BRANCH   6   8
ATOM      8  C   UNL     1      -3.452   2.134  24.676  0.00  0.00    +0.227 A 
ATOM      9  N   UNL     1      -3.880   2.699  24.253  0.00  0.00    -0.112 NA
ATOM     10  N   UNL     1      -3.692   3.442  24.557  0.00  0.00    -0.111 NA
ATOM     11  C   UNL     1      -3.147   3.337  25.168  0.00  0.00    +0.230 A 
ATOM     19  O   UNL     1      -2.999   2.529  25.241  0.00  0.00    -0.423 OA
BRANCH  11  12
ATOM     12  C   UNL     1      -2.810   3.935  25.624  0.00  0.00    +0.113 C 
BRANCH  12  13
ATOM     13  C   UNL     1      -2.090   4.271  25.400  0.00  0.00    -0.013 A 
ATOM     14  C   UNL     1      -1.397   3.827  25.444  0.00  0.00    -0.004 A 
ATOM     15  C   UNL     1      -0.677   4.162  25.219  0.00  0.00    -0.000 A 
ATOM     16  C   UNL     1      -0.651   4.942  24.950  0.00  0.00    -0.000 A 
ATOM     17  C   UNL     1      -1.346   5.385  24.906  0.00  0.00    -0.000 A 
ATOM     18  C   UNL     1      -2.065   5.050  25.130  0.00  0.00    -0.004 A 
ENDBRANCH  12  13
ENDBRANCH  11  12
ENDBRANCH   6   8
TORSDOF 4
ENDMDL
MODEL 2
REMARK VINA RESULT:     -12.2      1.106      5.561
REMARK  Name = 
REMARK  4 active torsions:
REMARK  status: ('A' for Active; 'I' for Inactive)
REMARK    1  A    between atoms: C_2  and  C_20
REMARK    2  A    between atoms: C_6  and  C_8
REMARK    3  A    between atoms: C_11  and  C_12
REMARK    4  A    between atoms: C_12  and  C_13
REMARK                            x       y       z     vdW  Elec       q    Type
REMARK                         _______ _______ _______ _____ _____    ______ ____
ROOT
ATOM      1  O   UNL     1      -1.306   2.670  25.959  0.00  0.00    -0.270 OA
ATOM      2  C   UNL     1      -1.657   3.089  25.340  0.00  0.00    +0.251 C 
ATOM      3  N   UNL     1      -2.180   2.707  24.829  0.00  0.00    -0.276 N 
ATOM      4  C   UNL     1      -2.571   3.051  24.189  0.00  0.00    +0.094 C 
ATOM      5  C   UNL     1      -3.036   2.470  23.832  0.00  0.00    +0.033 C 
ATOM      6  C   UNL     1      -2.932   1.767  24.251  0.00  0.00    +0.100 C 
ATOM      7  C   UNL     1      -2.403   1.913  24.867  0.00  0.00    +0.103 C 
ENDROOT
BRANCH   2  20
ATOM     20  C   UNL     1      -1.486   3.888  25.233  0.00  0.00    +0.073 A 
ATOM     21  C   UNL     1      -0.794   4.113  24.846  0.00  0.00    +0.008 A 
ATOM     22  C   UNL     1      -0.622   4.914  24.738  0.00  0.00    +0.021 A 
ATOM     23  C   UNL     1      -1.144   5.488  25.019  0.00  0.00    +0.099 A 
ATOM     24  N   UNL     1      -1.836   5.263  25.407  0.00  0.00    -0.242 NA
ATOM     25  C   UNL     1      -2.007   4.464  25.514  0.00  0.00    +0.103 A 
ENDBRANCH   2  20
BRANCH   6   8
ATOM      8  C   UNL     1      -3.294   1.045  24.083  0.00  0.00    +0.227 A 
ATOM      9  N   UNL     1      -3.334   0.683  23.343  0.00  0.00    -0.112 NA
ATOM     10  N   UNL     1      -3.743  -0.028  23.428  0.00  0.00    -0.111 NA
ATOM     11  C   UNL     1      -3.956  -0.106  24.222  0.00  0.00    +0.230 A 
ATOM     19  O   UNL     1      -3.678   0.557  24.627  0.00  0.00    -0.423 OA
BRANCH  11  12
ATOM     12  C   UNL     1      -4.374  -0.736  24.552  0.00  0.00    +0.113 C 
BRANCH  12  13
ATOM     13  C   UNL     1      -4.013  -1.473  24.633  0.00  0.00    -0.013 A 
ATOM     14  C   UNL     1      -3.577  -1.647  25.312  0.00  0.00    -0.004 A 
ATOM     15  C   UNL     1      -3.216  -2.384  25.394  0.00  0.00    -0.000 A 
ATOM     16  C   UNL     1      -3.291  -2.948  24.796  0.00  0.00    -0.000 A 
ATOM     17  C   UNL     1      -3.726  -2.774  24.117  0.00  0.00    -0.000 A 
ATOM     18  C   UNL     1      -4.087  -2.037  24.036  0.00  0.00    -0.004 A 
ENDBRANCH  12  13
ENDBRANCH  11  12
ENDBRANCH   6   8
TORSDOF 4
ENDMDL
MODEL 3
REMARK VINA RESULT:     -12.2      1.520      1.773
REMARK  Name = 
REMARK  4 active torsions:
REMARK  status: ('A' for Active; 'I' for Inactive)
REMARK    1  A    between atoms: C_2  and  C_20
REMARK    2  A    between atoms: C_6  and  C_8
REMARK    3  A    between atoms: C_11  and  C_12
REMARK    4  A    between atoms: C_12  and  C_13
REMARK                            x       y       z     vdW  Elec       q    Type
REMARK                         _______ _______ _______ _____ _____    ______ ____
ROOT
ATOM      1  O   UNL     1      -3.978  -0.194  25.381  0.00  0.00    -0.270 OA
ATOM      2  C   UNL     1      -3.398  -0.652  25.014  0.00  0.00    +0.251 C 
ATOM      3  N   UNL     1      -2.643  -0.342  24.894  0.00  0.00    -0.276 N 
ATOM      4  C   UNL     1      -2.010  -0.732  24.537  0.00  0.00    +0.094 C 
ATOM      5  C   UNL     1      -1.364  -0.219  24.533  0.00  0.00    +0.033 C 
ATOM      6  C   UNL     1      -1.598   0.489  24.886  0.00  0.00    +0.100 C 
ATOM      7  C   UNL     1      -2.389   0.413  25.110  0.00  0.00    +0.103 C 
ENDROOT
BRANCH   2  20
ATOM     20  C   UNL     1      -3.573  -1.419  24.768  0.00  0.00    +0.073 A 
ATOM     21  C   UNL     1      -3.958  -1.544  24.049  0.00  0.00    +0.008 A 
ATOM     22  C   UNL     1      -4.133  -2.312  23.802  0.00  0.00    +0.021 A 
ATOM     23  C   UNL     1      -3.922  -2.955  24.274  0.00  0.00    +0.099 A 
ATOM     24  N   UNL     1      -3.536  -2.830  24.993  0.00  0.00    -0.242 NA
ATOM     25  C   UNL     1      -3.361  -2.063  25.239  0.00  0.00    +0.103 A 
ENDBRANCH   2  20
BRANCH   6   8
ATOM      8  C   UNL     1      -1.125   1.155  24.998  0.00  0.00    +0.227 A 
ATOM      9  N   UNL     1      -0.416   1.318  24.607  0.00  0.00    -0.112 NA
ATOM     10  N   UNL     1      -0.130   2.039  24.886  0.00  0.00    -0.111 NA
ATOM     11  C   UNL     1      -0.662   2.323  25.450  0.00  0.00    +0.230 A 
ATOM     19  O   UNL     1      -1.277   1.777  25.519  0.00  0.00    -0.423 OA
BRANCH  11  12
ATOM     12  C   UNL     1      -0.592   3.029  25.870  0.00  0.00    +0.113 C 
BRANCH  12  13
ATOM     13  C   UNL     1      -0.971   3.710  25.601  0.00  0.00    -0.013 A 
ATOM     14  C   UNL     1      -0.575   4.231  25.098  0.00  0.00    -0.004 A 
ATOM     15  C   UNL     1      -0.954   4.912  24.828  0.00  0.00    -0.000 A 
ATOM     16  C   UNL     1      -1.729   5.073  25.061  0.00  0.00    -0.000 A 
ATOM     17  C   UNL     1      -2.125   4.551  25.564  0.00  0.00    -0.000 A 
ATOM     18  C   UNL     1      -1.746   3.871  25.833  0.00  0.00    -0.004 A 
ENDBRANCH  12  13
ENDBRANCH  11  12
ENDBRANCH   6   8
TORSDOF 4
ENDMDL
