MODEL 1
REMARK VINA RESULT:      -8.1      0.000      0.000
REMARK  Name = 
REMARK  2 active torsions:
REMARK  status: ('A' for Active; 'I' for Inactive)
REMARK    1  A    between atoms: O_2  and  C_3
REMARK    2  A    between atoms: C_10  and  C_12
REMARK                            x       y       z     vdW  Elec       q    Type
REMARK                         _______ _______ _______ _____ _____    ______ ____
ROOT
ATOM      3  C   UNL     1      -4.827   2.857  25.257  0.00  0.00    +0.165 C 
ATOM      4  C   UNL     1      -4.823   2.440  24.545  0.00  0.00    +0.173 C 
ATOM      5  O   UNL     1      -4.206   2.351  24.005  0.00  0.00    -0.349 OA
ATOM      6  C   UNL     1      -3.442   2.657  24.042  0.00  0.00    +0.164 C 
ATOM      7  C   UNL     1      -3.104   3.128  24.629  0.00  0.00    +0.126 C 
ATOM      8  N   UNL     1      -3.448   3.409  25.324  0.00  0.00    -0.270 N 
ATOM      9  C   UNL     1      -4.215   3.288  25.604  0.00  0.00    +0.126 C 
ATOM     10  C   UNL     1      -2.961   3.872  25.803  0.00  0.00    +0.270 C 
ATOM     11  O   UNL     1      -3.252   4.180  26.511  0.00  0.00    -0.268 OA
ENDROOT
BRANCH  10  12
ATOM     12  C   UNL     1      -2.185   4.026  25.574  0.00  0.00    +0.176 A 
ATOM     13  N   UNL     1      -1.542   3.516  25.664  0.00  0.00    -0.073 NA
ATOM     14  O   UNL     1      -0.873   3.893  25.360  0.00  0.00    -0.358 OA
ATOM     15  C   UNL     1      -1.102   4.636  25.084  0.00  0.00    +0.155 A 
ATOM     16  C   UNL     1      -0.608   5.197  24.736  0.00  0.00    +0.075 C 
ATOM     17  C   UNL     1      -1.913   4.718  25.216  0.00  0.00    +0.063 A 
ENDBRANCH  10  12
BRANCH   3   2
ATOM      1  C   UNL     1      -6.004   2.161  25.672  0.00  0.00    +0.174 C 
ATOM      2  O   UNL     1      -5.536   2.840  25.678  0.00  0.00    -0.349 OA
ENDBRANCH   3   2
TORSDOF 2
ENDMDL
MODEL 2
REMARK VINA RESULT:      -8.1      2.671      4.302
REMARK  Name = 
REMARK  2 active torsions:
REMARK  status: ('A' for Active; 'I' for Inactive)
REMARK    1  A    between atoms: O_2  and  C_3
REMARK    2  A    between atoms: C_10  and  C_12
REMARK                            x       y       z     vdW  Elec       q    Type
REMARK                         _______ _______ _______ _____ _____    ______ ____
ROOT
ATOM      3  C   UNL     1      -3.969   2.528  24.414  0.00  0.00    +0.165 C 
ATOM      4  C   UNL     1      -4.719   2.669  24.726  0.00  0.00    +0.173 C 
ATOM      5  O   UNL     1      -5.268   2.124  25.013  0.00  0.00    -0.349 OA
ATOM      6  C   UNL     1      -5.204   1.304  25.057  0.00  0.00    +0.164 C 
ATOM      7  C   UNL     1      -4.574   0.824  24.826  0.00  0.00    +0.126 C 
ATOM      8  N   UNL     1      -3.852   1.048  24.493  0.00  0.00    -0.270 N 
ATOM      9  C   UNL     1      -3.583   1.806  24.310  0.00  0.00    +0.126 C 
ATOM     10  C   UNL     1      -3.331   0.431  24.322  0.00  0.00    +0.270 C 
ATOM     11  O   UNL     1      -2.594   0.595  23.988  0.00  0.00    -0.268 OA
ENDROOT
BRANCH  10  12
ATOM     12  C   UNL     1      -3.546  -0.348  24.484  0.00  0.00    +0.176 A 
ATOM     13  N   UNL     1      -3.547  -0.706  25.226  0.00  0.00    -0.073 NA
ATOM     14  O   UNL     1      -3.800  -1.486  25.133  0.00  0.00    -0.358 OA
ATOM     15  C   UNL     1      -3.956  -1.610  24.332  0.00  0.00    +0.155 A 
ATOM     16  C   UNL     1      -4.222  -2.314  23.993  0.00  0.00    +0.075 C 
ATOM     17  C   UNL     1      -3.799  -0.906  23.931  0.00  0.00    +0.063 A 
ENDBRANCH  10  12
BRANCH   3   2
ATOM      1  C   UNL     1      -3.532   3.867  24.652  0.00  0.00    +0.174 C 
ATOM      2  O   UNL     1      -3.549   3.195  24.173  0.00  0.00    -0.349 OA
ENDBRANCH   3   2
TORSDOF 2
ENDMDL
MODEL 3
REMARK VINA RESULT:      -8.0      2.706      4.204
REMARK  Name = 
REMARK  2 active torsions:
REMARK  status: ('A' for Active; 'I' for Inactive)
REMARK    1  A    between atoms: O_2  and  C_3
REMARK    2  A    between atoms: C_10  and  C_12
REMARK                            x       y       z     vdW  Elec       q    Type
REMARK                         _______ _______ _______ _____ _____    ______ ____
ROOT
ATOM      3  C   UNL     1      -4.002   2.486  24.249  0.00  0.00    +0.165 C 
ATOM      4  C   UNL     1      -3.441   2.640  23.665  0.00  0.00    +0.173 C 
ATOM      5  O   UNL     1      -2.939   2.109  23.280  0.00  0.00    -0.349 OA
ATOM      6  C   UNL     1      -2.875   1.295  23.385  0.00  0.00    +0.164 C 
ATOM      7  C   UNL     1      -3.296   0.807  23.900  0.00  0.00    +0.126 C 
ATOM      8  N   UNL     1      -3.886   1.016  24.439  0.00  0.00    -0.270 N 
ATOM      9  C   UNL     1      -4.200   1.763  24.594  0.00  0.00    +0.126 C 
ATOM     10  C   UNL     1      -4.203   0.395  24.879  0.00  0.00    +0.270 C 
ATOM     11  O   UNL     1      -4.797   0.544  25.433  0.00  0.00    -0.268 OA
ENDROOT
BRANCH  10  12
ATOM     12  C   UNL     1      -3.928  -0.374  24.767  0.00  0.00    +0.176 A 
ATOM     13  N   UNL     1      -3.243  -0.696  25.094  0.00  0.00    -0.073 NA
ATOM     14  O   UNL     1      -3.181  -1.478  24.837  0.00  0.00    -0.358 OA
ATOM     15  C   UNL     1      -3.828  -1.638  24.350  0.00  0.00    +0.155 A 
ATOM     16  C   UNL     1      -3.985  -2.356  23.973  0.00  0.00    +0.075 C 
ATOM     17  C   UNL     1      -4.290  -0.956  24.307  0.00  0.00    +0.063 A 
ENDBRANCH  10  12
BRANCH   3   2
ATOM      1  C   UNL     1      -4.022   3.843  24.695  0.00  0.00    +0.174 C 
ATOM      2  O   UNL     1      -4.420   3.140  24.526  0.00  0.00    -0.349 OA
ENDBRANCH   3   2
TORSDOF 2
ENDMDL
MODEL 4
REMARK VINA RESULT:      -7.7      3.649      5.092
REMARK  Name = 
REMARK  2 active torsions:
REMARK  status: ('A' for Active; 'I' for Inactive)
REMARK    1  A    between atoms: O_2  and  C_3
REMARK    2  A    between atoms: C_10  and  C_12
REMARK                            x       y       z     vdW  Elec       q    Type
REMARK                         _______ _______ _______ _____ _____    ______ ____
ROOT
ATOM      3  C   UNL     1      -0.988   1.380  25.314  0.00  0.00    +0.165 C 
ATOM      4  C   UNL     1      -1.480   1.944  24.966  0.00  0.00    +0.173 C 
ATOM      5  O   UNL     1      -2.251   1.852  24.686  0.00  0.00    -0.349 OA
ATOM      6  C   UNL     1      -2.720   1.174  24.686  0.00  0.00    +0.164 C 
ATOM      7  C   UNL     1      -2.535   0.420  24.965  0.00  0.00    +0.126 C 
ATOM      8  N   UNL     1      -1.834   0.158  25.313  0.00  0.00    -0.270 N 
ATOM      9  C   UNL     1      -1.145   0.586  25.469  0.00  0.00    +0.126 C 
ATOM     10  C   UNL     1      -1.821  -0.636  25.535  0.00  0.00    +0.270 C 
ATOM     11  O   UNL     1      -1.146  -0.954  25.889  0.00  0.00    -0.268 OA
ENDROOT
BRANCH  10  12
ATOM     12  C   UNL     1      -2.481  -1.112  25.405  0.00  0.00    +0.176 A 
ATOM     13  N   UNL     1      -3.170  -1.120  25.857  0.00  0.00    -0.073 NA
ATOM     14  O   UNL     1      -3.684  -1.678  25.530  0.00  0.00    -0.358 OA
ATOM     15  C   UNL     1      -3.311  -2.015  24.876  0.00  0.00    +0.155 A 
ATOM     16  C   UNL     1      -3.626  -2.599  24.386  0.00  0.00    +0.075 C 
ATOM     17  C   UNL     1      -2.567  -1.665  24.798  0.00  0.00    +0.063 A 
ENDBRANCH  10  12
BRANCH   3   2
ATOM      1  C   UNL     1      -0.153   2.389  25.887  0.00  0.00    +0.174 C 
ATOM      2  O   UNL     1      -0.240   1.647  25.536  0.00  0.00    -0.349 OA
ENDBRANCH   3   2
TORSDOF 2
ENDMDL
MODEL 5
REMARK VINA RESULT:      -7.6      2.385      3.128
REMARK  Name = 
REMARK  2 active torsions:
REMARK  status: ('A' for Active; 'I' for Inactive)
REMARK    1  A    between atoms: O_2  and  C_3
REMARK    2  A    between atoms: C_10  and  C_12
REMARK                            x       y       z     vdW  Elec       q    Type
REMARK                         _______ _______ _______ _____ _____    ______ ____
ROOT
ATOM      3  C   UNL     1      -1.155   0.347  25.104  0.00  0.00    +0.165 C 
ATOM      4  C   UNL     1      -1.774   0.182  24.585  0.00  0.00    +0.173 C 
ATOM      5  O   UNL     1      -2.328   0.702  24.263  0.00  0.00    -0.349 OA
ATOM      6  C   UNL     1      -2.400   1.514  24.380  0.00  0.00    +0.164 C 
ATOM      7  C   UNL     1      -1.936   2.010  24.849  0.00  0.00    +0.126 C 
ATOM      8  N   UNL     1      -1.284   1.813  25.316  0.00  0.00    -0.270 N 
ATOM      9  C   UNL     1      -0.936   1.073  25.430  0.00  0.00    +0.126 C 
ATOM     10  C   UNL     1      -0.934   2.440  25.723  0.00  0.00    +0.270 C 
ATOM     11  O   UNL     1      -0.279   2.303  26.206  0.00  0.00    -0.268 OA
ENDROOT
BRANCH  10  12
ATOM     12  C   UNL     1      -1.239   3.202  25.648  0.00  0.00    +0.176 A 
ATOM     13  N   UNL     1      -1.927   3.486  26.002  0.00  0.00    -0.073 NA
ATOM     14  O   UNL     1      -2.022   4.275  25.778  0.00  0.00    -0.358 OA
ATOM     15  C   UNL     1      -1.393   4.478  25.285  0.00  0.00    +0.155 A 
ATOM     16  C   UNL     1      -1.270   5.214  24.934  0.00  0.00    +0.075 C 
ATOM     17  C   UNL     1      -0.908   3.814  25.204  0.00  0.00    +0.063 A 
ENDBRANCH  10  12
BRANCH   3   2
ATOM      1  C   UNL     1      -0.569  -0.919  24.799  0.00  0.00    +0.174 C 
ATOM      2  O   UNL     1      -0.693  -0.298  25.327  0.00  0.00    -0.349 OA
ENDBRANCH   3   2
TORSDOF 2
ENDMDL
MODEL 6
REMARK VINA RESULT:      -7.5      1.646      3.781
REMARK  Name = 
REMARK  2 active torsions:
REMARK  status: ('A' for Active; 'I' for Inactive)
REMARK    1  A    between atoms: O_2  and  C_3
REMARK    2  A    between atoms: C_10  and  C_12
REMARK                            x       y       z     vdW  Elec       q    Type
REMARK                         _______ _______ _______ _____ _____    ______ ____
ROOT
ATOM      3  C   UNL     1      -1.944   3.769  25.275  0.00  0.00    +0.165 C 
ATOM      4  C   UNL     1      -1.227   3.461  25.542  0.00  0.00    +0.173 C 
ATOM      5  O   UNL     1      -0.969   2.677  25.536  0.00  0.00    -0.349 OA
ATOM      6  C   UNL     1      -1.365   2.008  25.262  0.00  0.00    +0.164 C 
ATOM      7  C   UNL     1      -2.116   1.956  24.926  0.00  0.00    +0.126 C 
ATOM      8  N   UNL     1      -2.658   2.562  24.781  0.00  0.00    -0.270 N 
ATOM      9  C   UNL     1      -2.581   3.369  24.936  0.00  0.00    +0.126 C 
ATOM     10  C   UNL     1      -3.370   2.329  24.435  0.00  0.00    +0.270 C 
ATOM     11  O   UNL     1      -3.949   2.893  24.267  0.00  0.00    -0.268 OA
ENDROOT
BRANCH  10  12
ATOM     12  C   UNL     1      -3.502   1.536  24.257  0.00  0.00    +0.176 A 
ATOM     13  N   UNL     1      -3.225   1.135  23.592  0.00  0.00    -0.073 NA
ATOM     14  O   UNL     1      -3.487   0.353  23.637  0.00  0.00    -0.358 OA
ATOM     15  C   UNL     1      -3.927   0.272  24.331  0.00  0.00    +0.155 A 
ATOM     16  C   UNL     1      -4.292  -0.420  24.594  0.00  0.00    +0.075 C 
ATOM     17  C   UNL     1      -3.936   1.002  24.714  0.00  0.00    +0.063 A 
ENDBRANCH  10  12
BRANCH   3   2
ATOM      1  C   UNL     1      -1.422   5.093  25.148  0.00  0.00    +0.174 C 
ATOM      2  O   UNL     1      -2.037   4.584  25.358  0.00  0.00    -0.349 OA
ENDBRANCH   3   2
TORSDOF 2
ENDMDL
