MODEL 1
REMARK VINA RESULT:     -11.7      0.000      0.000
REMARK  Name = 
REMARK  7 active torsions:
REMARK  status: ('A' for Active; 'I' for Inactive)
REMARK    1  A    between atoms: C_2  and  C_4
REMARK    2  A    between atoms: C_6  and  C_7
REMARK    3  A    between atoms: C_7  and  C_8
REMARK    4  A    between atoms: C_11  and  C_13
REMARK    5  A    between atoms: C_22  and  C_23
REMARK    6  A    between atoms: C_23  and  N_24
REMARK    7  A    between atoms: C_25  and  C_27
REMARK                            x       y       z     vdW  Elec       q    Type
REMARK                         _______ _______ _______ _____ _____    ______ ____
ROOT
ATOM      4  C   UNL     1      -3.573   1.580  23.893  0.00  0.00    +0.006 C 
ATOM      5  C   UNL     1      -3.688   2.323  24.232  0.00  0.00    +0.005 C 
ATOM      6  C   UNL     1      -4.274   2.430  24.802  0.00  0.00    +0.027 C 
ATOM     19  C   UNL     1      -4.746   1.795  25.034  0.00  0.00    -0.048 C 
ATOM     20  C   UNL     1      -5.332   1.903  25.604  0.00  0.00    +0.026 C 
ATOM     21  C   UNL     1      -4.631   1.051  24.694  0.00  0.00    -0.033 C 
ATOM     22  C   UNL     1      -4.046   0.944  24.124  0.00  0.00    +0.043 C 
ENDROOT
BRANCH   4   2
ATOM      1  C   UNL     1      -2.237   1.211  23.547  0.00  0.00    +0.000 C 
ATOM      2  C   UNL     1      -2.987   1.473  23.323  0.00  0.00    +0.000 C 
ATOM      3  C   UNL     1      -3.151   1.627  22.529  0.00  0.00    +0.000 C 
ENDBRANCH   4   2
BRANCH   6   7
ATOM      7  C   UNL     1      -4.388   3.174  25.142  0.00  0.00    +0.091 C 
BRANCH   7   8
ATOM      8  C   UNL     1      -3.743   3.599  25.431  0.00  0.00    +0.227 A 
ATOM      9  N   UNL     1      -3.618   3.814  26.217  0.00  0.00    -0.111 NA
ATOM     10  N   UNL     1      -2.907   4.232  26.258  0.00  0.00    -0.107 NA
ATOM     11  C   UNL     1      -2.593   4.276  25.496  0.00  0.00    +0.250 A 
ATOM     12  O   UNL     1      -3.110   3.884  24.985  0.00  0.00    -0.420 OA
BRANCH  11  13
ATOM     13  C   UNL     1      -1.888   4.645  25.282  0.00  0.00    +0.058 A 
ATOM     14  C   UNL     1      -1.191   4.204  25.230  0.00  0.00    +0.025 A 
ATOM     15  C   UNL     1      -0.486   4.574  25.016  0.00  0.00    +0.099 A 
ATOM     16  N   UNL     1      -0.475   5.382  24.855  0.00  0.00    -0.242 NA
ATOM     17  C   UNL     1      -1.171   5.822  24.907  0.00  0.00    +0.099 A 
ATOM     18  C   UNL     1      -1.877   5.453  25.121  0.00  0.00    +0.025 A 
ENDBRANCH  11  13
ENDBRANCH   7   8
ENDBRANCH   6   7
BRANCH  22  23
ATOM     23  C   UNL     1      -3.931   0.201  23.785  0.00  0.00    +0.120 C 
BRANCH  23  24
ATOM     24  N   UNL     1      -3.729  -0.443  24.259  0.00  0.00    -0.200 NA
ATOM     25  C   UNL     1      -3.891  -1.210  24.004  0.00  0.00    +0.283 C 
ATOM     26  O   UNL     1      -4.256  -1.334  23.274  0.00  0.00    -0.267 OA
BRANCH  25  27
ATOM     27  C   UNL     1      -3.689  -1.855  24.479  0.00  0.00    +0.136 A 
ATOM     28  N   UNL     1      -3.514  -1.740  25.277  0.00  0.00    -0.239 NA
ATOM     29  C   UNL     1      -3.312  -2.384  25.751  0.00  0.00    +0.099 A 
ATOM     30  C   UNL     1      -3.284  -3.143  25.427  0.00  0.00    +0.021 A 
ATOM     31  C   UNL     1      -3.459  -3.256  24.629  0.00  0.00    +0.003 A 
ATOM     32  C   UNL     1      -3.661  -2.612  24.155  0.00  0.00    +0.024 A 
ENDBRANCH  25  27
ENDBRANCH  23  24
ENDBRANCH  22  23
TORSDOF 7
ENDMDL
MODEL 2
REMARK VINA RESULT:     -11.0      2.981      4.667
REMARK  Name = 
REMARK  7 active torsions:
REMARK  status: ('A' for Active; 'I' for Inactive)
REMARK    1  A    between atoms: C_2  and  C_4
REMARK    2  A    between atoms: C_6  and  C_7
REMARK    3  A    between atoms: C_7  and  C_8
REMARK    4  A    between atoms: C_11  and  C_13
REMARK    5  A    between atoms: C_22  and  C_23
REMARK    6  A    between atoms: C_23  and  N_24
REMARK    7  A    between atoms: C_25  and  C_27
REMARK                            x       y       z     vdW  Elec       q    Type
REMARK                         _______ _______ _______ _____ _____    ______ ____
ROOT
ATOM      4  C   UNL     1      -1.224   1.054  24.747  0.00  0.00    +0.006 C 
ATOM      5  C   UNL     1      -1.668   1.683  25.045  0.00  0.00    +0.005 C 
ATOM      6  C   UNL     1      -1.415   2.458  24.928  0.00  0.00    +0.027 C 
ATOM     19  C   UNL     1      -0.719   2.607  24.511  0.00  0.00    -0.048 C 
ATOM     20  C   UNL     1      -0.467   3.384  24.393  0.00  0.00    +0.026 C 
ATOM     21  C   UNL     1      -0.275   1.978  24.212  0.00  0.00    -0.033 C 
ATOM     22  C   UNL     1      -0.528   1.203  24.330  0.00  0.00    +0.043 C 
ENDROOT
BRANCH   4   2
ATOM      1  C   UNL     1      -1.962  -0.087  24.305  0.00  0.00    +0.000 C 
ATOM      2  C   UNL     1      -1.477   0.278  24.865  0.00  0.00    +0.000 C 
ATOM      3  C   UNL     1      -1.246  -0.133  25.541  0.00  0.00    +0.000 C 
ENDBRANCH   4   2
BRANCH   6   7
ATOM      7  C   UNL     1      -1.859   3.087  25.227  0.00  0.00    +0.091 C 
BRANCH   7   8
ATOM      8  C   UNL     1      -2.656   3.161  25.026  0.00  0.00    +0.227 A 
ATOM      9  N   UNL     1      -2.967   3.667  24.453  0.00  0.00    -0.111 NA
ATOM     10  N   UNL     1      -3.785   3.561  24.437  0.00  0.00    -0.107 NA
ATOM     11  C   UNL     1      -3.980   2.991  25.000  0.00  0.00    +0.250 A 
ATOM     12  O   UNL     1      -3.282   2.743  25.364  0.00  0.00    -0.420 OA
BRANCH  11  13
ATOM     13  C   UNL     1      -4.739   2.716  25.169  0.00  0.00    +0.058 A 
ATOM     14  C   UNL     1      -5.069   2.112  24.714  0.00  0.00    +0.025 A 
ATOM     15  C   UNL     1      -5.828   1.836  24.883  0.00  0.00    +0.099 A 
ATOM     16  N   UNL     1      -6.257   2.164  25.506  0.00  0.00    -0.242 NA
ATOM     17  C   UNL     1      -5.926   2.768  25.961  0.00  0.00    +0.099 A 
ATOM     18  C   UNL     1      -5.168   3.043  25.792  0.00  0.00    +0.025 A 
ENDBRANCH  11  13
ENDBRANCH   7   8
ENDBRANCH   6   7
BRANCH  22  23
ATOM     23  C   UNL     1      -0.085   0.574  24.031  0.00  0.00    +0.120 C 
BRANCH  23  24
ATOM     24  N   UNL     1       0.646   0.717  23.675  0.00  0.00    -0.200 NA
ATOM     25  C   UNL     1       1.073   0.092  23.347  0.00  0.00    +0.283 C 
ATOM     26  O   UNL     1       0.771  -0.675  23.375  0.00  0.00    -0.267 OA
BRANCH  25  27
ATOM     27  C   UNL     1       1.804   0.234  22.990  0.00  0.00    +0.136 A 
ATOM     28  N   UNL     1       2.360   0.714  23.367  0.00  0.00    -0.239 NA
ATOM     29  C   UNL     1       3.090   0.856  23.011  0.00  0.00    +0.099 A 
ATOM     30  C   UNL     1       3.265   0.519  22.277  0.00  0.00    +0.021 A 
ATOM     31  C   UNL     1       2.708   0.040  21.902  0.00  0.00    +0.003 A 
ATOM     32  C   UNL     1       1.978  -0.102  22.258  0.00  0.00    +0.024 A 
ENDBRANCH  25  27
ENDBRANCH  23  24
ENDBRANCH  22  23
TORSDOF 7
ENDMDL
MODEL 3
REMARK VINA RESULT:     -10.5      3.375      5.260
REMARK  Name = 
REMARK  7 active torsions:
REMARK  status: ('A' for Active; 'I' for Inactive)
REMARK    1  A    between atoms: C_2  and  C_4
REMARK    2  A    between atoms: C_6  and  C_7
REMARK    3  A    between atoms: C_7  and  C_8
REMARK    4  A    between atoms: C_11  and  C_13
REMARK    5  A    between atoms: C_22  and  C_23
REMARK    6  A    between atoms: C_23  and  N_24
REMARK    7  A    between atoms: C_25  and  C_27
REMARK                            x       y       z     vdW  Elec       q    Type
REMARK                         _______ _______ _______ _____ _____    ______ ____
ROOT
ATOM      4  C   UNL     1      -0.768   1.800  24.603  0.00  0.00    +0.006 C 
ATOM      5  C   UNL     1      -0.264   1.168  24.440  0.00  0.00    +0.005 C 
ATOM      6  C   UNL     1      -0.576   0.424  24.274  0.00  0.00    +0.027 C 
ATOM     19  C   UNL     1      -1.393   0.310  24.270  0.00  0.00    -0.048 C 
ATOM     20  C   UNL     1      -1.706  -0.435  24.104  0.00  0.00    +0.026 C 
ATOM     21  C   UNL     1      -1.898   0.942  24.434  0.00  0.00    -0.033 C 
ATOM     22  C   UNL     1      -1.586   1.686  24.600  0.00  0.00    +0.043 C 
ENDROOT
BRANCH   4   2
ATOM      1  C   UNL     1      -0.247   2.741  25.544  0.00  0.00    +0.000 C 
ATOM      2  C   UNL     1      -0.456   2.545  24.770  0.00  0.00    +0.000 C 
ATOM      3  C   UNL     1      -0.352   3.093  24.163  0.00  0.00    +0.000 C 
ENDBRANCH   4   2
BRANCH   6   7
ATOM      7  C   UNL     1      -0.071  -0.209  24.110  0.00  0.00    +0.091 C 
BRANCH   7   8
ATOM      8  C   UNL     1       0.538  -0.119  23.561  0.00  0.00    +0.227 A 
ATOM      9  N   UNL     1       0.461  -0.154  22.741  0.00  0.00    -0.111 NA
ATOM     10  N   UNL     1       1.207  -0.035  22.409  0.00  0.00    -0.107 NA
ATOM     11  C   UNL     1       1.746   0.073  23.025  0.00  0.00    +0.250 A 
ATOM     12  O   UNL     1       1.332   0.021  23.737  0.00  0.00    -0.420 OA
BRANCH  11  13
ATOM     13  C   UNL     1       2.555   0.209  22.943  0.00  0.00    +0.058 A 
ATOM     14  C   UNL     1       2.829   0.965  22.755  0.00  0.00    +0.025 A 
ATOM     15  C   UNL     1       3.638   1.101  22.673  0.00  0.00    +0.099 A 
ATOM     16  N   UNL     1       4.173   0.482  22.778  0.00  0.00    -0.242 NA
ATOM     17  C   UNL     1       3.899  -0.274  22.966  0.00  0.00    +0.099 A 
ATOM     18  C   UNL     1       3.090  -0.410  23.048  0.00  0.00    +0.025 A 
ENDBRANCH  11  13
ENDBRANCH   7   8
ENDBRANCH   6   7
BRANCH  22  23
ATOM     23  C   UNL     1      -2.090   2.319  24.763  0.00  0.00    +0.120 C 
BRANCH  23  24
ATOM     24  N   UNL     1      -2.888   2.180  24.923  0.00  0.00    -0.200 NA
ATOM     25  C   UNL     1      -3.425   2.805  24.908  0.00  0.00    +0.283 C 
ATOM     26  O   UNL     1      -3.166   3.569  24.734  0.00  0.00    -0.267 OA
BRANCH  25  27
ATOM     27  C   UNL     1      -4.224   2.667  25.068  0.00  0.00    +0.136 A 
ATOM     28  N   UNL     1      -4.570   2.987  25.745  0.00  0.00    -0.239 NA
ATOM     29  C   UNL     1      -5.367   2.849  25.905  0.00  0.00    +0.099 A 
ATOM     30  C   UNL     1      -5.819   2.391  25.387  0.00  0.00    +0.021 A 
ATOM     31  C   UNL     1      -5.471   2.071  24.710  0.00  0.00    +0.003 A 
ATOM     32  C   UNL     1      -4.674   2.209  24.551  0.00  0.00    +0.024 A 
ENDBRANCH  25  27
ENDBRANCH  23  24
ENDBRANCH  22  23
TORSDOF 7
ENDMDL
MODEL 4
REMARK VINA RESULT:     -10.5      2.140      6.184
REMARK  Name = 
REMARK  7 active torsions:
REMARK  status: ('A' for Active; 'I' for Inactive)
REMARK    1  A    between atoms: C_2  and  C_4
REMARK    2  A    between atoms: C_6  and  C_7
REMARK    3  A    between atoms: C_7  and  C_8
REMARK    4  A    between atoms: C_11  and  C_13
REMARK    5  A    between atoms: C_22  and  C_23
REMARK    6  A    between atoms: C_23  and  N_24
REMARK    7  A    between atoms: C_25  and  C_27
REMARK                            x       y       z     vdW  Elec       q    Type
REMARK                         _______ _______ _______ _____ _____    ______ ____
ROOT
ATOM      4  C   UNL     1      -0.258   0.472  24.242  0.00  0.00    +0.006 C 
ATOM      5  C   UNL     1      -0.391  -0.300  24.500  0.00  0.00    +0.005 C 
ATOM      6  C   UNL     1      -0.711  -0.436  25.247  0.00  0.00    +0.027 C 
ATOM     19  C   UNL     1      -0.899   0.199  25.738  0.00  0.00    -0.048 C 
ATOM     20  C   UNL     1      -1.219   0.062  26.486  0.00  0.00    +0.026 C 
ATOM     21  C   UNL     1      -0.766   0.972  25.481  0.00  0.00    -0.033 C 
ATOM     22  C   UNL     1      -0.446   1.109  24.734  0.00  0.00    +0.043 C 
ENDROOT
BRANCH   4   2
ATOM      1  C   UNL     1      -0.437   0.714  22.846  0.00  0.00    +0.000 C 
ATOM      2  C   UNL     1       0.062   0.609  23.494  0.00  0.00    +0.000 C 
ATOM      3  C   UNL     1       0.880   0.640  23.396  0.00  0.00    +0.000 C 
ENDBRANCH   4   2
BRANCH   6   7
ATOM      7  C   UNL     1      -0.844  -1.210  25.504  0.00  0.00    +0.091 C 
BRANCH   7   8
ATOM      8  C   UNL     1      -1.358  -1.701  25.086  0.00  0.00    +0.227 A 
ATOM      9  N   UNL     1      -1.162  -2.419  24.731  0.00  0.00    -0.111 NA
ATOM     10  N   UNL     1      -1.842  -2.723  24.375  0.00  0.00    -0.107 NA
ATOM     11  C   UNL     1      -2.459  -2.192  24.510  0.00  0.00    +0.250 A 
ATOM     12  O   UNL     1      -2.160  -1.560  24.950  0.00  0.00    -0.420 OA
BRANCH  11  13
ATOM     13  C   UNL     1      -3.237  -2.277  24.251  0.00  0.00    +0.058 A 
ATOM     14  C   UNL     1      -3.680  -1.610  24.051  0.00  0.00    +0.025 A 
ATOM     15  C   UNL     1      -4.459  -1.695  23.792  0.00  0.00    +0.099 A 
ATOM     16  N   UNL     1      -4.794  -2.446  23.734  0.00  0.00    -0.242 NA
ATOM     17  C   UNL     1      -4.351  -3.113  23.934  0.00  0.00    +0.099 A 
ATOM     18  C   UNL     1      -3.573  -3.028  24.193  0.00  0.00    +0.025 A 
ENDBRANCH  11  13
ENDBRANCH   7   8
ENDBRANCH   6   7
BRANCH  22  23
ATOM     23  C   UNL     1      -0.313   1.881  24.476  0.00  0.00    +0.120 C 
BRANCH  23  24
ATOM     24  N   UNL     1      -0.794   2.495  24.746  0.00  0.00    -0.200 NA
ATOM     25  C   UNL     1      -0.581   3.278  24.603  0.00  0.00    +0.283 C 
ATOM     26  O   UNL     1       0.113   3.449  24.190  0.00  0.00    -0.267 OA
BRANCH  25  27
ATOM     27  C   UNL     1      -1.062   3.893  24.873  0.00  0.00    +0.136 A 
ATOM     28  N   UNL     1      -1.800   3.724  25.201  0.00  0.00    -0.239 NA
ATOM     29  C   UNL     1      -2.281   4.338  25.471  0.00  0.00    +0.099 A 
ATOM     30  C   UNL     1      -2.023   5.121  25.412  0.00  0.00    +0.021 A 
ATOM     31  C   UNL     1      -1.285   5.288  25.083  0.00  0.00    +0.003 A 
ATOM     32  C   UNL     1      -0.805   4.674  24.814  0.00  0.00    +0.024 A 
ENDBRANCH  25  27
ENDBRANCH  23  24
ENDBRANCH  22  23
TORSDOF 7
ENDMDL
MODEL 5
REMARK VINA RESULT:     -10.3      2.162      3.573
REMARK  Name = 
REMARK  7 active torsions:
REMARK  status: ('A' for Active; 'I' for Inactive)
REMARK    1  A    between atoms: C_2  and  C_4
REMARK    2  A    between atoms: C_6  and  C_7
REMARK    3  A    between atoms: C_7  and  C_8
REMARK    4  A    between atoms: C_11  and  C_13
REMARK    5  A    between atoms: C_22  and  C_23
REMARK    6  A    between atoms: C_23  and  N_24
REMARK    7  A    between atoms: C_25  and  C_27
REMARK                            x       y       z     vdW  Elec       q    Type
REMARK                         _______ _______ _______ _____ _____    ______ ____
ROOT
ATOM      4  C   UNL     1      -1.292   2.232  24.515  0.00  0.00    +0.006 C 
ATOM      5  C   UNL     1      -1.876   2.790  24.346  0.00  0.00    +0.005 C 
ATOM      6  C   UNL     1      -2.385   2.676  23.708  0.00  0.00    +0.027 C 
ATOM     19  C   UNL     1      -2.310   2.003  23.236  0.00  0.00    -0.048 C 
ATOM     20  C   UNL     1      -2.819   1.888  22.597  0.00  0.00    +0.026 C 
ATOM     21  C   UNL     1      -1.726   1.445  23.404  0.00  0.00    -0.033 C 
ATOM     22  C   UNL     1      -1.218   1.559  24.043  0.00  0.00    +0.043 C 
ENDROOT
BRANCH   4   2
ATOM      1  C   UNL     1      -0.041   2.687  25.034  0.00  0.00    +0.000 C 
ATOM      2  C   UNL     1      -0.784   2.347  25.154  0.00  0.00    +0.000 C 
ATOM      3  C   UNL     1      -1.017   2.123  25.912  0.00  0.00    +0.000 C 
ENDBRANCH   4   2
BRANCH   6   7
ATOM      7  C   UNL     1      -2.969   3.234  23.540  0.00  0.00    +0.091 C 
BRANCH   7   8
ATOM      8  C   UNL     1      -3.604   3.335  24.057  0.00  0.00    +0.227 A 
ATOM      9  N   UNL     1      -3.839   4.046  24.404  0.00  0.00    -0.111 NA
ATOM     10  N   UNL     1      -4.496   3.893  24.879  0.00  0.00    -0.107 NA
ATOM     11  C   UNL     1      -4.668   3.088  24.826  0.00  0.00    +0.250 A 
ATOM     12  O   UNL     1      -4.116   2.743  24.318  0.00  0.00    -0.420 OA
BRANCH  11  13
ATOM     13  C   UNL     1      -5.282   2.696  25.212  0.00  0.00    +0.058 A 
ATOM     14  C   UNL     1      -5.746   2.152  24.801  0.00  0.00    +0.025 A 
ATOM     15  C   UNL     1      -6.361   1.760  25.188  0.00  0.00    +0.099 A 
ATOM     16  N   UNL     1      -6.511   1.912  25.984  0.00  0.00    -0.242 NA
ATOM     17  C   UNL     1      -6.046   2.457  26.395  0.00  0.00    +0.099 A 
ATOM     18  C   UNL     1      -5.432   2.848  26.009  0.00  0.00    +0.025 A 
ENDBRANCH  11  13
ENDBRANCH   7   8
ENDBRANCH   6   7
BRANCH  22  23
ATOM     23  C   UNL     1      -0.634   1.001  24.211  0.00  0.00    +0.120 C 
BRANCH  23  24
ATOM     24  N   UNL     1      -0.845   0.246  24.467  0.00  0.00    -0.200 NA
ATOM     25  C   UNL     1      -0.382  -0.404  24.261  0.00  0.00    +0.283 C 
ATOM     26  O   UNL     1       0.294  -0.300  23.799  0.00  0.00    -0.267 OA
BRANCH  25  27
ATOM     27  C   UNL     1      -0.594  -1.160  24.518  0.00  0.00    +0.136 A 
ATOM     28  N   UNL     1      -0.232  -1.485  25.184  0.00  0.00    -0.239 NA
ATOM     29  C   UNL     1      -0.444  -2.240  25.440  0.00  0.00    +0.099 A 
ATOM     30  C   UNL     1      -1.017  -2.670  25.030  0.00  0.00    +0.021 A 
ATOM     31  C   UNL     1      -1.378  -2.344  24.363  0.00  0.00    +0.003 A 
ATOM     32  C   UNL     1      -1.166  -1.589  24.107  0.00  0.00    +0.024 A 
ENDBRANCH  25  27
ENDBRANCH  23  24
ENDBRANCH  22  23
TORSDOF 7
ENDMDL
MODEL 6
REMARK VINA RESULT:     -10.3      2.747      5.474
REMARK  Name = 
REMARK  7 active torsions:
REMARK  status: ('A' for Active; 'I' for Inactive)
REMARK    1  A    between atoms: C_2  and  C_4
REMARK    2  A    between atoms: C_6  and  C_7
REMARK    3  A    between atoms: C_7  and  C_8
REMARK    4  A    between atoms: C_11  and  C_13
REMARK    5  A    between atoms: C_22  and  C_23
REMARK    6  A    between atoms: C_23  and  N_24
REMARK    7  A    between atoms: C_25  and  C_27
REMARK                            x       y       z     vdW  Elec       q    Type
REMARK                         _______ _______ _______ _____ _____    ______ ____
ROOT
ATOM      4  C   UNL     1      -1.282   1.600  24.912  0.00  0.00    +0.006 C 
ATOM      5  C   UNL     1      -2.102   1.524  24.861  0.00  0.00    +0.005 C 
ATOM      6  C   UNL     1      -2.473   1.542  24.126  0.00  0.00    +0.027 C 
ATOM     19  C   UNL     1      -2.025   1.634  23.439  0.00  0.00    -0.048 C 
ATOM     20  C   UNL     1      -2.397   1.651  22.703  0.00  0.00    +0.026 C 
ATOM     21  C   UNL     1      -1.205   1.710  23.490  0.00  0.00    -0.033 C 
ATOM     22  C   UNL     1      -0.834   1.693  24.225  0.00  0.00    +0.043 C 
ENDROOT
BRANCH   4   2
ATOM      1  C   UNL     1      -0.721   0.860  25.997  0.00  0.00    +0.000 C 
ATOM      2  C   UNL     1      -0.911   1.583  25.649  0.00  0.00    +0.000 C 
ATOM      3  C   UNL     1      -0.730   2.288  26.035  0.00  0.00    +0.000 C 
ENDBRANCH   4   2
BRANCH   6   7
ATOM      7  C   UNL     1      -3.294   1.466  24.075  0.00  0.00    +0.091 C 
BRANCH   7   8
ATOM      8  C   UNL     1      -3.661   0.774  24.335  0.00  0.00    +0.227 A 
ATOM      9  N   UNL     1      -4.310   0.730  24.841  0.00  0.00    -0.111 NA
ATOM     10  N   UNL     1      -4.494  -0.067  24.952  0.00  0.00    -0.107 NA
ATOM     11  C   UNL     1      -3.958  -0.516  24.514  0.00  0.00    +0.250 A 
ATOM     12  O   UNL     1      -3.443   0.004  24.132  0.00  0.00    -0.420 OA
BRANCH  11  13
ATOM     13  C   UNL     1      -3.940  -1.339  24.466  0.00  0.00    +0.058 A 
ATOM     14  C   UNL     1      -3.550  -1.777  25.047  0.00  0.00    +0.025 A 
ATOM     15  C   UNL     1      -3.532  -2.600  24.999  0.00  0.00    +0.099 A 
ATOM     16  N   UNL     1      -3.902  -2.985  24.371  0.00  0.00    -0.242 NA
ATOM     17  C   UNL     1      -4.292  -2.547  23.790  0.00  0.00    +0.099 A 
ATOM     18  C   UNL     1      -4.310  -1.724  23.838  0.00  0.00    +0.025 A 
ENDBRANCH  11  13
ENDBRANCH   7   8
ENDBRANCH   6   7
BRANCH  22  23
ATOM     23  C   UNL     1      -0.014   1.769  24.276  0.00  0.00    +0.120 C 
BRANCH  23  24
ATOM     24  N   UNL     1       0.475   1.267  23.841  0.00  0.00    -0.200 NA
ATOM     25  C   UNL     1       1.258   1.480  23.694  0.00  0.00    +0.283 C 
ATOM     26  O   UNL     1       1.553   2.195  23.982  0.00  0.00    -0.267 OA
BRANCH  25  27
ATOM     27  C   UNL     1       1.747   0.977  23.258  0.00  0.00    +0.136 A 
ATOM     28  N   UNL     1       2.556   1.135  23.204  0.00  0.00    -0.239 NA
ATOM     29  C   UNL     1       3.045   0.633  22.768  0.00  0.00    +0.099 A 
ATOM     30  C   UNL     1       2.725  -0.027  22.387  0.00  0.00    +0.021 A 
ATOM     31  C   UNL     1       1.917  -0.183  22.442  0.00  0.00    +0.003 A 
ATOM     32  C   UNL     1       1.428   0.319  22.878  0.00  0.00    +0.024 A 
ENDBRANCH  25  27
ENDBRANCH  23  24
ENDBRANCH  22  23
TORSDOF 7
ENDMDL
MODEL 7
REMARK VINA RESULT:     -10.2      2.062      5.001
REMARK  Name = 
REMARK  7 active torsions:
REMARK  status: ('A' for Active; 'I' for Inactive)
REMARK    1  A    between atoms: C_2  and  C_4
REMARK    2  A    between atoms: C_6  and  C_7
REMARK    3  A    between atoms: C_7  and  C_8
REMARK    4  A    between atoms: C_11  and  C_13
REMARK    5  A    between atoms: C_22  and  C_23
REMARK    6  A    between atoms: C_23  and  N_24
REMARK    7  A    between atoms: C_25  and  C_27
REMARK                            x       y       z     vdW  Elec       q    Type
REMARK                         _______ _______ _______ _____ _____    ______ ____
ROOT
ATOM      4  C   UNL     1      -1.804   2.857  24.713  0.00  0.00    +0.006 C 
ATOM      5  C   UNL     1      -1.213   2.446  24.311  0.00  0.00    +0.005 C 
ATOM      6  C   UNL     1      -1.393   2.035  23.619  0.00  0.00    +0.027 C 
ATOM     19  C   UNL     1      -2.165   2.034  23.329  0.00  0.00    -0.048 C 
ATOM     20  C   UNL     1      -2.346   1.623  22.637  0.00  0.00    +0.026 C 
ATOM     21  C   UNL     1      -2.757   2.446  23.731  0.00  0.00    -0.033 C 
ATOM     22  C   UNL     1      -2.577   2.857  24.422  0.00  0.00    +0.043 C 
ENDROOT
BRANCH   4   2
ATOM      1  C   UNL     1      -1.598   2.870  26.126  0.00  0.00    +0.000 C 
ATOM      2  C   UNL     1      -1.623   3.269  25.404  0.00  0.00    +0.000 C 
ATOM      3  C   UNL     1      -1.468   4.078  25.374  0.00  0.00    +0.000 C 
ENDBRANCH   4   2
BRANCH   6   7
ATOM      7  C   UNL     1      -0.801   1.623  23.217  0.00  0.00    +0.091 C 
BRANCH   7   8
ATOM      8  C   UNL     1      -0.504   0.919  23.528  0.00  0.00    +0.227 A 
ATOM      9  N   UNL     1       0.291   0.703  23.566  0.00  0.00    -0.111 NA
ATOM     10  N   UNL     1       0.336  -0.043  23.918  0.00  0.00    -0.107 NA
ATOM     11  C   UNL     1      -0.431  -0.287  24.097  0.00  0.00    +0.250 A 
ATOM     12  O   UNL     1      -0.951   0.307  23.857  0.00  0.00    -0.420 OA
BRANCH  11  13
ATOM     13  C   UNL     1      -0.642  -1.000  24.454  0.00  0.00    +0.058 A 
ATOM     14  C   UNL     1      -0.402  -1.161  25.227  0.00  0.00    +0.025 A 
ATOM     15  C   UNL     1      -0.613  -1.874  25.584  0.00  0.00    +0.099 A 
ATOM     16  N   UNL     1      -1.063  -2.426  25.169  0.00  0.00    -0.242 NA
ATOM     17  C   UNL     1      -1.303  -2.265  24.396  0.00  0.00    +0.099 A 
ATOM     18  C   UNL     1      -1.092  -1.552  24.039  0.00  0.00    +0.025 A 
ENDBRANCH  11  13
ENDBRANCH   7   8
ENDBRANCH   6   7
BRANCH  22  23
ATOM     23  C   UNL     1      -3.168   3.269  24.824  0.00  0.00    +0.120 C 
BRANCH  23  24
ATOM     24  N   UNL     1      -3.839   2.871  25.091  0.00  0.00    -0.200 NA
ATOM     25  C   UNL     1      -4.550   3.279  25.182  0.00  0.00    +0.283 C 
ATOM     26  O   UNL     1      -4.591   4.084  25.007  0.00  0.00    -0.267 OA
BRANCH  25  27
ATOM     27  C   UNL     1      -5.223   2.880  25.450  0.00  0.00    +0.136 A 
ATOM     28  N   UNL     1      -5.488   2.993  26.223  0.00  0.00    -0.239 NA
ATOM     29  C   UNL     1      -6.160   2.596  26.490  0.00  0.00    +0.099 A 
ATOM     30  C   UNL     1      -6.566   2.085  25.984  0.00  0.00    +0.021 A 
ATOM     31  C   UNL     1      -6.300   1.973  25.211  0.00  0.00    +0.003 A 
ATOM     32  C   UNL     1      -5.628   2.371  24.944  0.00  0.00    +0.024 A 
ENDBRANCH  25  27
ENDBRANCH  23  24
ENDBRANCH  22  23
TORSDOF 7
ENDMDL
MODEL 8
REMARK VINA RESULT:     -10.0      1.007      5.676
REMARK  Name = 
REMARK  7 active torsions:
REMARK  status: ('A' for Active; 'I' for Inactive)
REMARK    1  A    between atoms: C_2  and  C_4
REMARK    2  A    between atoms: C_6  and  C_7
REMARK    3  A    between atoms: C_7  and  C_8
REMARK    4  A    between atoms: C_11  and  C_13
REMARK    5  A    between atoms: C_22  and  C_23
REMARK    6  A    between atoms: C_23  and  N_24
REMARK    7  A    between atoms: C_25  and  C_27
REMARK                            x       y       z     vdW  Elec       q    Type
REMARK                         _______ _______ _______ _____ _____    ______ ____
ROOT
ATOM      4  C   UNL     1      -4.456   2.031  24.907  0.00  0.00    +0.006 C 
ATOM      5  C   UNL     1      -4.591   1.302  24.545  0.00  0.00    +0.005 C 
ATOM      6  C   UNL     1      -4.088   1.039  23.947  0.00  0.00    +0.027 C 
ATOM     19  C   UNL     1      -3.450   1.505  23.710  0.00  0.00    -0.048 C 
ATOM     20  C   UNL     1      -2.947   1.242  23.111  0.00  0.00    +0.026 C 
ATOM     21  C   UNL     1      -3.315   2.234  24.071  0.00  0.00    -0.033 C 
ATOM     22  C   UNL     1      -3.818   2.497  24.669  0.00  0.00    +0.043 C 
ENDROOT
BRANCH   4   2
ATOM      1  C   UNL     1      -5.570   2.820  25.328  0.00  0.00    +0.000 C 
ATOM      2  C   UNL     1      -4.959   2.294  25.505  0.00  0.00    +0.000 C 
ATOM      3  C   UNL     1      -4.852   2.031  26.279  0.00  0.00    +0.000 C 
ENDBRANCH   4   2
BRANCH   6   7
ATOM      7  C   UNL     1      -4.223   0.309  23.585  0.00  0.00    +0.091 C 
BRANCH   7   8
ATOM      8  C   UNL     1      -3.988  -0.387  23.960  0.00  0.00    +0.227 A 
ATOM      9  N   UNL     1      -4.487  -0.933  24.326  0.00  0.00    -0.111 NA
ATOM     10  N   UNL     1      -4.020  -1.543  24.627  0.00  0.00    -0.107 NA
ATOM     11  C   UNL     1      -3.233  -1.374  24.448  0.00  0.00    +0.250 A 
ATOM     12  O   UNL     1      -3.213  -0.660  24.036  0.00  0.00    -0.420 OA
BRANCH  11  13
ATOM     13  C   UNL     1      -2.580  -1.838  24.646  0.00  0.00    +0.058 A 
ATOM     14  C   UNL     1      -2.499  -2.595  24.326  0.00  0.00    +0.025 A 
ATOM     15  C   UNL     1      -1.847  -3.058  24.524  0.00  0.00    +0.099 A 
ATOM     16  N   UNL     1      -1.275  -2.766  25.041  0.00  0.00    -0.242 NA
ATOM     17  C   UNL     1      -1.355  -2.009  25.361  0.00  0.00    +0.099 A 
ATOM     18  C   UNL     1      -2.008  -1.546  25.163  0.00  0.00    +0.025 A 
ENDBRANCH  11  13
ENDBRANCH   7   8
ENDBRANCH   6   7
BRANCH  22  23
ATOM     23  C   UNL     1      -3.683   3.226  25.031  0.00  0.00    +0.120 C 
BRANCH  23  24
ATOM     24  N   UNL     1      -3.001   3.656  24.854  0.00  0.00    -0.200 NA
ATOM     25  C   UNL     1      -2.684   4.172  25.413  0.00  0.00    +0.283 C 
ATOM     26  O   UNL     1      -3.047   4.260  26.148  0.00  0.00    -0.267 OA
BRANCH  25  27
ATOM     27  C   UNL     1      -2.001   4.602  25.236  0.00  0.00    +0.136 A 
ATOM     28  N   UNL     1      -1.272   4.218  25.191  0.00  0.00    -0.239 NA
ATOM     29  C   UNL     1      -0.590   4.647  25.014  0.00  0.00    +0.099 A 
ATOM     30  C   UNL     1      -0.637   5.461  24.882  0.00  0.00    +0.021 A 
ATOM     31  C   UNL     1      -1.366   5.844  24.927  0.00  0.00    +0.003 A 
ATOM     32  C   UNL     1      -2.048   5.414  25.104  0.00  0.00    +0.024 A 
ENDBRANCH  25  27
ENDBRANCH  23  24
ENDBRANCH  22  23
TORSDOF 7
ENDMDL
MODEL 9
REMARK VINA RESULT:     -10.0      2.821      5.028
REMARK  Name = 
REMARK  7 active torsions:
REMARK  status: ('A' for Active; 'I' for Inactive)
REMARK    1  A    between atoms: C_2  and  C_4
REMARK    2  A    between atoms: C_6  and  C_7
REMARK    3  A    between atoms: C_7  and  C_8
REMARK    4  A    between atoms: C_11  and  C_13
REMARK    5  A    between atoms: C_22  and  C_23
REMARK    6  A    between atoms: C_23  and  N_24
REMARK    7  A    between atoms: C_25  and  C_27
REMARK                            x       y       z     vdW  Elec       q    Type
REMARK                         _______ _______ _______ _____ _____    ______ ____
ROOT
ATOM      4  C   UNL     1      -2.902  -0.331  24.778  0.00  0.00    +0.006 C 
ATOM      5  C   UNL     1      -2.125  -0.581  24.900  0.00  0.00    +0.005 C 
ATOM      6  C   UNL     1      -1.556  -0.045  25.159  0.00  0.00    +0.027 C 
ATOM     19  C   UNL     1      -1.761   0.742  25.296  0.00  0.00    -0.048 C 
ATOM     20  C   UNL     1      -1.191   1.279  25.556  0.00  0.00    +0.026 C 
ATOM     21  C   UNL     1      -2.539   0.993  25.173  0.00  0.00    -0.033 C 
ATOM     22  C   UNL     1      -3.108   0.456  24.914  0.00  0.00    +0.043 C 
ENDROOT
BRANCH   4   2
ATOM      1  C   UNL     1      -3.666  -0.908  23.717  0.00  0.00    +0.000 C 
ATOM      2  C   UNL     1      -3.472  -0.868  24.518  0.00  0.00    +0.000 C 
ATOM      3  C   UNL     1      -3.847  -1.364  25.059  0.00  0.00    +0.000 C 
ENDBRANCH   4   2
BRANCH   6   7
ATOM      7  C   UNL     1      -0.778  -0.295  25.282  0.00  0.00    +0.091 C 
BRANCH   7   8
ATOM      8  C   UNL     1      -0.327  -0.567  24.648  0.00  0.00    +0.227 A 
ATOM      9  N   UNL     1      -0.303  -1.343  24.368  0.00  0.00    -0.111 NA
ATOM     10  N   UNL     1       0.218  -1.367  23.728  0.00  0.00    -0.107 NA
ATOM     11  C   UNL     1       0.515  -0.607  23.612  0.00  0.00    +0.250 A 
ATOM     12  O   UNL     1       0.178  -0.112  24.181  0.00  0.00    -0.420 OA
BRANCH  11  13
ATOM     13  C   UNL     1       1.055  -0.380  23.031  0.00  0.00    +0.058 A 
ATOM     14  C   UNL     1       1.765  -0.019  23.246  0.00  0.00    +0.025 A 
ATOM     15  C   UNL     1       2.305   0.208  22.665  0.00  0.00    +0.099 A 
ATOM     16  N   UNL     1       2.134   0.074  21.870  0.00  0.00    -0.242 NA
ATOM     17  C   UNL     1       1.424  -0.287  21.654  0.00  0.00    +0.099 A 
ATOM     18  C   UNL     1       0.885  -0.513  22.236  0.00  0.00    +0.025 A 
ENDBRANCH  11  13
ENDBRANCH   7   8
ENDBRANCH   6   7
BRANCH  22  23
ATOM     23  C   UNL     1      -3.885   0.706  24.792  0.00  0.00    +0.120 C 
BRANCH  23  24
ATOM     24  N   UNL     1      -4.112   1.470  25.005  0.00  0.00    -0.200 NA
ATOM     25  C   UNL     1      -4.893   1.712  24.900  0.00  0.00    +0.283 C 
ATOM     26  O   UNL     1      -5.448   1.191  24.582  0.00  0.00    -0.267 OA
BRANCH  25  27
ATOM     27  C   UNL     1      -5.120   2.476  25.114  0.00  0.00    +0.136 A 
ATOM     28  N   UNL     1      -4.724   3.128  24.799  0.00  0.00    -0.239 NA
ATOM     29  C   UNL     1      -4.951   3.891  25.012  0.00  0.00    +0.099 A 
ATOM     30  C   UNL     1      -5.575   4.004  25.542  0.00  0.00    +0.021 A 
ATOM     31  C   UNL     1      -5.970   3.352  25.856  0.00  0.00    +0.003 A 
ATOM     32  C   UNL     1      -5.743   2.588  25.643  0.00  0.00    +0.024 A 
ENDBRANCH  25  27
ENDBRANCH  23  24
ENDBRANCH  22  23
TORSDOF 7
ENDMDL
MODEL 10
REMARK VINA RESULT:      -9.7      2.982      4.888
REMARK  Name = 
REMARK  7 active torsions:
REMARK  status: ('A' for Active; 'I' for Inactive)
REMARK    1  A    between atoms: C_2  and  C_4
REMARK    2  A    between atoms: C_6  and  C_7
REMARK    3  A    between atoms: C_7  and  C_8
REMARK    4  A    between atoms: C_11  and  C_13
REMARK    5  A    between atoms: C_22  and  C_23
REMARK    6  A    between atoms: C_23  and  N_24
REMARK    7  A    between atoms: C_25  and  C_27
REMARK                            x       y       z     vdW  Elec       q    Type
REMARK                         _______ _______ _______ _____ _____    ______ ____
ROOT
ATOM      4  C   UNL     1      -1.178   1.439  24.818  0.00  0.00    +0.006 C 
ATOM      5  C   UNL     1      -1.919   1.136  25.016  0.00  0.00    +0.005 C 
ATOM      6  C   UNL     1      -2.088   0.340  24.884  0.00  0.00    +0.027 C 
ATOM     19  C   UNL     1      -1.516  -0.154  24.554  0.00  0.00    -0.048 C 
ATOM     20  C   UNL     1      -1.686  -0.951  24.422  0.00  0.00    +0.026 C 
ATOM     21  C   UNL     1      -0.774   0.148  24.356  0.00  0.00    -0.033 C 
ATOM     22  C   UNL     1      -0.605   0.944  24.488  0.00  0.00    +0.043 C 
ENDROOT
BRANCH   4   2
ATOM      1  C   UNL     1      -0.709   2.477  25.680  0.00  0.00    +0.000 C 
ATOM      2  C   UNL     1      -1.008   2.235  24.950  0.00  0.00    +0.000 C 
ATOM      3  C   UNL     1      -1.138   2.789  24.353  0.00  0.00    +0.000 C 
ENDBRANCH   4   2
BRANCH   6   7
ATOM      7  C   UNL     1      -2.830   0.037  25.082  0.00  0.00    +0.091 C 
BRANCH   7   8
ATOM      8  C   UNL     1      -3.512   0.470  24.911  0.00  0.00    +0.227 A 
ATOM      9  N   UNL     1      -3.973   0.399  24.231  0.00  0.00    -0.111 NA
ATOM     10  N   UNL     1      -4.598   0.935  24.290  0.00  0.00    -0.107 NA
ATOM     11  C   UNL     1      -4.522   1.338  25.006  0.00  0.00    +0.250 A 
ATOM     12  O   UNL     1      -3.851   1.051  25.390  0.00  0.00    -0.420 OA
BRANCH  11  13
ATOM     13  C   UNL     1      -5.028   1.925  25.289  0.00  0.00    +0.058 A 
ATOM     14  C   UNL     1      -4.838   2.720  25.180  0.00  0.00    +0.025 A 
ATOM     15  C   UNL     1      -5.344   3.307  25.463  0.00  0.00    +0.099 A 
ATOM     16  N   UNL     1      -6.040   3.099  25.854  0.00  0.00    -0.242 NA
ATOM     17  C   UNL     1      -6.230   2.303  25.962  0.00  0.00    +0.099 A 
ATOM     18  C   UNL     1      -5.724   1.716  25.679  0.00  0.00    +0.025 A 
ENDBRANCH  11  13
ENDBRANCH   7   8
ENDBRANCH   6   7
BRANCH  22  23
ATOM     23  C   UNL     1       0.136   1.247  24.290  0.00  0.00    +0.120 C 
BRANCH  23  24
ATOM     24  N   UNL     1       0.629   0.831  23.776  0.00  0.00    -0.200 NA
ATOM     25  C   UNL     1       1.383   1.117  23.606  0.00  0.00    +0.283 C 
ATOM     26  O   UNL     1       1.646   1.820  23.949  0.00  0.00    -0.267 OA
BRANCH  25  27
ATOM     27  C   UNL     1       1.876   0.700  23.090  0.00  0.00    +0.136 A 
ATOM     28  N   UNL     1       1.550   0.182  22.537  0.00  0.00    -0.239 NA
ATOM     29  C   UNL     1       2.043  -0.234  22.023  0.00  0.00    +0.099 A 
ATOM     30  C   UNL     1       2.861  -0.132  22.061  0.00  0.00    +0.021 A 
ATOM     31  C   UNL     1       3.186   0.386  22.615  0.00  0.00    +0.003 A 
ATOM     32  C   UNL     1       2.693   0.802  23.129  0.00  0.00    +0.024 A 
ENDBRANCH  25  27
ENDBRANCH  23  24
ENDBRANCH  22  23
TORSDOF 7
ENDMDL
