MODEL 1
REMARK VINA RESULT:      -9.6      0.000      0.000
REMARK  Name = 
REMARK  7 active torsions:
REMARK  status: ('A' for Active; 'I' for Inactive)
REMARK    1  A    between atoms: C_2  and  N_3
REMARK    2  A    between atoms: C_4  and  O_6
REMARK    3  A    between atoms: O_6  and  C_7
REMARK    4  A    between atoms: C_11  and  N_15
REMARK    5  A    between atoms: C_16  and  C_18
REMARK    6  A    between atoms: C_20  and  C_24
REMARK    7  A    between atoms: C_24  and  O_26
REMARK                            x       y       z     vdW  Elec       q    Type
REMARK                         _______ _______ _______ _____ _____    ______ ____
ROOT
ATOM      7  C   UNL     1      -3.063   3.076  24.666  0.00  0.00    +0.229 C 
ATOM      8  C   UNL     1      -2.363   2.730  24.398  0.00  0.00    +0.188 C 
ATOM      9  O   UNL     1      -2.518   1.937  24.234  0.00  0.00    -0.348 OA
ATOM     10  C   UNL     1      -3.313   1.792  24.399  0.00  0.00    +0.168 C 
ATOM     11  C   UNL     1      -3.901   1.213  24.400  0.00  0.00    +0.155 C 
ATOM     12  C   UNL     1      -4.600   1.559  24.668  0.00  0.00    +0.166 C 
ATOM     13  O   UNL     1      -4.445   2.353  24.833  0.00  0.00    -0.348 OA
ATOM     14  C   UNL     1      -3.650   2.496  24.666  0.00  0.00    +0.186 C 
ENDROOT
BRANCH  11  15
ATOM     15  N   UNL     1      -3.805   0.425  24.173  0.00  0.00    -0.198 NA
ATOM     16  C   UNL     1      -4.072  -0.181  24.665  0.00  0.00    +0.265 C 
ATOM     17  O   UNL     1      -4.435   0.001  25.383  0.00  0.00    -0.268 OA
BRANCH  16  18
ATOM     18  C   UNL     1      -3.977  -0.968  24.437  0.00  0.00    +0.055 A 
ATOM     19  C   UNL     1      -3.293  -1.378  24.649  0.00  0.00    +0.011 A 
ATOM     20  C   UNL     1      -3.197  -2.166  24.421  0.00  0.00    +0.076 A 
ATOM     21  C   UNL     1      -3.785  -2.542  23.983  0.00  0.00    +0.006 A 
ATOM     22  C   UNL     1      -4.469  -2.132  23.772  0.00  0.00    +0.000 A 
ATOM     23  C   UNL     1      -4.565  -1.346  23.999  0.00  0.00    +0.005 A 
BRANCH  20  24
ATOM     24  C   UNL     1      -2.513  -2.576  24.633  0.00  0.00    +0.341 C 
ATOM     25  O   UNL     1      -2.562  -3.226  25.138  0.00  0.00    -0.245 OA
BRANCH  24  26
ATOM     26  O   UNL     1      -1.781  -2.335  24.339  0.00  0.00    -0.441 OA
ATOM     27  C   UNL     1      -1.086  -2.590  24.704  0.00  0.00    +0.256 C 
ENDBRANCH  24  26
ENDBRANCH  20  24
ENDBRANCH  16  18
ENDBRANCH  11  15
BRANCH   7   6
ATOM      6  O   UNL     1      -3.158   3.863  24.893  0.00  0.00    -0.432 OA
BRANCH   6   4
ATOM      3  N   UNL     1      -2.068   4.787  24.863  0.00  0.00    -0.169 NA
ATOM      4  C   UNL     1      -2.545   4.259  25.279  0.00  0.00    +0.421 C 
ATOM      5  O   UNL     1      -2.411   4.126  26.082  0.00  0.00    -0.225 OA
BRANCH   3   2
ATOM      1  C   UNL     1      -0.919   5.636  24.817  0.00  0.00    +0.025 C 
ATOM      2  C   UNL     1      -1.455   5.182  25.250  0.00  0.00    +0.119 C 
ENDBRANCH   3   2
ENDBRANCH   6   4
ENDBRANCH   7   6
TORSDOF 7
ENDMDL
MODEL 2
REMARK VINA RESULT:      -9.0      2.969      4.800
REMARK  Name = 
REMARK  7 active torsions:
REMARK  status: ('A' for Active; 'I' for Inactive)
REMARK    1  A    between atoms: C_2  and  N_3
REMARK    2  A    between atoms: C_4  and  O_6
REMARK    3  A    between atoms: O_6  and  C_7
REMARK    4  A    between atoms: C_11  and  N_15
REMARK    5  A    between atoms: C_16  and  C_18
REMARK    6  A    between atoms: C_20  and  C_24
REMARK    7  A    between atoms: C_24  and  O_26
REMARK                            x       y       z     vdW  Elec       q    Type
REMARK                         _______ _______ _______ _____ _____    ______ ____
ROOT
ATOM      7  C   UNL     1       0.565  -0.070  23.491  0.00  0.00    +0.229 C 
ATOM      8  C   UNL     1       0.357   0.690  23.245  0.00  0.00    +0.188 C 
ATOM      9  O   UNL     1      -0.389   0.862  23.553  0.00  0.00    -0.348 OA
ATOM     10  C   UNL     1      -0.642   0.209  23.989  0.00  0.00    +0.168 C 
ATOM     11  C   UNL     1      -1.259  -0.088  24.448  0.00  0.00    +0.155 C 
ATOM     12  C   UNL     1      -1.052  -0.847  24.694  0.00  0.00    +0.166 C 
ATOM     13  O   UNL     1      -0.306  -1.020  24.387  0.00  0.00    -0.348 OA
ATOM     14  C   UNL     1      -0.053  -0.366  23.951  0.00  0.00    +0.186 C 
ENDROOT
BRANCH  11  15
ATOM     15  N   UNL     1      -1.962   0.306  24.630  0.00  0.00    -0.198 NA
ATOM     16  C   UNL     1      -2.684  -0.090  24.572  0.00  0.00    +0.265 C 
ATOM     17  O   UNL     1      -2.703  -0.879  24.332  0.00  0.00    -0.268 OA
BRANCH  16  18
ATOM     18  C   UNL     1      -3.385   0.304  24.753  0.00  0.00    +0.055 A 
ATOM     19  C   UNL     1      -3.444   1.118  24.632  0.00  0.00    +0.011 A 
ATOM     20  C   UNL     1      -4.146   1.512  24.814  0.00  0.00    +0.076 A 
ATOM     21  C   UNL     1      -4.788   1.092  25.116  0.00  0.00    +0.006 A 
ATOM     22  C   UNL     1      -4.729   0.278  25.237  0.00  0.00    +0.000 A 
ATOM     23  C   UNL     1      -4.028  -0.116  25.055  0.00  0.00    +0.005 A 
BRANCH  20  24
ATOM     24  C   UNL     1      -4.205   2.326  24.693  0.00  0.00    +0.341 C 
ATOM     25  O   UNL     1      -4.407   2.619  23.948  0.00  0.00    -0.245 OA
BRANCH  24  26
ATOM     26  O   UNL     1      -4.063   2.847  25.317  0.00  0.00    -0.441 OA
ATOM     27  C   UNL     1      -4.097   3.661  25.190  0.00  0.00    +0.256 C 
ENDBRANCH  24  26
ENDBRANCH  20  24
ENDBRANCH  16  18
ENDBRANCH  11  15
BRANCH   7   6
ATOM      6  O   UNL     1       1.266  -0.463  23.310  0.00  0.00    -0.432 OA
BRANCH   6   4
ATOM      3  N   UNL     1       2.530   0.126  22.996  0.00  0.00    -0.169 NA
ATOM      4  C   UNL     1       1.788  -0.143  22.757  0.00  0.00    +0.421 C 
ATOM      5  O   UNL     1       1.567  -0.091  21.964  0.00  0.00    -0.225 OA
BRANCH   3   2
ATOM      1  C   UNL     1       3.810   0.673  22.674  0.00  0.00    +0.025 C 
ATOM      2  C   UNL     1       3.052   0.446  22.443  0.00  0.00    +0.119 C 
ENDBRANCH   3   2
ENDBRANCH   6   4
ENDBRANCH   7   6
TORSDOF 7
ENDMDL
MODEL 3
REMARK VINA RESULT:      -8.8      3.278      4.234
REMARK  Name = 
REMARK  7 active torsions:
REMARK  status: ('A' for Active; 'I' for Inactive)
REMARK    1  A    between atoms: C_2  and  N_3
REMARK    2  A    between atoms: C_4  and  O_6
REMARK    3  A    between atoms: O_6  and  C_7
REMARK    4  A    between atoms: C_11  and  N_15
REMARK    5  A    between atoms: C_16  and  C_18
REMARK    6  A    between atoms: C_20  and  C_24
REMARK    7  A    between atoms: C_24  and  O_26
REMARK                            x       y       z     vdW  Elec       q    Type
REMARK                         _______ _______ _______ _____ _____    ______ ____
ROOT
ATOM      7  C   UNL     1       1.015   0.696  23.454  0.00  0.00    +0.229 C 
ATOM      8  C   UNL     1       0.859  -0.110  23.367  0.00  0.00    +0.188 C 
ATOM      9  O   UNL     1       0.091  -0.250  23.635  0.00  0.00    -0.348 OA
ATOM     10  C   UNL     1      -0.227   0.468  23.887  0.00  0.00    +0.168 C 
ATOM     11  C   UNL     1      -0.898   0.825  24.208  0.00  0.00    +0.155 C 
ATOM     12  C   UNL     1      -0.741   1.630  24.295  0.00  0.00    +0.166 C 
ATOM     13  O   UNL     1       0.027   1.771  24.027  0.00  0.00    -0.348 OA
ATOM     14  C   UNL     1       0.344   1.052  23.775  0.00  0.00    +0.186 C 
ENDROOT
BRANCH  11  15
ATOM     15  N   UNL     1      -1.602   0.444  24.408  0.00  0.00    -0.198 NA
ATOM     16  C   UNL     1      -2.326   0.774  24.191  0.00  0.00    +0.265 C 
ATOM     17  O   UNL     1      -2.346   1.487  23.776  0.00  0.00    -0.268 OA
BRANCH  16  18
ATOM     18  C   UNL     1      -3.029   0.393  24.391  0.00  0.00    +0.055 A 
ATOM     19  C   UNL     1      -3.125  -0.409  24.223  0.00  0.00    +0.011 A 
ATOM     20  C   UNL     1      -3.829  -0.791  24.422  0.00  0.00    +0.076 A 
ATOM     21  C   UNL     1      -4.436  -0.371  24.790  0.00  0.00    +0.006 A 
ATOM     22  C   UNL     1      -4.340   0.431  24.958  0.00  0.00    +0.000 A 
ATOM     23  C   UNL     1      -3.637   0.813  24.758  0.00  0.00    +0.005 A 
BRANCH  20  24
ATOM     24  C   UNL     1      -3.925  -1.593  24.254  0.00  0.00    +0.341 C 
ATOM     25  O   UNL     1      -4.345  -1.826  23.583  0.00  0.00    -0.245 OA
BRANCH  24  26
ATOM     26  O   UNL     1      -3.602  -2.161  24.757  0.00  0.00    -0.441 OA
ATOM     27  C   UNL     1      -3.611  -2.957  24.540  0.00  0.00    +0.256 C 
ENDBRANCH  24  26
ENDBRANCH  20  24
ENDBRANCH  16  18
ENDBRANCH  11  15
BRANCH   7   6
ATOM      6  O   UNL     1       1.718   1.077  23.255  0.00  0.00    -0.432 OA
BRANCH   6   4
ATOM      3  N   UNL     1       3.119   0.839  23.100  0.00  0.00    -0.169 NA
ATOM      4  C   UNL     1       2.338   0.650  22.916  0.00  0.00    +0.421 C 
ATOM      5  O   UNL     1       2.176   0.032  22.394  0.00  0.00    -0.225 OA
BRANCH   3   2
ATOM      1  C   UNL     1       4.516   0.556  22.996  0.00  0.00    +0.025 C 
ATOM      2  C   UNL     1       3.739   0.412  22.761  0.00  0.00    +0.119 C 
ENDBRANCH   3   2
ENDBRANCH   6   4
ENDBRANCH   7   6
TORSDOF 7
ENDMDL
MODEL 4
REMARK VINA RESULT:      -8.6      2.781      4.854
REMARK  Name = 
REMARK  7 active torsions:
REMARK  status: ('A' for Active; 'I' for Inactive)
REMARK    1  A    between atoms: C_2  and  N_3
REMARK    2  A    between atoms: C_4  and  O_6
REMARK    3  A    between atoms: O_6  and  C_7
REMARK    4  A    between atoms: C_11  and  N_15
REMARK    5  A    between atoms: C_16  and  C_18
REMARK    6  A    between atoms: C_20  and  C_24
REMARK    7  A    between atoms: C_24  and  O_26
REMARK                            x       y       z     vdW  Elec       q    Type
REMARK                         _______ _______ _______ _____ _____    ______ ____
ROOT
ATOM      7  C   UNL     1       0.093   0.385  23.774  0.00  0.00    +0.229 C 
ATOM      8  C   UNL     1       0.197   1.203  23.722  0.00  0.00    +0.188 C 
ATOM      9  O   UNL     1      -0.517   1.563  23.925  0.00  0.00    -0.348 OA
ATOM     10  C   UNL     1      -1.062   0.970  24.103  0.00  0.00    +0.168 C 
ATOM     11  C   UNL     1      -1.839   0.826  24.338  0.00  0.00    +0.155 C 
ATOM     12  C   UNL     1      -1.943   0.009  24.390  0.00  0.00    +0.166 C 
ATOM     13  O   UNL     1      -1.229  -0.352  24.187  0.00  0.00    -0.348 OA
ATOM     14  C   UNL     1      -0.685   0.242  24.010  0.00  0.00    +0.186 C 
ENDROOT
BRANCH  11  15
ATOM     15  N   UNL     1      -2.413   1.399  24.493  0.00  0.00    -0.198 NA
ATOM     16  C   UNL     1      -3.147   1.359  24.120  0.00  0.00    +0.265 C 
ATOM     17  O   UNL     1      -3.308   0.746  23.592  0.00  0.00    -0.268 OA
BRANCH  16  18
ATOM     18  C   UNL     1      -3.720   1.931  24.276  0.00  0.00    +0.055 A 
ATOM     19  C   UNL     1      -4.405   1.728  24.689  0.00  0.00    +0.011 A 
ATOM     20  C   UNL     1      -4.978   2.301  24.845  0.00  0.00    +0.076 A 
ATOM     21  C   UNL     1      -4.866   3.077  24.588  0.00  0.00    +0.006 A 
ATOM     22  C   UNL     1      -4.182   3.280  24.175  0.00  0.00    +0.000 A 
ATOM     23  C   UNL     1      -3.609   2.708  24.019  0.00  0.00    +0.005 A 
BRANCH  20  24
ATOM     24  C   UNL     1      -5.663   2.098  25.258  0.00  0.00    +0.341 C 
ATOM     25  O   UNL     1      -6.312   1.790  24.853  0.00  0.00    -0.245 OA
BRANCH  24  26
ATOM     26  O   UNL     1      -5.698   2.202  26.075  0.00  0.00    -0.441 OA
ATOM     27  C   UNL     1      -6.355   1.937  26.497  0.00  0.00    +0.256 C 
ENDBRANCH  24  26
ENDBRANCH  20  24
ENDBRANCH  16  18
ENDBRANCH  11  15
BRANCH   7   6
ATOM      6  O   UNL     1       0.666  -0.186  23.619  0.00  0.00    -0.432 OA
BRANCH   6   4
ATOM      3  N   UNL     1       1.981   0.048  23.111  0.00  0.00    -0.169 NA
ATOM      4  C   UNL     1       1.180  -0.094  22.980  0.00  0.00    +0.421 C 
ATOM      5  O   UNL     1       0.891  -0.143  22.209  0.00  0.00    -0.225 OA
BRANCH   3   2
ATOM      1  C   UNL     1       3.289   0.319  22.603  0.00  0.00    +0.025 C 
ATOM      2  C   UNL     1       2.495   0.141  22.472  0.00  0.00    +0.119 C 
ENDBRANCH   3   2
ENDBRANCH   6   4
ENDBRANCH   7   6
TORSDOF 7
ENDMDL
MODEL 5
REMARK VINA RESULT:      -8.6      1.500      2.300
REMARK  Name = 
REMARK  7 active torsions:
REMARK  status: ('A' for Active; 'I' for Inactive)
REMARK    1  A    between atoms: C_2  and  N_3
REMARK    2  A    between atoms: C_4  and  O_6
REMARK    3  A    between atoms: O_6  and  C_7
REMARK    4  A    between atoms: C_11  and  N_15
REMARK    5  A    between atoms: C_16  and  C_18
REMARK    6  A    between atoms: C_20  and  C_24
REMARK    7  A    between atoms: C_24  and  O_26
REMARK                            x       y       z     vdW  Elec       q    Type
REMARK                         _______ _______ _______ _____ _____    ______ ____
ROOT
ATOM      7  C   UNL     1      -1.701   2.772  25.601  0.00  0.00    +0.229 C 
ATOM      8  C   UNL     1      -2.351   2.635  25.111  0.00  0.00    +0.188 C 
ATOM      9  O   UNL     1      -2.329   1.845  24.876  0.00  0.00    -0.348 OA
ATOM     10  C   UNL     1      -1.667   1.493  25.220  0.00  0.00    +0.168 C 
ATOM     11  C   UNL     1      -1.245   0.788  25.288  0.00  0.00    +0.155 C 
ATOM     12  C   UNL     1      -0.596   0.925  25.778  0.00  0.00    +0.166 C 
ATOM     13  O   UNL     1      -0.616   1.716  26.013  0.00  0.00    -0.348 OA
ATOM     14  C   UNL     1      -1.279   2.066  25.668  0.00  0.00    +0.186 C 
ENDROOT
BRANCH  11  15
ATOM     15  N   UNL     1      -1.438   0.070  24.929  0.00  0.00    -0.198 NA
ATOM     16  C   UNL     1      -1.439  -0.626  25.371  0.00  0.00    +0.265 C 
ATOM     17  O   UNL     1      -1.245  -0.605  26.173  0.00  0.00    -0.268 OA
BRANCH  16  18
ATOM     18  C   UNL     1      -1.632  -1.342  25.011  0.00  0.00    +0.055 A 
ATOM     19  C   UNL     1      -2.423  -1.551  24.907  0.00  0.00    +0.011 A 
ATOM     20  C   UNL     1      -2.617  -2.268  24.547  0.00  0.00    +0.076 A 
ATOM     21  C   UNL     1      -2.019  -2.776  24.292  0.00  0.00    +0.006 A 
ATOM     22  C   UNL     1      -1.228  -2.567  24.396  0.00  0.00    +0.000 A 
ATOM     23  C   UNL     1      -1.034  -1.851  24.756  0.00  0.00    +0.005 A 
BRANCH  20  24
ATOM     24  C   UNL     1      -3.408  -2.477  24.443  0.00  0.00    +0.341 C 
ATOM     25  O   UNL     1      -3.763  -3.018  24.955  0.00  0.00    -0.245 OA
BRANCH  24  26
ATOM     26  O   UNL     1      -3.844  -2.145  23.827  0.00  0.00    -0.441 OA
ATOM     27  C   UNL     1      -4.645  -2.327  23.743  0.00  0.00    +0.256 C 
ENDBRANCH  24  26
ENDBRANCH  20  24
ENDBRANCH  16  18
ENDBRANCH  11  15
BRANCH   7   6
ATOM      6  O   UNL     1      -1.508   3.489  25.960  0.00  0.00    -0.432 OA
BRANCH   6   4
ATOM      3  N   UNL     1      -1.246   4.725  25.293  0.00  0.00    -0.169 NA
ATOM      4  C   UNL     1      -1.779   4.199  25.638  0.00  0.00    +0.421 C 
ATOM      5  O   UNL     1      -2.583   4.381  25.660  0.00  0.00    -0.225 OA
BRANCH   3   2
ATOM      1  C   UNL     1      -0.985   5.958  24.619  0.00  0.00    +0.025 C 
ATOM      2  C   UNL     1      -1.517   5.435  24.971  0.00  0.00    +0.119 C 
ENDBRANCH   3   2
ENDBRANCH   6   4
ENDBRANCH   7   6
TORSDOF 7
ENDMDL
MODEL 6
REMARK VINA RESULT:      -8.6      1.829      5.942
REMARK  Name = 
REMARK  7 active torsions:
REMARK  status: ('A' for Active; 'I' for Inactive)
REMARK    1  A    between atoms: C_2  and  N_3
REMARK    2  A    between atoms: C_4  and  O_6
REMARK    3  A    between atoms: O_6  and  C_7
REMARK    4  A    between atoms: C_11  and  N_15
REMARK    5  A    between atoms: C_16  and  C_18
REMARK    6  A    between atoms: C_20  and  C_24
REMARK    7  A    between atoms: C_24  and  O_26
REMARK                            x       y       z     vdW  Elec       q    Type
REMARK                         _______ _______ _______ _____ _____    ______ ____
ROOT
ATOM      7  C   UNL     1      -1.056  -0.949  24.872  0.00  0.00    +0.229 C 
ATOM      8  C   UNL     1      -1.424  -0.773  25.590  0.00  0.00    +0.188 C 
ATOM      9  O   UNL     1      -1.438   0.048  25.674  0.00  0.00    -0.348 OA
ATOM     10  C   UNL     1      -1.079   0.379  25.009  0.00  0.00    +0.168 C 
ATOM     11  C   UNL     1      -0.865   1.090  24.650  0.00  0.00    +0.155 C 
ATOM     12  C   UNL     1      -0.498   0.914  23.933  0.00  0.00    +0.166 C 
ATOM     13  O   UNL     1      -0.483   0.093  23.849  0.00  0.00    -0.348 OA
ATOM     14  C   UNL     1      -0.843  -0.237  24.514  0.00  0.00    +0.186 C 
ENDROOT
BRANCH  11  15
ATOM     15  N   UNL     1      -0.997   1.846  24.955  0.00  0.00    -0.198 NA
ATOM     16  C   UNL     1      -1.266   2.449  24.461  0.00  0.00    +0.265 C 
ATOM     17  O   UNL     1      -1.404   2.296  23.662  0.00  0.00    -0.268 OA
BRANCH  16  18
ATOM     18  C   UNL     1      -1.397   3.204  24.766  0.00  0.00    +0.055 A 
ATOM     19  C   UNL     1      -2.110   3.378  25.144  0.00  0.00    +0.011 A 
ATOM     20  C   UNL     1      -2.242   4.133  25.449  0.00  0.00    +0.076 A 
ATOM     21  C   UNL     1      -1.660   4.714  25.376  0.00  0.00    +0.006 A 
ATOM     22  C   UNL     1      -0.948   4.540  24.999  0.00  0.00    +0.000 A 
ATOM     23  C   UNL     1      -0.816   3.785  24.694  0.00  0.00    +0.005 A 
BRANCH  20  24
ATOM     24  C   UNL     1      -2.954   4.307  25.827  0.00  0.00    +0.341 C 
ATOM     25  O   UNL     1      -2.952   4.590  26.602  0.00  0.00    -0.245 OA
BRANCH  24  26
ATOM     26  O   UNL     1      -3.668   4.198  25.429  0.00  0.00    -0.441 OA
ATOM     27  C   UNL     1      -4.364   4.081  25.857  0.00  0.00    +0.256 C 
ENDBRANCH  24  26
ENDBRANCH  20  24
ENDBRANCH  16  18
ENDBRANCH  11  15
BRANCH   7   6
ATOM      6  O   UNL     1      -0.925  -1.704  24.568  0.00  0.00    -0.432 OA
BRANCH   6   4
ATOM      3  N   UNL     1      -2.143  -2.388  24.269  0.00  0.00    -0.169 NA
ATOM      4  C   UNL     1      -1.460  -2.312  24.725  0.00  0.00    +0.421 C 
ATOM      5  O   UNL     1      -1.312  -2.843  25.338  0.00  0.00    -0.225 OA
BRANCH   3   2
ATOM      1  C   UNL     1      -3.452  -2.947  24.145  0.00  0.00    +0.025 C 
ATOM      2  C   UNL     1      -2.679  -2.996  24.426  0.00  0.00    +0.119 C 
ENDBRANCH   3   2
ENDBRANCH   6   4
ENDBRANCH   7   6
TORSDOF 7
ENDMDL
MODEL 7
REMARK VINA RESULT:      -6.4     13.720     15.513
REMARK  Name = 
REMARK  7 active torsions:
REMARK  status: ('A' for Active; 'I' for Inactive)
REMARK    1  A    between atoms: C_2  and  N_3
REMARK    2  A    between atoms: C_4  and  O_6
REMARK    3  A    between atoms: O_6  and  C_7
REMARK    4  A    between atoms: C_11  and  N_15
REMARK    5  A    between atoms: C_16  and  C_18
REMARK    6  A    between atoms: C_20  and  C_24
REMARK    7  A    between atoms: C_24  and  O_26
REMARK                            x       y       z     vdW  Elec       q    Type
REMARK                         _______ _______ _______ _____ _____    ______ ____
ROOT
ATOM      7  C   UNL     1      -4.312 -10.528  13.202  0.00  0.00    +0.229 C 
ATOM      8  C   UNL     1      -5.129 -10.433  13.135  0.00  0.00    +0.188 C 
ATOM      9  O   UNL     1      -5.452 -10.469  13.893  0.00  0.00    -0.348 OA
ATOM     10  C   UNL     1      -4.836 -10.587  14.428  0.00  0.00    +0.168 C 
ATOM     11  C   UNL     1      -4.655 -10.682  15.227  0.00  0.00    +0.155 C 
ATOM     12  C   UNL     1      -3.838 -10.777  15.294  0.00  0.00    +0.166 C 
ATOM     13  O   UNL     1      -3.514 -10.740  14.536  0.00  0.00    -0.348 OA
ATOM     14  C   UNL     1      -4.131 -10.623  14.001  0.00  0.00    +0.186 C 
ENDROOT
BRANCH  11  15
ATOM     15  N   UNL     1      -5.196 -10.682  15.850  0.00  0.00    -0.198 NA
ATOM     16  C   UNL     1      -4.958 -10.446  16.604  0.00  0.00    +0.265 C 
ATOM     17  O   UNL     1      -4.178 -10.209  16.734  0.00  0.00    -0.268 OA
BRANCH  16  18
ATOM     18  C   UNL     1      -5.499 -10.446  17.226  0.00  0.00    +0.055 A 
ATOM     19  C   UNL     1      -6.246 -10.111  17.123  0.00  0.00    +0.011 A 
ATOM     20  C   UNL     1      -6.788 -10.111  17.746  0.00  0.00    +0.076 A 
ATOM     21  C   UNL     1      -6.582 -10.446  18.471  0.00  0.00    +0.006 A 
ATOM     22  C   UNL     1      -5.835 -10.781  18.574  0.00  0.00    +0.000 A 
ATOM     23  C   UNL     1      -5.294 -10.781  17.952  0.00  0.00    +0.005 A 
BRANCH  20  24
ATOM     24  C   UNL     1      -7.535  -9.776  17.644  0.00  0.00    +0.341 C 
ATOM     25  O   UNL     1      -7.605  -9.004  17.360  0.00  0.00    -0.245 OA
BRANCH  24  26
ATOM     26  O   UNL     1      -8.210 -10.212  17.824  0.00  0.00    -0.441 OA
ATOM     27  C   UNL     1      -8.957  -9.886  17.699  0.00  0.00    +0.256 C 
ENDBRANCH  24  26
ENDBRANCH  20  24
ENDBRANCH  16  18
ENDBRANCH  11  15
BRANCH   7   6
ATOM      6  O   UNL     1      -3.771 -10.527  12.579  0.00  0.00    -0.432 OA
BRANCH   6   4
ATOM      3  N   UNL     1      -3.635  -9.811  11.350  0.00  0.00    -0.169 NA
ATOM      4  C   UNL     1      -4.027 -10.372  11.810  0.00  0.00    +0.421 C 
ATOM      5  O   UNL     1      -4.676 -10.777  11.502  0.00  0.00    -0.225 OA
BRANCH   3   2
ATOM      1  C   UNL     1      -3.435  -9.183  10.083  0.00  0.00    +0.025 C 
ATOM      2  C   UNL     1      -3.890  -9.655  10.581  0.00  0.00    +0.119 C 
ENDBRANCH   3   2
ENDBRANCH   6   4
ENDBRANCH   7   6
TORSDOF 7
ENDMDL
MODEL 8
REMARK VINA RESULT:      -6.2     13.857     16.580
REMARK  Name = 
REMARK  7 active torsions:
REMARK  status: ('A' for Active; 'I' for Inactive)
REMARK    1  A    between atoms: C_2  and  N_3
REMARK    2  A    between atoms: C_4  and  O_6
REMARK    3  A    between atoms: O_6  and  C_7
REMARK    4  A    between atoms: C_11  and  N_15
REMARK    5  A    between atoms: C_16  and  C_18
REMARK    6  A    between atoms: C_20  and  C_24
REMARK    7  A    between atoms: C_24  and  O_26
REMARK                            x       y       z     vdW  Elec       q    Type
REMARK                         _______ _______ _______ _____ _____    ______ ____
ROOT
ATOM      7  C   UNL     1      -5.065 -10.368  15.297  0.00  0.00    +0.229 C 
ATOM      8  C   UNL     1      -5.762 -10.153  14.911  0.00  0.00    +0.188 C 
ATOM      9  O   UNL     1      -5.620 -10.177  14.098  0.00  0.00    -0.348 OA
ATOM     10  C   UNL     1      -4.836 -10.407  13.982  0.00  0.00    +0.168 C 
ATOM     11  C   UNL     1      -4.265 -10.565  13.409  0.00  0.00    +0.155 C 
ATOM     12  C   UNL     1      -3.569 -10.781  13.795  0.00  0.00    +0.166 C 
ATOM     13  O   UNL     1      -3.710 -10.757  14.608  0.00  0.00    -0.348 OA
ATOM     14  C   UNL     1      -4.493 -10.526  14.723  0.00  0.00    +0.186 C 
ENDROOT
BRANCH  11  15
ATOM     15  N   UNL     1      -4.371 -10.515  12.592  0.00  0.00    -0.198 NA
ATOM     16  C   UNL     1      -3.750 -10.264  12.110  0.00  0.00    +0.265 C 
ATOM     17  O   UNL     1      -3.024 -10.063  12.445  0.00  0.00    -0.268 OA
BRANCH  16  18
ATOM     18  C   UNL     1      -3.857 -10.215  11.294  0.00  0.00    +0.055 A 
ATOM     19  C   UNL     1      -4.342  -9.629  10.976  0.00  0.00    +0.011 A 
ATOM     20  C   UNL     1      -4.449  -9.579  10.159  0.00  0.00    +0.076 A 
ATOM     21  C   UNL     1      -4.070 -10.116   9.660  0.00  0.00    +0.006 A 
ATOM     22  C   UNL     1      -3.584 -10.702   9.978  0.00  0.00    +0.000 A 
ATOM     23  C   UNL     1      -3.478 -10.752  10.794  0.00  0.00    +0.005 A 
BRANCH  20  24
ATOM     24  C   UNL     1      -4.935  -8.992   9.841  0.00  0.00    +0.341 C 
ATOM     25  O   UNL     1      -4.638  -8.232   9.722  0.00  0.00    -0.245 OA
BRANCH  24  26
ATOM     26  O   UNL     1      -5.716  -9.167   9.643  0.00  0.00    -0.441 OA
ATOM     27  C   UNL     1      -6.217  -8.568   9.378  0.00  0.00    +0.256 C 
ENDBRANCH  24  26
ENDBRANCH  20  24
ENDBRANCH  16  18
ENDBRANCH  11  15
BRANCH   7   6
ATOM      6  O   UNL     1      -4.959 -10.418  16.113  0.00  0.00    -0.432 OA
BRANCH   6   4
ATOM      3  N   UNL     1      -5.776 -10.593  17.272  0.00  0.00    -0.169 NA
ATOM      4  C   UNL     1      -5.545 -10.140  16.624  0.00  0.00    +0.421 C 
ATOM      5  O   UNL     1      -5.900  -9.408  16.484  0.00  0.00    -0.225 OA
BRANCH   3   2
ATOM      1  C   UNL     1      -6.496 -10.693  18.503  0.00  0.00    +0.025 C 
ATOM      2  C   UNL     1      -6.362 -10.315  17.783  0.00  0.00    +0.119 C 
ENDBRANCH   3   2
ENDBRANCH   6   4
ENDBRANCH   7   6
TORSDOF 7
ENDMDL
MODEL 9
REMARK VINA RESULT:      -6.2     13.888     16.007
REMARK  Name = 
REMARK  7 active torsions:
REMARK  status: ('A' for Active; 'I' for Inactive)
REMARK    1  A    between atoms: C_2  and  N_3
REMARK    2  A    between atoms: C_4  and  O_6
REMARK    3  A    between atoms: O_6  and  C_7
REMARK    4  A    between atoms: C_11  and  N_15
REMARK    5  A    between atoms: C_16  and  C_18
REMARK    6  A    between atoms: C_20  and  C_24
REMARK    7  A    between atoms: C_24  and  O_26
REMARK                            x       y       z     vdW  Elec       q    Type
REMARK                         _______ _______ _______ _____ _____    ______ ____
ROOT
ATOM      7  C   UNL     1      -5.782 -10.191  15.986  0.00  0.00    +0.229 C 
ATOM      8  C   UNL     1      -6.286  -9.944  15.381  0.00  0.00    +0.188 C 
ATOM      9  O   UNL     1      -5.881 -10.017  14.666  0.00  0.00    -0.348 OA
ATOM     10  C   UNL     1      -5.127 -10.309  14.829  0.00  0.00    +0.168 C 
ATOM     11  C   UNL     1      -4.410 -10.535  14.488  0.00  0.00    +0.155 C 
ATOM     12  C   UNL     1      -3.907 -10.781  15.093  0.00  0.00    +0.166 C 
ATOM     13  O   UNL     1      -4.312 -10.708  15.808  0.00  0.00    -0.348 OA
ATOM     14  C   UNL     1      -5.066 -10.416  15.644  0.00  0.00    +0.186 C 
ENDROOT
BRANCH  11  15
ATOM     15  N   UNL     1      -4.230 -10.517  13.683  0.00  0.00    -0.198 NA
ATOM     16  C   UNL     1      -3.445 -10.442  13.438  0.00  0.00    +0.265 C 
ATOM     17  O   UNL     1      -2.842 -10.385  13.998  0.00  0.00    -0.268 OA
BRANCH  16  18
ATOM     18  C   UNL     1      -3.265 -10.424  12.633  0.00  0.00    +0.055 A 
ATOM     19  C   UNL     1      -3.793 -10.081  12.100  0.00  0.00    +0.011 A 
ATOM     20  C   UNL     1      -3.613 -10.063  11.295  0.00  0.00    +0.076 A 
ATOM     21  C   UNL     1      -2.905 -10.388  11.024  0.00  0.00    +0.006 A 
ATOM     22  C   UNL     1      -2.377 -10.732  11.557  0.00  0.00    +0.000 A 
ATOM     23  C   UNL     1      -2.558 -10.750  12.361  0.00  0.00    +0.005 A 
BRANCH  20  24
ATOM     24  C   UNL     1      -4.140  -9.719  10.761  0.00  0.00    +0.341 C 
ATOM     25  O   UNL     1      -4.705 -10.186  10.382  0.00  0.00    -0.245 OA
BRANCH  24  26
ATOM     26  O   UNL     1      -4.103  -8.910  10.608  0.00  0.00    -0.441 OA
ATOM     27  C   UNL     1      -4.623  -8.568  10.067  0.00  0.00    +0.256 C 
ENDBRANCH  24  26
ENDBRANCH  20  24
ENDBRANCH  16  18
ENDBRANCH  11  15
BRANCH   7   6
ATOM      6  O   UNL     1      -5.963 -10.208  16.790  0.00  0.00    -0.432 OA
BRANCH   6   4
ATOM      3  N   UNL     1      -7.176 -10.339  17.534  0.00  0.00    -0.169 NA
ATOM      4  C   UNL     1      -6.674  -9.888  17.061  0.00  0.00    +0.421 C 
ATOM      5  O   UNL     1      -6.881  -9.116  16.858  0.00  0.00    -0.225 OA
BRANCH   3   2
ATOM      1  C   UNL     1      -8.380 -10.463  18.294  0.00  0.00    +0.025 C 
ATOM      2  C   UNL     1      -7.886 -10.019  17.805  0.00  0.00    +0.119 C 
ENDBRANCH   3   2
ENDBRANCH   6   4
ENDBRANCH   7   6
TORSDOF 7
ENDMDL
MODEL 10
REMARK VINA RESULT:      -6.1     13.660     14.856
REMARK  Name = 
REMARK  7 active torsions:
REMARK  status: ('A' for Active; 'I' for Inactive)
REMARK    1  A    between atoms: C_2  and  N_3
REMARK    2  A    between atoms: C_4  and  O_6
REMARK    3  A    between atoms: O_6  and  C_7
REMARK    4  A    between atoms: C_11  and  N_15
REMARK    5  A    between atoms: C_16  and  C_18
REMARK    6  A    between atoms: C_20  and  C_24
REMARK    7  A    between atoms: C_24  and  O_26
REMARK                            x       y       z     vdW  Elec       q    Type
REMARK                         _______ _______ _______ _____ _____    ______ ____
ROOT
ATOM      7  C   UNL     1      -6.894 -10.175  16.850  0.00  0.00    +0.229 C 
ATOM      8  C   UNL     1      -6.938 -10.076  16.032  0.00  0.00    +0.188 C 
ATOM      9  O   UNL     1      -6.171 -10.118  15.729  0.00  0.00    -0.348 OA
ATOM     10  C   UNL     1      -5.654 -10.243  16.360  0.00  0.00    +0.168 C 
ATOM     11  C   UNL     1      -4.862 -10.347  16.563  0.00  0.00    +0.155 C 
ATOM     12  C   UNL     1      -4.819 -10.447  17.380  0.00  0.00    +0.166 C 
ATOM     13  O   UNL     1      -5.585 -10.405  17.684  0.00  0.00    -0.348 OA
ATOM     14  C   UNL     1      -6.101 -10.279  17.052  0.00  0.00    +0.186 C 
ENDROOT
BRANCH  11  15
ATOM     15  N   UNL     1      -4.223 -10.350  16.039  0.00  0.00    -0.198 NA
ATOM     16  C   UNL     1      -3.473 -10.567  16.305  0.00  0.00    +0.265 C 
ATOM     17  O   UNL     1      -3.361 -10.781  17.094  0.00  0.00    -0.268 OA
BRANCH  16  18
ATOM     18  C   UNL     1      -2.836 -10.571  15.782  0.00  0.00    +0.055 A 
ATOM     19  C   UNL     1      -2.971 -10.592  14.968  0.00  0.00    +0.011 A 
ATOM     20  C   UNL     1      -2.333 -10.595  14.444  0.00  0.00    +0.076 A 
ATOM     21  C   UNL     1      -1.561 -10.577  14.734  0.00  0.00    +0.006 A 
ATOM     22  C   UNL     1      -1.426 -10.555  15.548  0.00  0.00    +0.000 A 
ATOM     23  C   UNL     1      -2.063 -10.552  16.071  0.00  0.00    +0.005 A 
BRANCH  20  24
ATOM     24  C   UNL     1      -2.467 -10.617  13.630  0.00  0.00    +0.341 C 
ATOM     25  O   UNL     1      -3.227 -10.487  13.335  0.00  0.00    -0.245 OA
BRANCH  24  26
ATOM     26  O   UNL     1      -1.844 -10.769  13.113  0.00  0.00    -0.441 OA
ATOM     27  C   UNL     1      -1.909 -10.565  12.317  0.00  0.00    +0.256 C 
ENDBRANCH  24  26
ENDBRANCH  20  24
ENDBRANCH  16  18
ENDBRANCH  11  15
BRANCH   7   6
ATOM      6  O   UNL     1      -7.532 -10.172  17.372  0.00  0.00    -0.432 OA
BRANCH   6   4
ATOM      3  N   UNL     1      -8.583  -9.205  17.419  0.00  0.00    -0.169 NA
ATOM      4  C   UNL     1      -8.272  -9.907  17.120  0.00  0.00    +0.421 C 
ATOM      5  O   UNL     1      -8.700 -10.347  16.569  0.00  0.00    -0.225 OA
BRANCH   3   2
ATOM      1  C   UNL     1      -9.678  -8.294  17.535  0.00  0.00    +0.025 C 
ATOM      2  C   UNL     1      -9.323  -8.940  17.167  0.00  0.00    +0.119 C 
ENDBRANCH   3   2
ENDBRANCH   6   4
ENDBRANCH   7   6
TORSDOF 7
ENDMDL
