MODEL 1
REMARK VINA RESULT:     -13.8      0.000      0.000
REMARK  Name = 
REMARK  5 active torsions:
REMARK  status: ('A' for Active; 'I' for Inactive)
REMARK    1  A    between atoms: C_4  and  N_22
REMARK    2  A    between atoms: C_6  and  C_7
REMARK    3  A    between atoms: C_9  and  C_12
REMARK    4  A    between atoms: C_23  and  C_25
REMARK    5  A    between atoms: C_25  and  C_26
REMARK                            x       y       z     vdW  Elec       q    Type
REMARK                         _______ _______ _______ _____ _____    ______ ____
ROOT
ATOM      7  C   UNL     1      -4.553   1.811  25.161  0.00  0.00    +0.251 A 
ATOM      8  N   UNL     1      -4.080   1.146  25.042  0.00  0.00    -0.190 NA
ATOM      9  C   UNL     1      -4.571   0.519  24.826  0.00  0.00    +0.203 A 
ATOM     10  N   UNL     1      -5.348   0.797  24.812  0.00  0.00    -0.056 NA
ATOM     11  O   UNL     1      -5.337   1.596  25.019  0.00  0.00    -0.336 OA
ENDROOT
BRANCH   9  12
ATOM     12  C   UNL     1      -4.328  -0.251  24.654  0.00  0.00    +0.039 A 
ATOM     13  C   UNL     1      -3.983  -0.715  25.242  0.00  0.00    +0.003 A 
ATOM     14  C   UNL     1      -3.740  -1.484  25.070  0.00  0.00    +0.000 A 
ATOM     15  C   UNL     1      -3.396  -1.950  25.658  0.00  0.00    +0.000 A 
ATOM     16  C   UNL     1      -3.152  -2.718  25.486  0.00  0.00    +0.000 A 
ATOM     17  C   UNL     1      -3.253  -3.023  24.725  0.00  0.00    +0.000 A 
ATOM     18  C   UNL     1      -3.598  -2.558  24.137  0.00  0.00    +0.000 A 
ATOM     19  C   UNL     1      -3.841  -1.789  24.309  0.00  0.00    +0.000 A 
ATOM     20  C   UNL     1      -4.185  -1.324  23.721  0.00  0.00    +0.000 A 
ATOM     21  C   UNL     1      -4.429  -0.555  23.893  0.00  0.00    +0.003 A 
ENDBRANCH   9  12
BRANCH   7   6
ATOM      1  C   UNL     1      -5.576   3.272  25.366  0.00  0.00    +0.090 C 
ATOM      2  N   UNL     1      -4.760   3.232  25.477  0.00  0.00    -0.264 NA
ATOM      3  C   UNL     1      -4.269   3.857  25.703  0.00  0.00    +0.094 C 
ATOM      4  C   UNL     1      -3.497   3.570  25.747  0.00  0.00    +0.113 C 
ATOM      5  C   UNL     1      -3.509   2.770  25.550  0.00  0.00    +0.049 C 
ATOM      6  C   UNL     1      -4.289   2.561  25.383  0.00  0.00    +0.139 C 
BRANCH   4  22
ATOM     22  N   UNL     1      -2.829   4.009  25.953  0.00  0.00    -0.206 NA
ATOM     23  C   UNL     1      -2.279   4.219  25.376  0.00  0.00    +0.241 C 
ATOM     24  O   UNL     1      -2.395   3.990  24.592  0.00  0.00    -0.273 OA
BRANCH  23  25
ATOM     25  C   UNL     1      -1.611   4.658  25.583  0.00  0.00    +0.087 C 
BRANCH  25  26
ATOM     26  C   UNL     1      -1.053   4.855  25.009  0.00  0.00    +0.009 C 
ATOM     27  C   UNL     1      -0.495   5.053  24.434  0.00  0.00    +0.000 C 
ATOM     28  C   UNL     1      -0.685   4.125  25.116  0.00  0.00    +0.000 C 
ATOM     29  C   UNL     1      -1.421   5.586  24.901  0.00  0.00    +0.000 C 
ENDBRANCH  25  26
ENDBRANCH  23  25
ENDBRANCH   4  22
ENDBRANCH   7   6
TORSDOF 5
ENDMDL
MODEL 2
REMARK VINA RESULT:     -13.0      2.265      3.187
REMARK  Name = 
REMARK  5 active torsions:
REMARK  status: ('A' for Active; 'I' for Inactive)
REMARK    1  A    between atoms: C_4  and  N_22
REMARK    2  A    between atoms: C_6  and  C_7
REMARK    3  A    between atoms: C_9  and  C_12
REMARK    4  A    between atoms: C_23  and  C_25
REMARK    5  A    between atoms: C_25  and  C_26
REMARK                            x       y       z     vdW  Elec       q    Type
REMARK                         _______ _______ _______ _____ _____    ______ ____
ROOT
ATOM      7  C   UNL     1      -0.608   0.199  24.889  0.00  0.00    +0.251 A 
ATOM      8  N   UNL     1      -1.333  -0.105  24.639  0.00  0.00    -0.190 NA
ATOM      9  C   UNL     1      -1.336  -0.916  24.796  0.00  0.00    +0.203 A 
ATOM     10  N   UNL     1      -0.614  -1.112  25.143  0.00  0.00    -0.056 NA
ATOM     11  O   UNL     1      -0.164  -0.422  25.200  0.00  0.00    -0.336 OA
ENDROOT
BRANCH   9  12
ATOM     12  C   UNL     1      -1.955  -1.438  24.634  0.00  0.00    +0.039 A 
ATOM     13  C   UNL     1      -2.687  -1.148  24.390  0.00  0.00    +0.003 A 
ATOM     14  C   UNL     1      -3.304  -1.670  24.228  0.00  0.00    +0.000 A 
ATOM     15  C   UNL     1      -4.037  -1.380  23.984  0.00  0.00    +0.000 A 
ATOM     16  C   UNL     1      -4.654  -1.902  23.822  0.00  0.00    +0.000 A 
ATOM     17  C   UNL     1      -4.539  -2.716  23.904  0.00  0.00    +0.000 A 
ATOM     18  C   UNL     1      -3.807  -3.006  24.148  0.00  0.00    +0.000 A 
ATOM     19  C   UNL     1      -3.189  -2.484  24.310  0.00  0.00    +0.000 A 
ATOM     20  C   UNL     1      -2.457  -2.774  24.554  0.00  0.00    +0.000 A 
ATOM     21  C   UNL     1      -1.839  -2.252  24.716  0.00  0.00    +0.003 A 
ENDBRANCH   9  12
BRANCH   7   6
ATOM      1  C   UNL     1       0.499   0.887  23.655  0.00  0.00    +0.090 C 
ATOM      2  N   UNL     1       0.140   1.303  24.270  0.00  0.00    -0.264 NA
ATOM      3  C   UNL     1       0.226   2.109  24.426  0.00  0.00    +0.094 C 
ATOM      4  C   UNL     1      -0.230   2.290  25.089  0.00  0.00    +0.113 C 
ATOM      5  C   UNL     1      -0.598   1.597  25.343  0.00  0.00    +0.049 C 
ATOM      6  C   UNL     1      -0.369   0.987  24.837  0.00  0.00    +0.139 C 
BRANCH   4  22
ATOM     22  N   UNL     1      -0.305   3.035  25.437  0.00  0.00    -0.206 NA
ATOM     23  C   UNL     1      -0.908   3.544  25.198  0.00  0.00    +0.241 C 
ATOM     24  O   UNL     1      -1.438   3.308  24.610  0.00  0.00    -0.273 OA
BRANCH  23  25
ATOM     25  C   UNL     1      -0.982   4.288  25.546  0.00  0.00    +0.087 C 
BRANCH  25  26
ATOM     26  C   UNL     1      -1.499   4.844  25.224  0.00  0.00    +0.009 C 
ATOM     27  C   UNL     1      -2.015   5.402  24.901  0.00  0.00    +0.000 C 
ATOM     28  C   UNL     1      -2.121   4.515  25.653  0.00  0.00    +0.000 C 
ATOM     29  C   UNL     1      -0.876   5.174  24.794  0.00  0.00    +0.000 C 
ENDBRANCH  25  26
ENDBRANCH  23  25
ENDBRANCH   4  22
ENDBRANCH   7   6
TORSDOF 5
ENDMDL
MODEL 3
REMARK VINA RESULT:     -12.5      2.447      6.334
REMARK  Name = 
REMARK  5 active torsions:
REMARK  status: ('A' for Active; 'I' for Inactive)
REMARK    1  A    between atoms: C_4  and  N_22
REMARK    2  A    between atoms: C_6  and  C_7
REMARK    3  A    between atoms: C_9  and  C_12
REMARK    4  A    between atoms: C_23  and  C_25
REMARK    5  A    between atoms: C_25  and  C_26
REMARK                            x       y       z     vdW  Elec       q    Type
REMARK                         _______ _______ _______ _____ _____    ______ ____
ROOT
ATOM      7  C   UNL     1      -0.303   0.986  24.798  0.00  0.00    +0.251 A 
ATOM      8  N   UNL     1      -0.807   1.638  24.751  0.00  0.00    -0.190 NA
ATOM      9  C   UNL     1      -0.373   2.310  24.955  0.00  0.00    +0.203 A 
ATOM     10  N   UNL     1       0.399   2.074  25.127  0.00  0.00    -0.056 NA
ATOM     11  O   UNL     1       0.442   1.255  25.030  0.00  0.00    -0.336 OA
ENDROOT
BRANCH   9  12
ATOM     12  C   UNL     1      -0.662   3.083  24.981  0.00  0.00    +0.039 A 
ATOM     13  C   UNL     1      -1.379   3.243  25.355  0.00  0.00    +0.003 A 
ATOM     14  C   UNL     1      -1.666   4.015  25.381  0.00  0.00    +0.000 A 
ATOM     15  C   UNL     1      -2.384   4.177  25.755  0.00  0.00    +0.000 A 
ATOM     16  C   UNL     1      -2.672   4.949  25.781  0.00  0.00    +0.000 A 
ATOM     17  C   UNL     1      -2.242   5.561  25.432  0.00  0.00    +0.000 A 
ATOM     18  C   UNL     1      -1.525   5.401  25.058  0.00  0.00    +0.000 A 
ATOM     19  C   UNL     1      -1.236   4.628  25.032  0.00  0.00    +0.000 A 
ATOM     20  C   UNL     1      -0.520   4.468  24.658  0.00  0.00    +0.000 A 
ATOM     21  C   UNL     1      -0.232   3.695  24.632  0.00  0.00    +0.003 A 
ENDBRANCH   9  12
BRANCH   7   6
ATOM      1  C   UNL     1       0.421  -0.058  23.530  0.00  0.00    +0.090 C 
ATOM      2  N   UNL     1      -0.175  -0.277  24.057  0.00  0.00    -0.264 NA
ATOM      3  C   UNL     1      -0.543  -1.015  24.094  0.00  0.00    +0.094 C 
ATOM      4  C   UNL     1      -1.102  -0.990  24.700  0.00  0.00    +0.113 C 
ATOM      5  C   UNL     1      -1.081  -0.238  25.037  0.00  0.00    +0.049 C 
ATOM      6  C   UNL     1      -0.507   0.202  24.640  0.00  0.00    +0.139 C 
BRANCH   4  22
ATOM     22  N   UNL     1      -1.596  -1.610  24.928  0.00  0.00    -0.206 NA
ATOM     23  C   UNL     1      -2.372  -1.644  24.649  0.00  0.00    +0.241 C 
ATOM     24  O   UNL     1      -2.654  -1.057  24.142  0.00  0.00    -0.273 OA
BRANCH  23  25
ATOM     25  C   UNL     1      -2.866  -2.264  24.878  0.00  0.00    +0.087 C 
BRANCH  25  26
ATOM     26  C   UNL     1      -3.570  -2.402  24.470  0.00  0.00    +0.009 C 
ATOM     27  C   UNL     1      -4.274  -2.541  24.062  0.00  0.00    +0.000 C 
ATOM     28  C   UNL     1      -3.927  -1.780  24.877  0.00  0.00    +0.000 C 
ATOM     29  C   UNL     1      -3.213  -3.025  24.063  0.00  0.00    +0.000 C 
ENDBRANCH  25  26
ENDBRANCH  23  25
ENDBRANCH   4  22
ENDBRANCH   7   6
TORSDOF 5
ENDMDL
MODEL 4
REMARK VINA RESULT:     -11.5      1.084      5.548
REMARK  Name = 
REMARK  5 active torsions:
REMARK  status: ('A' for Active; 'I' for Inactive)
REMARK    1  A    between atoms: C_4  and  N_22
REMARK    2  A    between atoms: C_6  and  C_7
REMARK    3  A    between atoms: C_9  and  C_12
REMARK    4  A    between atoms: C_23  and  C_25
REMARK    5  A    between atoms: C_25  and  C_26
REMARK                            x       y       z     vdW  Elec       q    Type
REMARK                         _______ _______ _______ _____ _____    ______ ____
ROOT
ATOM      7  C   UNL     1      -4.269   1.990  24.689  0.00  0.00    +0.251 A 
ATOM      8  N   UNL     1      -3.528   2.311  24.859  0.00  0.00    -0.190 NA
ATOM      9  C   UNL     1      -3.577   3.129  24.761  0.00  0.00    +0.203 A 
ATOM     10  N   UNL     1      -4.348   3.314  24.530  0.00  0.00    -0.056 NA
ATOM     11  O   UNL     1      -4.776   2.609  24.486  0.00  0.00    -0.336 OA
ENDROOT
BRANCH   9  12
ATOM     12  C   UNL     1      -2.961   3.667  24.873  0.00  0.00    +0.039 A 
ATOM     13  C   UNL     1      -2.201   3.486  24.612  0.00  0.00    +0.003 A 
ATOM     14  C   UNL     1      -1.587   4.024  24.725  0.00  0.00    +0.000 A 
ATOM     15  C   UNL     1      -0.825   3.842  24.464  0.00  0.00    +0.000 A 
ATOM     16  C   UNL     1      -0.211   4.380  24.577  0.00  0.00    +0.000 A 
ATOM     17  C   UNL     1      -0.357   5.102  24.951  0.00  0.00    +0.000 A 
ATOM     18  C   UNL     1      -1.118   5.284  25.212  0.00  0.00    +0.000 A 
ATOM     19  C   UNL     1      -1.733   4.745  25.099  0.00  0.00    +0.000 A 
ATOM     20  C   UNL     1      -2.494   4.927  25.360  0.00  0.00    +0.000 A 
ATOM     21  C   UNL     1      -3.108   4.389  25.247  0.00  0.00    +0.003 A 
ENDBRANCH   9  12
BRANCH   7   6
ATOM      1  C   UNL     1      -5.571   1.263  25.689  0.00  0.00    +0.090 C 
ATOM      2  N   UNL     1      -5.068   0.856  25.177  0.00  0.00    -0.264 NA
ATOM      3  C   UNL     1      -5.075   0.043  25.034  0.00  0.00    +0.094 C 
ATOM      4  C   UNL     1      -4.480  -0.124  24.487  0.00  0.00    +0.113 C 
ATOM      5  C   UNL     1      -4.106   0.585  24.291  0.00  0.00    +0.049 C 
ATOM      6  C   UNL     1      -4.470   1.190  24.717  0.00  0.00    +0.139 C 
BRANCH   4  22
ATOM     22  N   UNL     1      -4.293  -0.870  24.188  0.00  0.00    -0.206 NA
ATOM     23  C   UNL     1      -3.731  -1.338  24.569  0.00  0.00    +0.241 C 
ATOM     24  O   UNL     1      -3.356  -1.061  25.250  0.00  0.00    -0.273 OA
BRANCH  23  25
ATOM     25  C   UNL     1      -3.545  -2.084  24.270  0.00  0.00    +0.087 C 
BRANCH  25  26
ATOM     26  C   UNL     1      -2.924  -2.516  24.597  0.00  0.00    +0.009 C 
ATOM     27  C   UNL     1      -2.301  -2.949  24.925  0.00  0.00    +0.000 C 
ATOM     28  C   UNL     1      -3.462  -2.947  25.051  0.00  0.00    +0.000 C 
ATOM     29  C   UNL     1      -2.384  -2.086  24.144  0.00  0.00    +0.000 C 
ENDBRANCH  25  26
ENDBRANCH  23  25
ENDBRANCH   4  22
ENDBRANCH   7   6
TORSDOF 5
ENDMDL
