MODEL 1
REMARK VINA RESULT:     -12.3      0.000      0.000
REMARK  Name = 
REMARK  6 active torsions:
REMARK  status: ('A' for Active; 'I' for Inactive)
REMARK    1  A    between atoms: C_2  and  C_3
REMARK    2  A    between atoms: C_8  and  C_9
REMARK    3  A    between atoms: C_9  and  C_10
REMARK    4  A    between atoms: N_12  and  C_13
REMARK    5  A    between atoms: C_13  and  C_14
REMARK    6  A    between atoms: N_21  and  C_22
REMARK                            x       y       z     vdW  Elec       q    Type
REMARK                         _______ _______ _______ _____ _____    ______ ____
ROOT
ATOM      3  C   UNL     1      -4.568   1.813  25.025  0.00  0.00    +0.020 C 
ATOM      4  C   UNL     1      -4.427   1.008  24.905  0.00  0.00    +0.095 C 
ATOM      5  N   UNL     1      -3.670   0.747  24.707  0.00  0.00    -0.263 N 
ATOM      6  C   UNL     1      -3.054   1.291  24.628  0.00  0.00    +0.095 C 
ATOM      7  C   UNL     1      -3.194   2.095  24.747  0.00  0.00    +0.022 C 
ATOM      8  C   UNL     1      -3.951   2.356  24.946  0.00  0.00    +0.012 C 
ATOM     19  C   UNL     1      -3.529  -0.056  24.588  0.00  0.00    +0.327 C 
ATOM     20  O   UNL     1      -2.772  -0.318  24.389  0.00  0.00    -0.250 OA
ATOM     21  N   UNL     1      -4.145  -0.599  24.666  0.00  0.00    -0.162 NA
ENDROOT
BRANCH  21  22
ATOM     22  C   UNL     1      -4.005  -1.403  24.547  0.00  0.00    +0.075 A 
ATOM     23  C   UNL     1      -3.618  -1.845  25.126  0.00  0.00    +0.017 A 
ATOM     24  C   UNL     1      -3.478  -2.650  25.006  0.00  0.00    +0.001 A 
ATOM     25  C   UNL     1      -3.725  -3.012  24.307  0.00  0.00    +0.000 A 
ATOM     26  C   UNL     1      -4.112  -2.569  23.728  0.00  0.00    +0.001 A 
ATOM     27  C   UNL     1      -4.252  -1.765  23.848  0.00  0.00    +0.017 A 
ENDBRANCH  21  22
BRANCH   3   2
ATOM      1  C   UNL     1      -5.988   1.670  24.943  0.00  0.00    +0.000 C 
ATOM      2  C   UNL     1      -5.325   2.074  25.223  0.00  0.00    +0.002 C 
ENDBRANCH   3   2
BRANCH   8   9
ATOM      9  C   UNL     1      -4.092   3.160  25.065  0.00  0.00    +0.087 C 
BRANCH   9  10
ATOM     10  C   UNL     1      -3.571   3.606  25.524  0.00  0.00    +0.242 C 
ATOM     11  O   UNL     1      -3.676   3.651  26.341  0.00  0.00    -0.273 OA
ATOM     12  N   UNL     1      -2.945   4.006  25.165  0.00  0.00    -0.197 NA
BRANCH  12  13
ATOM     13  C   UNL     1      -2.424   4.451  25.623  0.00  0.00    +0.179 C 
BRANCH  13  14
ATOM     14  C   UNL     1      -1.725   4.738  25.291  0.00  0.00    +0.145 A 
ATOM     15  C   UNL     1      -1.597   5.507  25.020  0.00  0.00    +0.038 A 
ATOM     16  C   UNL     1      -0.824   5.551  24.733  0.00  0.00    +0.043 A 
ATOM     17  C   UNL     1      -0.475   4.809  24.828  0.00  0.00    +0.179 A 
ATOM     18  O   UNL     1      -1.031   4.307  25.172  0.00  0.00    -0.453 OA
ENDBRANCH  13  14
ENDBRANCH  12  13
ENDBRANCH   9  10
ENDBRANCH   8   9
TORSDOF 6
ENDMDL
MODEL 2
REMARK VINA RESULT:     -11.2      2.060      2.849
REMARK  Name = 
REMARK  6 active torsions:
REMARK  status: ('A' for Active; 'I' for Inactive)
REMARK    1  A    between atoms: C_2  and  C_3
REMARK    2  A    between atoms: C_8  and  C_9
REMARK    3  A    between atoms: C_9  and  C_10
REMARK    4  A    between atoms: N_12  and  C_13
REMARK    5  A    between atoms: C_13  and  C_14
REMARK    6  A    between atoms: N_21  and  C_22
REMARK                            x       y       z     vdW  Elec       q    Type
REMARK                         _______ _______ _______ _____ _____    ______ ____
ROOT
ATOM      3  C   UNL     1      -0.552   0.579  24.286  0.00  0.00    +0.020 C 
ATOM      4  C   UNL     1      -1.136  -0.005  24.296  0.00  0.00    +0.095 C 
ATOM      5  N   UNL     1      -1.639  -0.074  24.946  0.00  0.00    -0.263 N 
ATOM      6  C   UNL     1      -1.559   0.441  25.586  0.00  0.00    +0.095 C 
ATOM      7  C   UNL     1      -0.975   1.024  25.576  0.00  0.00    +0.022 C 
ATOM      8  C   UNL     1      -0.472   1.093  24.927  0.00  0.00    +0.012 C 
ATOM     19  C   UNL     1      -2.222  -0.657  24.955  0.00  0.00    +0.327 C 
ATOM     20  O   UNL     1      -2.726  -0.726  25.605  0.00  0.00    -0.250 OA
ATOM     21  N   UNL     1      -2.302  -1.171  24.316  0.00  0.00    -0.162 NA
ENDROOT
BRANCH  21  22
ATOM     22  C   UNL     1      -2.885  -1.754  24.325  0.00  0.00    +0.075 A 
ATOM     23  C   UNL     1      -2.732  -2.486  24.673  0.00  0.00    +0.017 A 
ATOM     24  C   UNL     1      -3.316  -3.069  24.682  0.00  0.00    +0.001 A 
ATOM     25  C   UNL     1      -4.052  -2.921  24.342  0.00  0.00    +0.000 A 
ATOM     26  C   UNL     1      -4.205  -2.188  23.993  0.00  0.00    +0.001 A 
ATOM     27  C   UNL     1      -3.622  -1.606  23.984  0.00  0.00    +0.017 A 
ENDBRANCH  21  22
BRANCH   3   2
ATOM      1  C   UNL     1       0.306  -0.025  23.315  0.00  0.00    +0.000 C 
ATOM      2  C   UNL     1      -0.048   0.648  23.636  0.00  0.00    +0.002 C 
ENDBRANCH   3   2
BRANCH   8   9
ATOM      9  C   UNL     1       0.112   1.676  24.916  0.00  0.00    +0.087 C 
BRANCH   9  10
ATOM     10  C   UNL     1       0.036   2.343  25.396  0.00  0.00    +0.242 C 
ATOM     11  O   UNL     1       0.360   2.345  26.155  0.00  0.00    -0.273 OA
ATOM     12  N   UNL     1      -0.366   3.008  25.117  0.00  0.00    -0.197 NA
BRANCH  12  13
ATOM     13  C   UNL     1      -0.442   3.675  25.597  0.00  0.00    +0.179 C 
BRANCH  13  14
ATOM     14  C   UNL     1      -0.956   4.283  25.379  0.00  0.00    +0.145 A 
ATOM     15  C   UNL     1      -0.760   4.941  24.921  0.00  0.00    +0.038 A 
ATOM     16  C   UNL     1      -1.439   5.405  24.840  0.00  0.00    +0.043 A 
ATOM     17  C   UNL     1      -2.052   5.033  25.247  0.00  0.00    +0.179 A 
ATOM     18  O   UNL     1      -1.754   4.340  25.581  0.00  0.00    -0.453 OA
ENDBRANCH  13  14
ENDBRANCH  12  13
ENDBRANCH   9  10
ENDBRANCH   8   9
TORSDOF 6
ENDMDL
MODEL 3
REMARK VINA RESULT:     -10.6      2.138      6.140
REMARK  Name = 
REMARK  6 active torsions:
REMARK  status: ('A' for Active; 'I' for Inactive)
REMARK    1  A    between atoms: C_2  and  C_3
REMARK    2  A    between atoms: C_8  and  C_9
REMARK    3  A    between atoms: C_9  and  C_10
REMARK    4  A    between atoms: N_12  and  C_13
REMARK    5  A    between atoms: C_13  and  C_14
REMARK    6  A    between atoms: N_21  and  C_22
REMARK                            x       y       z     vdW  Elec       q    Type
REMARK                         _______ _______ _______ _____ _____    ______ ____
ROOT
ATOM      3  C   UNL     1      -0.503   0.575  24.231  0.00  0.00    +0.020 C 
ATOM      4  C   UNL     1      -0.653   1.374  24.379  0.00  0.00    +0.095 C 
ATOM      5  N   UNL     1      -0.980   1.605  25.100  0.00  0.00    -0.263 N 
ATOM      6  C   UNL     1      -1.158   1.039  25.673  0.00  0.00    +0.095 C 
ATOM      7  C   UNL     1      -1.009   0.241  25.526  0.00  0.00    +0.022 C 
ATOM      8  C   UNL     1      -0.682   0.009  24.805  0.00  0.00    +0.012 C 
ATOM     19  C   UNL     1      -1.129   2.403  25.247  0.00  0.00    +0.327 C 
ATOM     20  O   UNL     1      -1.457   2.635  25.968  0.00  0.00    -0.250 OA
ATOM     21  N   UNL     1      -0.951   2.968  24.675  0.00  0.00    -0.162 NA
ENDROOT
BRANCH  21  22
ATOM     22  C   UNL     1      -1.100   3.767  24.822  0.00  0.00    +0.075 A 
ATOM     23  C   UNL     1      -1.865   4.018  25.000  0.00  0.00    +0.017 A 
ATOM     24  C   UNL     1      -2.014   4.816  25.147  0.00  0.00    +0.001 A 
ATOM     25  C   UNL     1      -1.396   5.363  25.116  0.00  0.00    +0.000 A 
ATOM     26  C   UNL     1      -0.631   5.111  24.938  0.00  0.00    +0.001 A 
ATOM     27  C   UNL     1      -0.483   4.313  24.791  0.00  0.00    +0.017 A 
ENDBRANCH  21  22
BRANCH   3   2
ATOM      1  C   UNL     1       0.512   0.706  23.233  0.00  0.00    +0.000 C 
ATOM      2  C   UNL     1      -0.176   0.343  23.510  0.00  0.00    +0.002 C 
ENDBRANCH   3   2
BRANCH   8   9
ATOM      9  C   UNL     1      -0.533  -0.789  24.656  0.00  0.00    +0.087 C 
BRANCH   9  10
ATOM     10  C   UNL     1      -1.035  -1.366  24.965  0.00  0.00    +0.242 C 
ATOM     11  O   UNL     1      -0.864  -1.718  25.690  0.00  0.00    -0.273 OA
ATOM     12  N   UNL     1      -1.711  -1.590  24.546  0.00  0.00    -0.197 NA
BRANCH  12  13
ATOM     13  C   UNL     1      -2.213  -2.167  24.854  0.00  0.00    +0.179 C 
BRANCH  13  14
ATOM     14  C   UNL     1      -2.958  -2.286  24.518  0.00  0.00    +0.145 A 
ATOM     15  C   UNL     1      -3.325  -3.016  24.402  0.00  0.00    +0.038 A 
ATOM     16  C   UNL     1      -4.061  -2.877  24.051  0.00  0.00    +0.043 A 
ATOM     17  C   UNL     1      -4.146  -2.063  23.953  0.00  0.00    +0.179 A 
ATOM     18  O   UNL     1      -3.466  -1.697  24.241  0.00  0.00    -0.453 OA
ENDBRANCH  13  14
ENDBRANCH  12  13
ENDBRANCH   9  10
ENDBRANCH   8   9
TORSDOF 6
ENDMDL
MODEL 4
REMARK VINA RESULT:     -10.1      3.623      5.128
REMARK  Name = 
REMARK  6 active torsions:
REMARK  status: ('A' for Active; 'I' for Inactive)
REMARK    1  A    between atoms: C_2  and  C_3
REMARK    2  A    between atoms: C_8  and  C_9
REMARK    3  A    between atoms: C_9  and  C_10
REMARK    4  A    between atoms: N_12  and  C_13
REMARK    5  A    between atoms: C_13  and  C_14
REMARK    6  A    between atoms: N_21  and  C_22
REMARK                            x       y       z     vdW  Elec       q    Type
REMARK                         _______ _______ _______ _____ _____    ______ ____
ROOT
ATOM      3  C   UNL     1      -1.004   0.106  24.599  0.00  0.00    +0.020 C 
ATOM      4  C   UNL     1      -1.687   0.565  24.669  0.00  0.00    +0.095 C 
ATOM      5  N   UNL     1      -1.816   1.196  24.154  0.00  0.00    -0.263 N 
ATOM      6  C   UNL     1      -1.261   1.368  23.567  0.00  0.00    +0.095 C 
ATOM      7  C   UNL     1      -0.579   0.910  23.496  0.00  0.00    +0.022 C 
ATOM      8  C   UNL     1      -0.450   0.279  24.011  0.00  0.00    +0.012 C 
ATOM     19  C   UNL     1      -2.497   1.654  24.225  0.00  0.00    +0.327 C 
ATOM     20  O   UNL     1      -2.626   2.285  23.709  0.00  0.00    -0.250 OA
ATOM     21  N   UNL     1      -3.051   1.481  24.811  0.00  0.00    -0.162 NA
ENDROOT
BRANCH  21  22
ATOM     22  C   UNL     1      -3.734   1.939  24.882  0.00  0.00    +0.075 A 
ATOM     23  C   UNL     1      -4.449   1.664  24.580  0.00  0.00    +0.017 A 
ATOM     24  C   UNL     1      -5.132   2.122  24.651  0.00  0.00    +0.001 A 
ATOM     25  C   UNL     1      -5.098   2.856  25.026  0.00  0.00    +0.000 A 
ATOM     26  C   UNL     1      -4.381   3.132  25.328  0.00  0.00    +0.001 A 
ATOM     27  C   UNL     1      -3.699   2.674  25.257  0.00  0.00    +0.017 A 
ENDBRANCH  21  22
BRANCH   3   2
ATOM      1  C   UNL     1      -1.334  -0.601  25.797  0.00  0.00    +0.000 C 
ATOM      2  C   UNL     1      -0.876  -0.525  25.114  0.00  0.00    +0.002 C 
ENDBRANCH   3   2
BRANCH   8   9
ATOM      9  C   UNL     1       0.232  -0.180  23.941  0.00  0.00    +0.087 C 
BRANCH   9  10
ATOM     10  C   UNL     1       0.699  -0.121  23.264  0.00  0.00    +0.242 C 
ATOM     11  O   UNL     1       0.369  -0.263  22.521  0.00  0.00    -0.273 OA
ATOM     12  N   UNL     1       1.497   0.079  23.329  0.00  0.00    -0.197 NA
BRANCH  12  13
ATOM     13  C   UNL     1       1.964   0.138  22.652  0.00  0.00    +0.179 C 
BRANCH  13  14
ATOM     14  C   UNL     1       2.774   0.280  22.721  0.00  0.00    +0.145 A 
ATOM     15  C   UNL     1       3.136   1.020  22.740  0.00  0.00    +0.038 A 
ATOM     16  C   UNL     1       3.951   0.904  22.814  0.00  0.00    +0.043 A 
ATOM     17  C   UNL     1       4.090   0.092  22.840  0.00  0.00    +0.179 A 
ATOM     18  O   UNL     1       3.364  -0.295  22.783  0.00  0.00    -0.453 OA
ENDBRANCH  13  14
ENDBRANCH  12  13
ENDBRANCH   9  10
ENDBRANCH   8   9
TORSDOF 6
ENDMDL
MODEL 5
REMARK VINA RESULT:      -9.9      1.112      5.542
REMARK  Name = 
REMARK  6 active torsions:
REMARK  status: ('A' for Active; 'I' for Inactive)
REMARK    1  A    between atoms: C_2  and  C_3
REMARK    2  A    between atoms: C_8  and  C_9
REMARK    3  A    between atoms: C_9  and  C_10
REMARK    4  A    between atoms: N_12  and  C_13
REMARK    5  A    between atoms: C_13  and  C_14
REMARK    6  A    between atoms: N_21  and  C_22
REMARK                            x       y       z     vdW  Elec       q    Type
REMARK                         _______ _______ _______ _____ _____    ______ ____
ROOT
ATOM      3  C   UNL     1      -4.100   1.574  24.944  0.00  0.00    +0.020 C 
ATOM      4  C   UNL     1      -3.564   2.201  24.963  0.00  0.00    +0.095 C 
ATOM      5  N   UNL     1      -2.909   2.200  24.462  0.00  0.00    -0.263 N 
ATOM      6  C   UNL     1      -2.789   1.570  23.942  0.00  0.00    +0.095 C 
ATOM      7  C   UNL     1      -3.324   0.942  23.922  0.00  0.00    +0.022 C 
ATOM      8  C   UNL     1      -3.980   0.944  24.423  0.00  0.00    +0.012 C 
ATOM     19  C   UNL     1      -2.374   2.827  24.481  0.00  0.00    +0.327 C 
ATOM     20  O   UNL     1      -1.718   2.825  23.980  0.00  0.00    -0.250 OA
ATOM     21  N   UNL     1      -2.494   3.455  25.000  0.00  0.00    -0.162 NA
ENDROOT
BRANCH  21  22
ATOM     22  C   UNL     1      -1.959   4.083  25.020  0.00  0.00    +0.075 A 
ATOM     23  C   UNL     1      -1.148   3.934  25.053  0.00  0.00    +0.017 A 
ATOM     24  C   UNL     1      -0.613   4.562  25.072  0.00  0.00    +0.001 A 
ATOM     25  C   UNL     1      -0.890   5.340  25.059  0.00  0.00    +0.000 A 
ATOM     26  C   UNL     1      -1.701   5.488  25.026  0.00  0.00    +0.001 A 
ATOM     27  C   UNL     1      -2.235   4.861  25.007  0.00  0.00    +0.017 A 
ENDBRANCH  21  22
BRANCH   3   2
ATOM      1  C   UNL     1      -5.192   2.268  25.551  0.00  0.00    +0.000 C 
ATOM      2  C   UNL     1      -4.756   1.575  25.444  0.00  0.00    +0.002 C 
ENDBRANCH   3   2
BRANCH   8   9
ATOM      9  C   UNL     1      -4.515   0.317  24.405  0.00  0.00    +0.087 C 
BRANCH   9  10
ATOM     10  C   UNL     1      -4.319  -0.380  24.009  0.00  0.00    +0.242 C 
ATOM     11  O   UNL     1      -4.357  -0.411  23.185  0.00  0.00    -0.273 OA
ATOM     12  N   UNL     1      -4.086  -1.046  24.437  0.00  0.00    -0.197 NA
BRANCH  12  13
ATOM     13  C   UNL     1      -3.890  -1.742  24.041  0.00  0.00    +0.179 C 
BRANCH  13  14
ATOM     14  C   UNL     1      -3.355  -2.272  24.380  0.00  0.00    +0.145 A 
ATOM     15  C   UNL     1      -3.541  -2.871  24.916  0.00  0.00    +0.038 A 
ATOM     16  C   UNL     1      -2.841  -3.266  25.109  0.00  0.00    +0.043 A 
ATOM     17  C   UNL     1      -2.225  -2.910  24.692  0.00  0.00    +0.179 A 
ATOM     18  O   UNL     1      -2.542  -2.296  24.241  0.00  0.00    -0.453 OA
ENDBRANCH  13  14
ENDBRANCH  12  13
ENDBRANCH   9  10
ENDBRANCH   8   9
TORSDOF 6
ENDMDL
MODEL 6
REMARK VINA RESULT:      -9.7      4.483      5.417
REMARK  Name = 
REMARK  6 active torsions:
REMARK  status: ('A' for Active; 'I' for Inactive)
REMARK    1  A    between atoms: C_2  and  C_3
REMARK    2  A    between atoms: C_8  and  C_9
REMARK    3  A    between atoms: C_9  and  C_10
REMARK    4  A    between atoms: N_12  and  C_13
REMARK    5  A    between atoms: C_13  and  C_14
REMARK    6  A    between atoms: N_21  and  C_22
REMARK                            x       y       z     vdW  Elec       q    Type
REMARK                         _______ _______ _______ _____ _____    ______ ____
ROOT
ATOM      3  C   UNL     1       0.233   1.027  23.971  0.00  0.00    +0.020 C 
ATOM      4  C   UNL     1      -0.457   0.643  24.214  0.00  0.00    +0.095 C 
ATOM      5  N   UNL     1      -0.548  -0.166  24.080  0.00  0.00    -0.263 N 
ATOM      6  C   UNL     1       0.051  -0.591  23.703  0.00  0.00    +0.095 C 
ATOM      7  C   UNL     1       0.740  -0.208  23.460  0.00  0.00    +0.022 C 
ATOM      8  C   UNL     1       0.831   0.601  23.594  0.00  0.00    +0.012 C 
ATOM     19  C   UNL     1      -1.236  -0.549  24.322  0.00  0.00    +0.327 C 
ATOM     20  O   UNL     1      -1.327  -1.358  24.188  0.00  0.00    -0.250 OA
ATOM     21  N   UNL     1      -1.834  -0.124  24.699  0.00  0.00    -0.162 NA
ENDROOT
BRANCH  21  22
ATOM     22  C   UNL     1      -2.523  -0.507  24.942  0.00  0.00    +0.075 A 
ATOM     23  C   UNL     1      -2.555  -0.870  25.681  0.00  0.00    +0.017 A 
ATOM     24  C   UNL     1      -3.245  -1.253  25.924  0.00  0.00    +0.001 A 
ATOM     25  C   UNL     1      -3.902  -1.273  25.427  0.00  0.00    +0.000 A 
ATOM     26  C   UNL     1      -3.870  -0.909  24.687  0.00  0.00    +0.001 A 
ATOM     27  C   UNL     1      -3.181  -0.527  24.444  0.00  0.00    +0.017 A 
ENDBRANCH  21  22
BRANCH   3   2
ATOM      1  C   UNL     1      -0.051   2.192  24.749  0.00  0.00    +0.000 C 
ATOM      2  C   UNL     1       0.323   1.836  24.105  0.00  0.00    +0.002 C 
ENDBRANCH   3   2
BRANCH   8   9
ATOM      9  C   UNL     1       1.520   0.985  23.352  0.00  0.00    +0.087 C 
BRANCH   9  10
ATOM     10  C   UNL     1       2.107   0.564  22.954  0.00  0.00    +0.242 C 
ATOM     11  O   UNL     1       1.912   0.097  22.302  0.00  0.00    -0.273 OA
ATOM     12  N   UNL     1       2.891   0.609  23.209  0.00  0.00    -0.197 NA
BRANCH  12  13
ATOM     13  C   UNL     1       3.479   0.188  22.812  0.00  0.00    +0.179 C 
BRANCH  13  14
ATOM     14  C   UNL     1       4.229   0.111  23.148  0.00  0.00    +0.145 A 
ATOM     15  C   UNL     1       4.810   0.695  23.176  0.00  0.00    +0.038 A 
ATOM     16  C   UNL     1       5.470   0.381  23.560  0.00  0.00    +0.043 A 
ATOM     17  C   UNL     1       5.295  -0.398  23.769  0.00  0.00    +0.179 A 
ATOM     18  O   UNL     1       4.529  -0.565  23.515  0.00  0.00    -0.453 OA
ENDBRANCH  13  14
ENDBRANCH  12  13
ENDBRANCH   9  10
ENDBRANCH   8   9
TORSDOF 6
ENDMDL
