MODEL 1
REMARK VINA RESULT:     -10.8      0.000      0.000
REMARK  Name = 
REMARK  6 active torsions:
REMARK  status: ('A' for Active; 'I' for Inactive)
REMARK    1  A    between atoms: N_4  and  C_5
REMARK    2  A    between atoms: C_5  and  C_6
REMARK    3  A    between atoms: C_8  and  C_9
REMARK    4  A    between atoms: C_9  and  C_10
REMARK    5  A    between atoms: N_12  and  C_13
REMARK    6  A    between atoms: C_13  and  C_14
REMARK                            x       y       z     vdW  Elec       q    Type
REMARK                         _______ _______ _______ _____ _____    ______ ____
ROOT
ATOM      6  C   UNL     1      -3.784   3.349  25.398  0.00  0.00    +0.170 C 
ATOM      7  O   UNL     1      -3.806   2.638  24.979  0.00  0.00    -0.351 OA
ATOM      8  C   UNL     1      -4.566   2.326  25.046  0.00  0.00    +0.157 C 
ATOM     21  C   UNL     1      -5.015   2.844  25.506  0.00  0.00    +0.212 C 
ATOM     22  O   UNL     1      -5.808   2.746  25.712  0.00  0.00    -0.218 OA
ATOM     23  C   UNL     1      -4.531   3.476  25.724  0.00  0.00    +0.213 C 
ATOM     24  O   UNL     1      -4.756   4.121  26.186  0.00  0.00    -0.218 OA
ENDROOT
BRANCH   6   5
ATOM      5  C   UNL     1      -3.130   3.846  25.477  0.00  0.00    +0.147 C 
BRANCH   5   4
ATOM      1  C   UNL     1      -0.955   3.738  25.335  0.00  0.00    +0.096 C 
ATOM      2  C   UNL     1      -1.717   4.046  25.403  0.00  0.00    +0.242 C 
ATOM      3  O   UNL     1      -1.829   4.861  25.465  0.00  0.00    -0.273 OA
ATOM      4  N   UNL     1      -2.368   3.538  25.409  0.00  0.00    -0.203 NA
ENDBRANCH   5   4
ENDBRANCH   6   5
BRANCH   8   9
ATOM      9  C   UNL     1      -4.832   1.620  24.711  0.00  0.00    +0.119 C 
BRANCH   9  10
ATOM     10  C   UNL     1      -4.299   1.118  24.332  0.00  0.00    +0.244 C 
ATOM     11  O   UNL     1      -3.854   1.393  23.694  0.00  0.00    -0.273 OA
ATOM     12  N   UNL     1      -4.210   0.340  24.592  0.00  0.00    -0.200 NA
BRANCH  12  13
ATOM     13  C   UNL     1      -3.677  -0.163  24.213  0.00  0.00    +0.141 C 
BRANCH  13  14
ATOM     14  C   UNL     1      -3.660  -0.966  24.405  0.00  0.00    -0.000 A 
ATOM     15  C   UNL     1      -4.030  -1.515  23.911  0.00  0.00    -0.000 A 
ATOM     16  C   UNL     1      -4.014  -2.317  24.103  0.00  0.00    +0.029 A 
ATOM     17  C   UNL     1      -3.629  -2.570  24.786  0.00  0.00    +0.140 A 
ATOM     18  F   UNL     1      -3.612  -3.373  24.977  0.00  0.00    -0.204 F 
ATOM     19  C   UNL     1      -3.259  -2.022  25.279  0.00  0.00    +0.029 A 
ATOM     20  C   UNL     1      -3.275  -1.219  25.088  0.00  0.00    -0.000 A 
ENDBRANCH  13  14
ENDBRANCH  12  13
ENDBRANCH   9  10
ENDBRANCH   8   9
TORSDOF 6
ENDMDL
MODEL 2
REMARK VINA RESULT:     -10.3      1.885      2.965
REMARK  Name = 
REMARK  6 active torsions:
REMARK  status: ('A' for Active; 'I' for Inactive)
REMARK    1  A    between atoms: N_4  and  C_5
REMARK    2  A    between atoms: C_5  and  C_6
REMARK    3  A    between atoms: C_8  and  C_9
REMARK    4  A    between atoms: C_9  and  C_10
REMARK    5  A    between atoms: N_12  and  C_13
REMARK    6  A    between atoms: C_13  and  C_14
REMARK                            x       y       z     vdW  Elec       q    Type
REMARK                         _______ _______ _______ _____ _____    ______ ____
ROOT
ATOM      6  C   UNL     1      -1.344   2.478  25.151  0.00  0.00    +0.170 C 
ATOM      7  O   UNL     1      -1.518   1.676  25.233  0.00  0.00    -0.351 OA
ATOM      8  C   UNL     1      -0.906   1.245  24.886  0.00  0.00    +0.157 C 
ATOM     21  C   UNL     1      -0.353   1.781  24.589  0.00  0.00    +0.212 C 
ATOM     22  O   UNL     1       0.347   1.589  24.198  0.00  0.00    -0.218 OA
ATOM     23  C   UNL     1      -0.625   2.544  24.753  0.00  0.00    +0.213 C 
ATOM     24  O   UNL     1      -0.242   3.246  24.554  0.00  0.00    -0.218 OA
ENDROOT
BRANCH   6   5
ATOM      5  C   UNL     1      -1.808   3.106  25.420  0.00  0.00    +0.147 C 
BRANCH   5   4
ATOM      1  C   UNL     1      -3.919   3.629  25.606  0.00  0.00    +0.096 C 
ATOM      2  C   UNL     1      -3.099   3.659  25.687  0.00  0.00    +0.242 C 
ATOM      3  O   UNL     1      -2.748   4.270  26.115  0.00  0.00    -0.273 OA
ATOM      4  N   UNL     1      -2.628   3.076  25.339  0.00  0.00    -0.203 NA
ENDBRANCH   5   4
ENDBRANCH   6   5
BRANCH   8   9
ATOM      9  C   UNL     1      -0.855   0.422  24.843  0.00  0.00    +0.119 C 
BRANCH   9  10
ATOM     10  C   UNL     1      -1.399  -0.046  25.251  0.00  0.00    +0.244 C 
ATOM     11  O   UNL     1      -1.364  -0.097  26.074  0.00  0.00    -0.273 OA
ATOM     12  N   UNL     1      -1.977  -0.462  24.835  0.00  0.00    -0.200 NA
BRANCH  12  13
ATOM     13  C   UNL     1      -2.521  -0.930  25.243  0.00  0.00    +0.141 C 
BRANCH  13  14
ATOM     14  C   UNL     1      -3.063  -1.391  24.825  0.00  0.00    -0.000 A 
ATOM     15  C   UNL     1      -2.970  -2.211  24.795  0.00  0.00    -0.000 A 
ATOM     16  C   UNL     1      -3.512  -2.671  24.377  0.00  0.00    +0.029 A 
ATOM     17  C   UNL     1      -4.145  -2.314  23.989  0.00  0.00    +0.140 A 
ATOM     18  F   UNL     1      -4.687  -2.775  23.571  0.00  0.00    -0.204 F 
ATOM     19  C   UNL     1      -4.237  -1.495  24.018  0.00  0.00    +0.029 A 
ATOM     20  C   UNL     1      -3.695  -1.033  24.437  0.00  0.00    -0.000 A 
ENDBRANCH  13  14
ENDBRANCH  12  13
ENDBRANCH   9  10
ENDBRANCH   8   9
TORSDOF 6
ENDMDL
MODEL 3
REMARK VINA RESULT:     -10.0      1.571      2.633
REMARK  Name = 
REMARK  6 active torsions:
REMARK  status: ('A' for Active; 'I' for Inactive)
REMARK    1  A    between atoms: N_4  and  C_5
REMARK    2  A    between atoms: C_5  and  C_6
REMARK    3  A    between atoms: C_8  and  C_9
REMARK    4  A    between atoms: C_9  and  C_10
REMARK    5  A    between atoms: N_12  and  C_13
REMARK    6  A    between atoms: C_13  and  C_14
REMARK                            x       y       z     vdW  Elec       q    Type
REMARK                         _______ _______ _______ _____ _____    ______ ____
ROOT
ATOM      6  C   UNL     1      -2.446   2.761  24.959  0.00  0.00    +0.170 C 
ATOM      7  O   UNL     1      -2.417   1.937  24.915  0.00  0.00    -0.351 OA
ATOM      8  C   UNL     1      -1.651   1.720  24.701  0.00  0.00    +0.157 C 
ATOM     21  C   UNL     1      -1.205   2.409  24.613  0.00  0.00    +0.212 C 
ATOM     22  O   UNL     1      -0.409   2.448  24.402  0.00  0.00    -0.218 OA
ATOM     23  C   UNL     1      -1.698   3.053  24.772  0.00  0.00    +0.213 C 
ATOM     24  O   UNL     1      -1.478   3.847  24.748  0.00  0.00    -0.218 OA
ENDROOT
BRANCH   6   5
ATOM      5  C   UNL     1      -3.108   3.214  25.154  0.00  0.00    +0.147 C 
BRANCH   5   4
ATOM      1  C   UNL     1      -5.229   2.936  25.585  0.00  0.00    +0.096 C 
ATOM      2  C   UNL     1      -4.499   3.301  25.471  0.00  0.00    +0.242 C 
ATOM      3  O   UNL     1      -4.427   4.117  25.561  0.00  0.00    -0.273 OA
ATOM      4  N   UNL     1      -3.839   2.849  25.268  0.00  0.00    -0.203 NA
ENDBRANCH   5   4
ENDBRANCH   6   5
BRANCH   8   9
ATOM      9  C   UNL     1      -1.377   0.949  24.595  0.00  0.00    +0.119 C 
BRANCH   9  10
ATOM     10  C   UNL     1      -1.711   0.330  25.026  0.00  0.00    +0.244 C 
ATOM     11  O   UNL     1      -1.526   0.235  25.824  0.00  0.00    -0.273 OA
ATOM     12  N   UNL     1      -2.231  -0.194  24.657  0.00  0.00    -0.200 NA
BRANCH  12  13
ATOM     13  C   UNL     1      -2.566  -0.814  25.088  0.00  0.00    +0.141 C 
BRANCH  13  14
ATOM     14  C   UNL     1      -3.087  -1.337  24.719  0.00  0.00    -0.000 A 
ATOM     15  C   UNL     1      -3.778  -1.052  24.369  0.00  0.00    -0.000 A 
ATOM     16  C   UNL     1      -4.299  -1.575  24.000  0.00  0.00    +0.029 A 
ATOM     17  C   UNL     1      -4.130  -2.381  23.982  0.00  0.00    +0.140 A 
ATOM     18  F   UNL     1      -4.651  -2.904  23.614  0.00  0.00    -0.204 F 
ATOM     19  C   UNL     1      -3.439  -2.666  24.333  0.00  0.00    +0.029 A 
ATOM     20  C   UNL     1      -2.918  -2.143  24.701  0.00  0.00    -0.000 A 
ENDBRANCH  13  14
ENDBRANCH  12  13
ENDBRANCH   9  10
ENDBRANCH   8   9
TORSDOF 6
ENDMDL
MODEL 4
REMARK VINA RESULT:      -9.9      2.831      4.711
REMARK  Name = 
REMARK  6 active torsions:
REMARK  status: ('A' for Active; 'I' for Inactive)
REMARK    1  A    between atoms: N_4  and  C_5
REMARK    2  A    between atoms: C_5  and  C_6
REMARK    3  A    between atoms: C_8  and  C_9
REMARK    4  A    between atoms: C_9  and  C_10
REMARK    5  A    between atoms: N_12  and  C_13
REMARK    6  A    between atoms: C_13  and  C_14
REMARK                            x       y       z     vdW  Elec       q    Type
REMARK                         _______ _______ _______ _____ _____    ______ ____
ROOT
ATOM      6  C   UNL     1      -1.838  -1.169  24.654  0.00  0.00    +0.170 C 
ATOM      7  O   UNL     1      -2.465  -0.664  24.832  0.00  0.00    -0.351 OA
ATOM      8  C   UNL     1      -3.101  -1.125  25.084  0.00  0.00    +0.157 C 
ATOM     21  C   UNL     1      -2.867  -1.917  25.062  0.00  0.00    +0.212 C 
ATOM     22  O   UNL     1      -3.332  -2.566  25.268  0.00  0.00    -0.218 OA
ATOM     23  C   UNL     1      -2.085  -1.943  24.796  0.00  0.00    +0.213 C 
ATOM     24  O   UNL     1      -1.633  -2.625  24.691  0.00  0.00    -0.218 OA
ENDROOT
BRANCH   6   5
ATOM      5  C   UNL     1      -1.093  -0.941  24.382  0.00  0.00    +0.147 C 
BRANCH   5   4
ATOM      1  C   UNL     1       0.016   0.892  23.966  0.00  0.00    +0.096 C 
ATOM      2  C   UNL     1      -0.186   0.093  23.995  0.00  0.00    +0.242 C 
ATOM      3  O   UNL     1       0.318  -0.471  23.666  0.00  0.00    -0.273 OA
ATOM      4  N   UNL     1      -0.891  -0.142  24.353  0.00  0.00    -0.203 NA
ENDBRANCH   5   4
ENDBRANCH   6   5
BRANCH   8   9
ATOM      9  C   UNL     1      -3.842  -0.845  25.317  0.00  0.00    +0.119 C 
BRANCH   9  10
ATOM     10  C   UNL     1      -4.241  -0.296  24.849  0.00  0.00    +0.244 C 
ATOM     11  O   UNL     1      -4.497  -0.507  24.093  0.00  0.00    -0.273 OA
ATOM     12  N   UNL     1      -4.384   0.463  25.136  0.00  0.00    -0.200 NA
BRANCH  12  13
ATOM     13  C   UNL     1      -4.783   1.013  24.667  0.00  0.00    +0.141 C 
BRANCH  13  14
ATOM     14  C   UNL     1      -4.893   1.784  24.940  0.00  0.00    -0.000 A 
ATOM     15  C   UNL     1      -4.388   2.386  24.689  0.00  0.00    -0.000 A 
ATOM     16  C   UNL     1      -4.498   3.157  24.961  0.00  0.00    +0.029 A 
ATOM     17  C   UNL     1      -5.112   3.326  25.484  0.00  0.00    +0.140 A 
ATOM     18  F   UNL     1      -5.222   4.097  25.757  0.00  0.00    -0.204 F 
ATOM     19  C   UNL     1      -5.617   2.724  25.736  0.00  0.00    +0.029 A 
ATOM     20  C   UNL     1      -5.507   1.952  25.463  0.00  0.00    -0.000 A 
ENDBRANCH  13  14
ENDBRANCH  12  13
ENDBRANCH   9  10
ENDBRANCH   8   9
TORSDOF 6
ENDMDL
MODEL 5
REMARK VINA RESULT:      -9.9      2.735      5.055
REMARK  Name = 
REMARK  6 active torsions:
REMARK  status: ('A' for Active; 'I' for Inactive)
REMARK    1  A    between atoms: N_4  and  C_5
REMARK    2  A    between atoms: C_5  and  C_6
REMARK    3  A    between atoms: C_8  and  C_9
REMARK    4  A    between atoms: C_9  and  C_10
REMARK    5  A    between atoms: N_12  and  C_13
REMARK    6  A    between atoms: C_13  and  C_14
REMARK                            x       y       z     vdW  Elec       q    Type
REMARK                         _______ _______ _______ _____ _____    ______ ____
ROOT
ATOM      6  C   UNL     1      -1.295  -0.408  24.368  0.00  0.00    +0.170 C 
ATOM      7  O   UNL     1      -1.759   0.272  24.314  0.00  0.00    -0.351 OA
ATOM      8  C   UNL     1      -1.260   0.909  24.156  0.00  0.00    +0.157 C 
ATOM     21  C   UNL     1      -0.487   0.624  24.112  0.00  0.00    +0.212 C 
ATOM     22  O   UNL     1       0.188   1.074  23.963  0.00  0.00    -0.218 OA
ATOM     23  C   UNL     1      -0.509  -0.191  24.243  0.00  0.00    +0.213 C 
ATOM     24  O   UNL     1       0.142  -0.698  24.248  0.00  0.00    -0.218 OA
ENDROOT
BRANCH   6   5
ATOM      5  C   UNL     1      -1.568  -1.172  24.521  0.00  0.00    +0.147 C 
BRANCH   5   4
ATOM      1  C   UNL     1      -3.456  -2.201  24.893  0.00  0.00    +0.096 C 
ATOM      2  C   UNL     1      -2.656  -2.072  24.741  0.00  0.00    +0.242 C 
ATOM      3  O   UNL     1      -2.143  -2.712  24.658  0.00  0.00    -0.273 OA
ATOM      4  N   UNL     1      -2.368  -1.301  24.672  0.00  0.00    -0.203 NA
ENDBRANCH   5   4
ENDBRANCH   6   5
BRANCH   8   9
ATOM      9  C   UNL     1      -1.493   1.695  24.058  0.00  0.00    +0.119 C 
BRANCH   9  10
ATOM     10  C   UNL     1      -2.242   1.868  23.759  0.00  0.00    +0.244 C 
ATOM     11  O   UNL     1      -2.411   1.732  22.963  0.00  0.00    -0.273 OA
ATOM     12  N   UNL     1      -2.822   2.178  24.257  0.00  0.00    -0.200 NA
BRANCH  12  13
ATOM     13  C   UNL     1      -3.572   2.351  23.958  0.00  0.00    +0.141 C 
BRANCH  13  14
ATOM     14  C   UNL     1      -4.173   2.592  24.469  0.00  0.00    -0.000 A 
ATOM     15  C   UNL     1      -4.787   2.072  24.657  0.00  0.00    -0.000 A 
ATOM     16  C   UNL     1      -5.388   2.313  25.168  0.00  0.00    +0.029 A 
ATOM     17  C   UNL     1      -5.377   3.072  25.490  0.00  0.00    +0.140 A 
ATOM     18  F   UNL     1      -5.979   3.312  26.002  0.00  0.00    -0.204 F 
ATOM     19  C   UNL     1      -4.764   3.591  25.302  0.00  0.00    +0.029 A 
ATOM     20  C   UNL     1      -4.162   3.350  24.791  0.00  0.00    -0.000 A 
ENDBRANCH  13  14
ENDBRANCH  12  13
ENDBRANCH   9  10
ENDBRANCH   8   9
TORSDOF 6
ENDMDL
MODEL 6
REMARK VINA RESULT:      -9.7      2.562      5.008
REMARK  Name = 
REMARK  6 active torsions:
REMARK  status: ('A' for Active; 'I' for Inactive)
REMARK    1  A    between atoms: N_4  and  C_5
REMARK    2  A    between atoms: C_5  and  C_6
REMARK    3  A    between atoms: C_8  and  C_9
REMARK    4  A    between atoms: C_9  and  C_10
REMARK    5  A    between atoms: N_12  and  C_13
REMARK    6  A    between atoms: C_13  and  C_14
REMARK                            x       y       z     vdW  Elec       q    Type
REMARK                         _______ _______ _______ _____ _____    ______ ____
ROOT
ATOM      6  C   UNL     1      -4.023   0.613  24.732  0.00  0.00    +0.170 C 
ATOM      7  O   UNL     1      -3.326   1.054  24.726  0.00  0.00    -0.351 OA
ATOM      8  C   UNL     1      -2.699   0.540  24.574  0.00  0.00    +0.157 C 
ATOM     21  C   UNL     1      -3.009  -0.220  24.484  0.00  0.00    +0.212 C 
ATOM     22  O   UNL     1      -2.576  -0.904  24.325  0.00  0.00    -0.218 OA
ATOM     23  C   UNL     1      -3.827  -0.175  24.582  0.00  0.00    +0.213 C 
ATOM     24  O   UNL     1      -4.355  -0.806  24.538  0.00  0.00    -0.218 OA
ENDROOT
BRANCH   6   5
ATOM      5  C   UNL     1      -4.783   0.907  24.863  0.00  0.00    +0.147 C 
BRANCH   5   4
ATOM      1  C   UNL     1      -5.728   2.710  25.650  0.00  0.00    +0.096 C 
ATOM      2  C   UNL     1      -5.625   1.991  25.259  0.00  0.00    +0.242 C 
ATOM      3  O   UNL     1      -6.263   1.635  24.875  0.00  0.00    -0.273 OA
ATOM      4  N   UNL     1      -4.885   1.626  25.253  0.00  0.00    -0.203 NA
ENDBRANCH   5   4
ENDBRANCH   6   5
BRANCH   8   9
ATOM      9  C   UNL     1      -1.902   0.749  24.520  0.00  0.00    +0.119 C 
BRANCH   9  10
ATOM     10  C   UNL     1      -1.572   1.261  25.076  0.00  0.00    +0.244 C 
ATOM     11  O   UNL     1      -1.298   0.967  25.796  0.00  0.00    -0.273 OA
ATOM     12  N   UNL     1      -1.516   2.067  24.911  0.00  0.00    -0.200 NA
BRANCH  12  13
ATOM     13  C   UNL     1      -1.186   2.580  25.467  0.00  0.00    +0.141 C 
BRANCH  13  14
ATOM     14  C   UNL     1      -1.237   3.395  25.357  0.00  0.00    -0.000 A 
ATOM     15  C   UNL     1      -1.894   3.809  25.640  0.00  0.00    -0.000 A 
ATOM     16  C   UNL     1      -1.946   4.624  25.530  0.00  0.00    +0.029 A 
ATOM     17  C   UNL     1      -1.343   5.027  25.137  0.00  0.00    +0.140 A 
ATOM     18  F   UNL     1      -1.395   5.844  25.027  0.00  0.00    -0.204 F 
ATOM     19  C   UNL     1      -0.687   4.615  24.854  0.00  0.00    +0.029 A 
ATOM     20  C   UNL     1      -0.635   3.798  24.964  0.00  0.00    -0.000 A 
ENDBRANCH  13  14
ENDBRANCH  12  13
ENDBRANCH   9  10
ENDBRANCH   8   9
TORSDOF 6
ENDMDL
