MODEL 1
REMARK VINA RESULT:     -10.7      0.000      0.000
REMARK  Name = 
REMARK  6 active torsions:
REMARK  status: ('A' for Active; 'I' for Inactive)
REMARK    1  A    between atoms: C_2  and  C_4
REMARK    2  A    between atoms: C_6  and  C_7
REMARK    3  A    between atoms: C_7  and  C_8
REMARK    4  A    between atoms: N_10  and  C_11
REMARK    5  A    between atoms: C_11  and  C_12
REMARK    6  A    between atoms: C_21  and  C_22
REMARK                            x       y       z     vdW  Elec       q    Type
REMARK                         _______ _______ _______ _____ _____    ______ ____
ROOT
ATOM      4  C   UNL     1      -1.711   3.101  25.176  0.00  0.00    +0.007 C 
ATOM      5  C   UNL     1      -2.292   2.518  25.103  0.00  0.00    +0.005 C 
ATOM      6  C   UNL     1      -3.086   2.734  25.045  0.00  0.00    +0.027 C 
ATOM     18  C   UNL     1      -3.300   3.530  25.061  0.00  0.00    -0.048 C 
ATOM     19  C   UNL     1      -4.094   3.745  25.004  0.00  0.00    +0.026 C 
ATOM     20  C   UNL     1      -2.720   4.111  25.135  0.00  0.00    -0.032 C 
ATOM     21  C   UNL     1      -1.925   3.897  25.192  0.00  0.00    +0.054 C 
ENDROOT
BRANCH   4   2
ATOM      1  C   UNL     1      -0.594   2.691  25.969  0.00  0.00    +0.000 C 
ATOM      2  C   UNL     1      -0.917   2.885  25.234  0.00  0.00    +0.000 C 
ATOM      3  C   UNL     1      -0.445   2.863  24.558  0.00  0.00    +0.000 C 
ENDBRANCH   4   2
BRANCH  21  22
ATOM     22  C   UNL     1      -1.345   4.478  25.266  0.00  0.00    +0.186 C 
ATOM     23  O   UNL     1      -1.555   5.276  25.243  0.00  0.00    -0.220 OA
ENDBRANCH  21  22
BRANCH   6   7
ATOM      7  C   UNL     1      -3.665   2.151  24.972  0.00  0.00    +0.091 C 
BRANCH   7   8
ATOM      8  C   UNL     1      -3.579   1.553  24.410  0.00  0.00    +0.242 C 
ATOM      9  O   UNL     1      -3.476   1.745  23.614  0.00  0.00    -0.273 OA
ATOM     10  N   UNL     1      -3.597   0.761  24.644  0.00  0.00    -0.199 NA
BRANCH  10  11
ATOM     11  C   UNL     1      -3.511   0.163  24.083  0.00  0.00    +0.160 C 
BRANCH  11  12
ATOM     12  C   UNL     1      -3.565  -0.627  24.312  0.00  0.00    +0.081 A 
ATOM     13  N   UNL     1      -3.168  -0.889  24.985  0.00  0.00    -0.246 NA
ATOM     14  C   UNL     1      -3.222  -1.681  25.214  0.00  0.00    +0.099 A 
ATOM     15  C   UNL     1      -3.673  -2.209  24.769  0.00  0.00    +0.021 A 
ATOM     16  C   UNL     1      -4.070  -1.946  24.096  0.00  0.00    +0.003 A 
ATOM     17  C   UNL     1      -4.016  -1.156  23.867  0.00  0.00    +0.017 A 
ENDBRANCH  11  12
ENDBRANCH  10  11
ENDBRANCH   7   8
ENDBRANCH   6   7
TORSDOF 6
ENDMDL
MODEL 2
REMARK VINA RESULT:     -10.5      1.661      4.630
REMARK  Name = 
REMARK  6 active torsions:
REMARK  status: ('A' for Active; 'I' for Inactive)
REMARK    1  A    between atoms: C_2  and  C_4
REMARK    2  A    between atoms: C_6  and  C_7
REMARK    3  A    between atoms: C_7  and  C_8
REMARK    4  A    between atoms: N_10  and  C_11
REMARK    5  A    between atoms: C_11  and  C_12
REMARK    6  A    between atoms: C_21  and  C_22
REMARK                            x       y       z     vdW  Elec       q    Type
REMARK                         _______ _______ _______ _____ _____    ______ ____
ROOT
ATOM      4  C   UNL     1      -2.112  -0.958  24.883  0.00  0.00    +0.007 C 
ATOM      5  C   UNL     1      -2.636  -0.320  24.868  0.00  0.00    +0.005 C 
ATOM      6  C   UNL     1      -3.409  -0.428  24.602  0.00  0.00    +0.027 C 
ATOM     18  C   UNL     1      -3.658  -1.173  24.350  0.00  0.00    -0.048 C 
ATOM     19  C   UNL     1      -4.431  -1.281  24.084  0.00  0.00    +0.026 C 
ATOM     20  C   UNL     1      -3.135  -1.810  24.365  0.00  0.00    -0.032 C 
ATOM     21  C   UNL     1      -2.361  -1.703  24.631  0.00  0.00    +0.054 C 
ENDROOT
BRANCH   4   2
ATOM      1  C   UNL     1      -0.728  -0.731  24.607  0.00  0.00    +0.000 C 
ATOM      2  C   UNL     1      -1.339  -0.849  25.150  0.00  0.00    +0.000 C 
ATOM      3  C   UNL     1      -1.176  -0.859  25.958  0.00  0.00    +0.000 C 
ENDBRANCH   4   2
BRANCH  21  22
ATOM     22  C   UNL     1      -1.838  -2.339  24.646  0.00  0.00    +0.186 C 
ATOM     23  O   UNL     1      -2.052  -3.057  24.302  0.00  0.00    -0.220 OA
ENDBRANCH  21  22
BRANCH   6   7
ATOM      7  C   UNL     1      -3.932   0.209  24.587  0.00  0.00    +0.091 C 
BRANCH   7   8
ATOM      8  C   UNL     1      -3.683   0.941  24.295  0.00  0.00    +0.242 C 
ATOM      9  O   UNL     1      -3.499   1.025  23.495  0.00  0.00    -0.273 OA
ATOM     10  N   UNL     1      -3.618   1.588  24.804  0.00  0.00    -0.199 NA
BRANCH  10  11
ATOM     11  C   UNL     1      -3.368   2.318  24.512  0.00  0.00    +0.160 C 
BRANCH  11  12
ATOM     12  C   UNL     1      -3.212   2.938  25.033  0.00  0.00    +0.081 A 
ATOM     13  N   UNL     1      -3.834   3.329  25.406  0.00  0.00    -0.246 NA
ATOM     14  C   UNL     1      -3.677   3.950  25.928  0.00  0.00    +0.099 A 
ATOM     15  C   UNL     1      -2.898   4.177  26.075  0.00  0.00    +0.021 A 
ATOM     16  C   UNL     1      -2.277   3.785  25.703  0.00  0.00    +0.003 A 
ATOM     17  C   UNL     1      -2.433   3.165  25.181  0.00  0.00    +0.017 A 
ENDBRANCH  11  12
ENDBRANCH  10  11
ENDBRANCH   7   8
ENDBRANCH   6   7
TORSDOF 6
ENDMDL
MODEL 3
REMARK VINA RESULT:     -10.3      1.894      5.050
REMARK  Name = 
REMARK  6 active torsions:
REMARK  status: ('A' for Active; 'I' for Inactive)
REMARK    1  A    between atoms: C_2  and  C_4
REMARK    2  A    between atoms: C_6  and  C_7
REMARK    3  A    between atoms: C_7  and  C_8
REMARK    4  A    between atoms: N_10  and  C_11
REMARK    5  A    between atoms: C_11  and  C_12
REMARK    6  A    between atoms: C_21  and  C_22
REMARK                            x       y       z     vdW  Elec       q    Type
REMARK                         _______ _______ _______ _____ _____    ______ ____
ROOT
ATOM      4  C   UNL     1      -3.185  -0.608  24.937  0.00  0.00    +0.007 C 
ATOM      5  C   UNL     1      -2.617  -0.014  25.013  0.00  0.00    +0.005 C 
ATOM      6  C   UNL     1      -1.835  -0.211  25.184  0.00  0.00    +0.027 C 
ATOM     18  C   UNL     1      -1.620  -1.002  25.279  0.00  0.00    -0.048 C 
ATOM     19  C   UNL     1      -0.837  -1.198  25.450  0.00  0.00    +0.026 C 
ATOM     20  C   UNL     1      -2.187  -1.595  25.203  0.00  0.00    -0.032 C 
ATOM     21  C   UNL     1      -2.970  -1.399  25.032  0.00  0.00    +0.054 C 
ENDROOT
BRANCH   4   2
ATOM      1  C   UNL     1      -4.449  -0.088  25.353  0.00  0.00    +0.000 C 
ATOM      2  C   UNL     1      -3.967  -0.411  24.766  0.00  0.00    +0.000 C 
ATOM      3  C   UNL     1      -4.268  -0.536  24.009  0.00  0.00    +0.000 C 
ENDBRANCH   4   2
BRANCH  21  22
ATOM     22  C   UNL     1      -3.537  -1.993  24.957  0.00  0.00    +0.186 C 
ATOM     23  O   UNL     1      -3.339  -2.776  25.122  0.00  0.00    -0.220 OA
ENDBRANCH  21  22
BRANCH   6   7
ATOM      7  C   UNL     1      -1.268   0.383  25.259  0.00  0.00    +0.091 C 
BRANCH   7   8
ATOM      8  C   UNL     1      -1.260   1.015  24.728  0.00  0.00    +0.242 C 
ATOM      9  O   UNL     1      -1.143   0.876  23.923  0.00  0.00    -0.273 OA
ATOM     10  N   UNL     1      -1.369   1.786  25.003  0.00  0.00    -0.199 NA
BRANCH  10  11
ATOM     11  C   UNL     1      -1.361   2.417  24.471  0.00  0.00    +0.160 C 
BRANCH  11  12
ATOM     12  C   UNL     1      -1.432   3.190  24.750  0.00  0.00    +0.081 A 
ATOM     13  N   UNL     1      -0.773   3.684  24.770  0.00  0.00    -0.246 NA
ATOM     14  C   UNL     1      -0.844   4.458  25.050  0.00  0.00    +0.099 A 
ATOM     15  C   UNL     1      -1.576   4.736  25.308  0.00  0.00    +0.021 A 
ATOM     16  C   UNL     1      -2.236   4.242  25.288  0.00  0.00    +0.003 A 
ATOM     17  C   UNL     1      -2.165   3.469  25.009  0.00  0.00    +0.017 A 
ENDBRANCH  11  12
ENDBRANCH  10  11
ENDBRANCH   7   8
ENDBRANCH   6   7
TORSDOF 6
ENDMDL
MODEL 4
REMARK VINA RESULT:     -10.3      1.964      4.612
REMARK  Name = 
REMARK  6 active torsions:
REMARK  status: ('A' for Active; 'I' for Inactive)
REMARK    1  A    between atoms: C_2  and  C_4
REMARK    2  A    between atoms: C_6  and  C_7
REMARK    3  A    between atoms: C_7  and  C_8
REMARK    4  A    between atoms: N_10  and  C_11
REMARK    5  A    between atoms: C_11  and  C_12
REMARK    6  A    between atoms: C_21  and  C_22
REMARK                            x       y       z     vdW  Elec       q    Type
REMARK                         _______ _______ _______ _____ _____    ______ ____
ROOT
ATOM      4  C   UNL     1      -2.672  -1.210  24.756  0.00  0.00    +0.007 C 
ATOM      5  C   UNL     1      -2.703  -0.386  24.794  0.00  0.00    +0.005 C 
ATOM      6  C   UNL     1      -2.010   0.056  24.723  0.00  0.00    +0.027 C 
ATOM     18  C   UNL     1      -1.286  -0.326  24.615  0.00  0.00    -0.048 C 
ATOM     19  C   UNL     1      -0.594   0.116  24.545  0.00  0.00    +0.026 C 
ATOM     20  C   UNL     1      -1.256  -1.149  24.577  0.00  0.00    -0.032 C 
ATOM     21  C   UNL     1      -1.949  -1.591  24.648  0.00  0.00    +0.054 C 
ENDROOT
BRANCH   4   2
ATOM      1  C   UNL     1      -3.640  -1.871  25.573  0.00  0.00    +0.000 C 
ATOM      2  C   UNL     1      -3.365  -1.652  24.826  0.00  0.00    +0.000 C 
ATOM      3  C   UNL     1      -3.784  -1.873  24.152  0.00  0.00    +0.000 C 
ENDBRANCH   4   2
BRANCH  21  22
ATOM     22  C   UNL     1      -1.918  -2.414  24.610  0.00  0.00    +0.186 C 
ATOM     23  O   UNL     1      -1.194  -2.796  24.505  0.00  0.00    -0.220 OA
ENDBRANCH  21  22
BRANCH   6   7
ATOM      7  C   UNL     1      -2.041   0.879  24.761  0.00  0.00    +0.091 C 
BRANCH   7   8
ATOM      8  C   UNL     1      -2.630   1.289  24.352  0.00  0.00    +0.242 C 
ATOM      9  O   UNL     1      -2.640   1.281  23.527  0.00  0.00    -0.273 OA
ATOM     10  N   UNL     1      -3.208   1.705  24.768  0.00  0.00    -0.199 NA
BRANCH  10  11
ATOM     11  C   UNL     1      -3.796   2.114  24.359  0.00  0.00    +0.160 C 
BRANCH  11  12
ATOM     12  C   UNL     1      -4.400   2.492  24.774  0.00  0.00    +0.081 A 
ATOM     13  N   UNL     1      -4.279   3.247  25.082  0.00  0.00    -0.246 NA
ATOM     14  C   UNL     1      -4.884   3.625  25.498  0.00  0.00    +0.099 A 
ATOM     15  C   UNL     1      -5.609   3.246  25.605  0.00  0.00    +0.021 A 
ATOM     16  C   UNL     1      -5.730   2.491  25.297  0.00  0.00    +0.003 A 
ATOM     17  C   UNL     1      -5.126   2.114  24.881  0.00  0.00    +0.017 A 
ENDBRANCH  11  12
ENDBRANCH  10  11
ENDBRANCH   7   8
ENDBRANCH   6   7
TORSDOF 6
ENDMDL
MODEL 5
REMARK VINA RESULT:     -10.2      1.657      2.791
REMARK  Name = 
REMARK  6 active torsions:
REMARK  status: ('A' for Active; 'I' for Inactive)
REMARK    1  A    between atoms: C_2  and  C_4
REMARK    2  A    between atoms: C_6  and  C_7
REMARK    3  A    between atoms: C_7  and  C_8
REMARK    4  A    between atoms: N_10  and  C_11
REMARK    5  A    between atoms: C_11  and  C_12
REMARK    6  A    between atoms: C_21  and  C_22
REMARK                            x       y       z     vdW  Elec       q    Type
REMARK                         _______ _______ _______ _____ _____    ______ ____
ROOT
ATOM      4  C   UNL     1      -5.036   2.234  25.122  0.00  0.00    +0.007 C 
ATOM      5  C   UNL     1      -4.458   1.722  24.829  0.00  0.00    +0.005 C 
ATOM      6  C   UNL     1      -3.748   2.025  24.538  0.00  0.00    +0.027 C 
ATOM     18  C   UNL     1      -3.615   2.839  24.539  0.00  0.00    -0.048 C 
ATOM     19  C   UNL     1      -2.906   3.141  24.248  0.00  0.00    +0.026 C 
ATOM     20  C   UNL     1      -4.192   3.350  24.831  0.00  0.00    -0.032 C 
ATOM     21  C   UNL     1      -4.903   3.048  25.123  0.00  0.00    +0.054 C 
ENDROOT
BRANCH   4   2
ATOM      1  C   UNL     1      -6.347   1.716  24.891  0.00  0.00    +0.000 C 
ATOM      2  C   UNL     1      -5.745   1.931  25.413  0.00  0.00    +0.000 C 
ATOM      3  C   UNL     1      -5.854   1.843  26.225  0.00  0.00    +0.000 C 
ENDBRANCH   4   2
BRANCH  21  22
ATOM     22  C   UNL     1      -5.480   3.559  25.415  0.00  0.00    +0.186 C 
ATOM     23  O   UNL     1      -5.341   4.373  25.429  0.00  0.00    -0.220 OA
ENDBRANCH  21  22
BRANCH   6   7
ATOM      7  C   UNL     1      -3.172   1.513  24.246  0.00  0.00    +0.091 C 
BRANCH   7   8
ATOM      8  C   UNL     1      -2.842   0.938  24.739  0.00  0.00    +0.242 C 
ATOM      9  O   UNL     1      -2.392   1.164  25.392  0.00  0.00    -0.273 OA
ATOM     10  N   UNL     1      -2.964   0.137  24.578  0.00  0.00    -0.199 NA
BRANCH  10  11
ATOM     11  C   UNL     1      -2.635  -0.436  25.071  0.00  0.00    +0.160 C 
BRANCH  11  12
ATOM     12  C   UNL     1      -2.749  -1.236  24.905  0.00  0.00    +0.081 A 
ATOM     13  N   UNL     1      -2.158  -1.667  24.526  0.00  0.00    -0.246 NA
ATOM     14  C   UNL     1      -2.273  -2.468  24.359  0.00  0.00    +0.099 A 
ATOM     15  C   UNL     1      -2.979  -2.836  24.573  0.00  0.00    +0.021 A 
ATOM     16  C   UNL     1      -3.570  -2.404  24.952  0.00  0.00    +0.003 A 
ATOM     17  C   UNL     1      -3.456  -1.605  25.119  0.00  0.00    +0.017 A 
ENDBRANCH  11  12
ENDBRANCH  10  11
ENDBRANCH   7   8
ENDBRANCH   6   7
TORSDOF 6
ENDMDL
