MODEL 1
REMARK VINA RESULT:     -13.5      0.000      0.000
REMARK  Name = 
REMARK  4 active torsions:
REMARK  status: ('A' for Active; 'I' for Inactive)
REMARK    1  A    between atoms: C_5  and  N_6
REMARK    2  A    between atoms: C_14  and  O_16
REMARK    3  A    between atoms: O_16  and  C_17
REMARK    4  A    between atoms: C_20  and  C_23
REMARK                            x       y       z     vdW  Elec       q    Type
REMARK                         _______ _______ _______ _____ _____    ______ ____
ROOT
ATOM      6  N   UNL     1      -4.425  -0.347  24.947  0.00  0.00    -0.160 NA
ATOM      7  C   UNL     1      -4.107   0.322  24.584  0.00  0.00    +0.328 C 
ATOM      8  O   UNL     1      -3.494   0.244  24.038  0.00  0.00    -0.250 OA
ATOM      9  N   UNL     1      -4.403   1.070  24.767  0.00  0.00    -0.256 N 
ATOM     10  C   UNL     1      -5.016   1.087  25.319  0.00  0.00    +0.127 C 
ATOM     11  C   UNL     1      -5.424   1.740  25.614  0.00  0.00    +0.164 C 
ATOM     12  O   UNL     1      -5.321   2.538  25.430  0.00  0.00    -0.348 OA
ATOM     13  C   UNL     1      -4.783   2.879  24.905  0.00  0.00    +0.187 C 
ATOM     14  C   UNL     1      -4.217   2.507  24.435  0.00  0.00    +0.217 C 
ATOM     15  C   UNL     1      -4.047   1.702  24.373  0.00  0.00    +0.141 C 
ENDROOT
BRANCH   6   5
ATOM      1  F   UNL     1      -3.240  -3.340  24.215  0.00  0.00    -0.204 F 
ATOM      2  C   UNL     1      -3.536  -2.592  24.398  0.00  0.00    +0.142 A 
ATOM      3  C   UNL     1      -3.933  -2.153  23.823  0.00  0.00    +0.031 A 
ATOM      4  C   UNL     1      -4.229  -1.405  24.006  0.00  0.00    +0.021 A 
ATOM      5  C   UNL     1      -4.128  -1.096  24.764  0.00  0.00    +0.102 A 
ATOM     27  C   UNL     1      -3.732  -1.534  25.339  0.00  0.00    +0.158 A 
ATOM     28  F   UNL     1      -3.632  -1.226  26.097  0.00  0.00    -0.203 F 
ATOM     29  C   UNL     1      -3.436  -2.282  25.156  0.00  0.00    +0.061 A 
ENDBRANCH   6   5
BRANCH  14  16
ATOM     16  O   UNL     1      -3.758   3.006  23.964  0.00  0.00    -0.460 OA
BRANCH  16  17
ATOM     17  C   UNL     1      -3.084   3.364  24.278  0.00  0.00    +0.225 A 
ATOM     18  C   UNL     1      -3.153   4.060  24.715  0.00  0.00    +0.058 A 
ATOM     19  C   UNL     1      -2.478   4.418  25.028  0.00  0.00    +0.010 A 
ATOM     20  C   UNL     1      -1.737   4.080  24.904  0.00  0.00    +0.091 A 
ATOM     21  C   UNL     1      -1.668   3.384  24.467  0.00  0.00    +0.106 A 
ATOM     22  N   UNL     1      -2.342   3.026  24.154  0.00  0.00    -0.210 NA
BRANCH  20  23
ATOM     23  C   UNL     1      -1.062   4.438  25.218  0.00  0.00    +0.420 C 
ATOM     24  F   UNL     1      -0.388   4.796  25.531  0.00  0.00    -0.166 F 
ATOM     25  F   UNL     1      -0.891   3.748  25.636  0.00  0.00    -0.166 F 
ATOM     26  F   UNL     1      -1.234   5.128  24.799  0.00  0.00    -0.166 F 
ENDBRANCH  20  23
ENDBRANCH  16  17
ENDBRANCH  14  16
TORSDOF 4
ENDMDL
MODEL 2
REMARK VINA RESULT:     -13.4      0.963      5.499
REMARK  Name = 
REMARK  4 active torsions:
REMARK  status: ('A' for Active; 'I' for Inactive)
REMARK    1  A    between atoms: C_5  and  N_6
REMARK    2  A    between atoms: C_14  and  O_16
REMARK    3  A    between atoms: O_16  and  C_17
REMARK    4  A    between atoms: C_20  and  C_23
REMARK                            x       y       z     vdW  Elec       q    Type
REMARK                         _______ _______ _______ _____ _____    ______ ____
ROOT
ATOM      6  N   UNL     1      -2.793   3.378  25.172  0.00  0.00    -0.160 NA
ATOM      7  C   UNL     1      -2.814   2.677  24.737  0.00  0.00    +0.328 C 
ATOM      8  O   UNL     1      -2.176   2.469  24.257  0.00  0.00    -0.250 OA
ATOM      9  N   UNL     1      -3.473   2.183  24.782  0.00  0.00    -0.256 N 
ATOM     10  C   UNL     1      -4.081   2.441  25.278  0.00  0.00    +0.127 C 
ATOM     11  C   UNL     1      -4.802   2.076  25.439  0.00  0.00    +0.164 C 
ATOM     12  O   UNL     1      -5.096   1.364  25.146  0.00  0.00    -0.348 OA
ATOM     13  C   UNL     1      -4.739   0.839  24.618  0.00  0.00    +0.187 C 
ATOM     14  C   UNL     1      -4.002   0.899  24.253  0.00  0.00    +0.217 C 
ATOM     15  C   UNL     1      -3.438   1.496  24.326  0.00  0.00    +0.141 C 
ENDROOT
BRANCH   6   5
ATOM      1  F   UNL     1      -0.155   5.353  24.990  0.00  0.00    -0.204 F 
ATOM      2  C   UNL     1      -0.815   4.860  25.036  0.00  0.00    +0.142 A 
ATOM      3  C   UNL     1      -0.717   4.041  25.053  0.00  0.00    +0.031 A 
ATOM      4  C   UNL     1      -1.376   3.547  25.099  0.00  0.00    +0.021 A 
ATOM      5  C   UNL     1      -2.133   3.872  25.126  0.00  0.00    +0.102 A 
ATOM     27  C   UNL     1      -2.232   4.691  25.109  0.00  0.00    +0.158 A 
ATOM     28  F   UNL     1      -2.989   5.016  25.137  0.00  0.00    -0.203 F 
ATOM     29  C   UNL     1      -1.573   5.185  25.064  0.00  0.00    +0.061 A 
ENDBRANCH   6   5
BRANCH  14  16
ATOM     16  O   UNL     1      -3.801   0.277  23.748  0.00  0.00    -0.460 OA
BRANCH  16  17
ATOM     17  C   UNL     1      -3.726  -0.488  24.047  0.00  0.00    +0.225 A 
ATOM     18  C   UNL     1      -4.308  -1.051  23.890  0.00  0.00    +0.058 A 
ATOM     19  C   UNL     1      -4.233  -1.816  24.189  0.00  0.00    +0.010 A 
ATOM     20  C   UNL     1      -3.575  -2.019  24.643  0.00  0.00    +0.091 A 
ATOM     21  C   UNL     1      -2.992  -1.456  24.799  0.00  0.00    +0.106 A 
ATOM     22  N   UNL     1      -3.068  -0.691  24.501  0.00  0.00    -0.210 NA
BRANCH  20  23
ATOM     23  C   UNL     1      -3.499  -2.784  24.941  0.00  0.00    +0.420 C 
ATOM     24  F   UNL     1      -3.423  -3.550  25.239  0.00  0.00    -0.166 F 
ATOM     25  F   UNL     1      -3.570  -2.492  25.710  0.00  0.00    -0.166 F 
ATOM     26  F   UNL     1      -3.428  -3.077  24.173  0.00  0.00    -0.166 F 
ENDBRANCH  20  23
ENDBRANCH  16  17
ENDBRANCH  14  16
TORSDOF 4
ENDMDL
MODEL 3
REMARK VINA RESULT:     -13.3      2.088      6.055
REMARK  Name = 
REMARK  4 active torsions:
REMARK  status: ('A' for Active; 'I' for Inactive)
REMARK    1  A    between atoms: C_5  and  N_6
REMARK    2  A    between atoms: C_14  and  O_16
REMARK    3  A    between atoms: O_16  and  C_17
REMARK    4  A    between atoms: C_20  and  C_23
REMARK                            x       y       z     vdW  Elec       q    Type
REMARK                         _______ _______ _______ _____ _____    ______ ____
ROOT
ATOM      6  N   UNL     1      -0.817   2.556  24.615  0.00  0.00    -0.160 NA
ATOM      7  C   UNL     1      -1.133   1.876  24.961  0.00  0.00    +0.328 C 
ATOM      8  O   UNL     1      -1.715   1.940  25.542  0.00  0.00    -0.250 OA
ATOM      9  N   UNL     1      -0.867   1.132  24.724  0.00  0.00    -0.256 N 
ATOM     10  C   UNL     1      -0.284   1.130  24.139  0.00  0.00    +0.127 C 
ATOM     11  C   UNL     1       0.091   0.483  23.790  0.00  0.00    +0.164 C 
ATOM     12  O   UNL     1      -0.024  -0.320  23.939  0.00  0.00    -0.348 OA
ATOM     13  C   UNL     1      -0.542  -0.675  24.474  0.00  0.00    +0.187 C 
ATOM     14  C   UNL     1      -1.073  -0.315  24.992  0.00  0.00    +0.217 C 
ATOM     15  C   UNL     1      -1.218   0.489  25.103  0.00  0.00    +0.141 C 
ENDROOT
BRANCH   6   5
ATOM      1  F   UNL     1      -1.883   5.533  25.561  0.00  0.00    -0.204 F 
ATOM      2  C   UNL     1      -1.617   4.789  25.325  0.00  0.00    +0.142 A 
ATOM      3  C   UNL     1      -2.042   4.113  25.532  0.00  0.00    +0.031 A 
ATOM      4  C   UNL     1      -1.776   3.369  25.295  0.00  0.00    +0.021 A 
ATOM      5  C   UNL     1      -1.084   3.301  24.852  0.00  0.00    +0.102 A 
ATOM     27  C   UNL     1      -0.658   3.976  24.644  0.00  0.00    +0.158 A 
ATOM     28  F   UNL     1       0.034   3.908  24.201  0.00  0.00    -0.203 F 
ATOM     29  C   UNL     1      -0.924   4.720  24.881  0.00  0.00    +0.061 A 
ENDBRANCH   6   5
BRANCH  14  16
ATOM     16  O   UNL     1      -1.519  -0.828  25.461  0.00  0.00    -0.460 OA
BRANCH  16  17
ATOM     17  C   UNL     1      -2.144  -1.252  25.128  0.00  0.00    +0.225 A 
ATOM     18  C   UNL     1      -2.919  -0.987  25.227  0.00  0.00    +0.058 A 
ATOM     19  C   UNL     1      -3.544  -1.411  24.895  0.00  0.00    +0.010 A 
ATOM     20  C   UNL     1      -3.394  -2.098  24.465  0.00  0.00    +0.091 A 
ATOM     21  C   UNL     1      -2.619  -2.363  24.366  0.00  0.00    +0.106 A 
ATOM     22  N   UNL     1      -1.994  -1.939  24.698  0.00  0.00    -0.210 NA
BRANCH  20  23
ATOM     23  C   UNL     1      -4.019  -2.522  24.132  0.00  0.00    +0.420 C 
ATOM     24  F   UNL     1      -4.645  -2.947  23.800  0.00  0.00    -0.166 F 
ATOM     25  F   UNL     1      -4.224  -1.864  23.679  0.00  0.00    -0.166 F 
ATOM     26  F   UNL     1      -3.814  -3.180  24.586  0.00  0.00    -0.166 F 
ENDBRANCH  20  23
ENDBRANCH  16  17
ENDBRANCH  14  16
TORSDOF 4
ENDMDL
MODEL 4
REMARK VINA RESULT:     -12.9      2.225      2.940
REMARK  Name = 
REMARK  4 active torsions:
REMARK  status: ('A' for Active; 'I' for Inactive)
REMARK    1  A    between atoms: C_5  and  N_6
REMARK    2  A    between atoms: C_14  and  O_16
REMARK    3  A    between atoms: O_16  and  C_17
REMARK    4  A    between atoms: C_20  and  C_23
REMARK                            x       y       z     vdW  Elec       q    Type
REMARK                         _______ _______ _______ _____ _____    ______ ____
ROOT
ATOM      6  N   UNL     1      -1.647  -0.876  24.372  0.00  0.00    -0.160 NA
ATOM      7  C   UNL     1      -1.554  -0.215  24.857  0.00  0.00    +0.328 C 
ATOM      8  O   UNL     1      -2.060  -0.099  25.498  0.00  0.00    -0.250 OA
ATOM      9  N   UNL     1      -0.956   0.331  24.701  0.00  0.00    -0.256 N 
ATOM     10  C   UNL     1      -0.480   0.163  24.047  0.00  0.00    +0.127 C 
ATOM     11  C   UNL     1       0.156   0.595  23.751  0.00  0.00    +0.164 C 
ATOM     12  O   UNL     1       0.476   1.301  24.034  0.00  0.00    -0.348 OA
ATOM     13  C   UNL     1       0.237   1.749  24.684  0.00  0.00    +0.187 C 
ATOM     14  C   UNL     1      -0.380   1.602  25.211  0.00  0.00    +0.217 C 
ATOM     15  C   UNL     1      -0.911   0.971  25.219  0.00  0.00    +0.141 C 
ENDROOT
BRANCH   6   5
ATOM      1  F   UNL     1      -4.043  -3.058  24.996  0.00  0.00    -0.204 F 
ATOM      2  C   UNL     1      -3.444  -2.513  24.840  0.00  0.00    +0.142 A 
ATOM      3  C   UNL     1      -3.614  -1.706  24.827  0.00  0.00    +0.031 A 
ATOM      4  C   UNL     1      -3.015  -1.160  24.670  0.00  0.00    +0.021 A 
ATOM      5  C   UNL     1      -2.246  -1.422  24.528  0.00  0.00    +0.102 A 
ATOM     27  C   UNL     1      -2.075  -2.229  24.541  0.00  0.00    +0.158 A 
ATOM     28  F   UNL     1      -1.307  -2.491  24.398  0.00  0.00    -0.203 F 
ATOM     29  C   UNL     1      -2.674  -2.775  24.697  0.00  0.00    +0.061 A 
ENDBRANCH   6   5
BRANCH  14  16
ATOM     16  O   UNL     1      -0.479   2.161  25.810  0.00  0.00    -0.460 OA
BRANCH  16  17
ATOM     17  C   UNL     1      -0.760   2.915  25.628  0.00  0.00    +0.225 A 
ATOM     18  C   UNL     1      -1.522   3.137  25.854  0.00  0.00    +0.058 A 
ATOM     19  C   UNL     1      -1.802   3.891  25.672  0.00  0.00    +0.010 A 
ATOM     20  C   UNL     1      -1.321   4.423  25.264  0.00  0.00    +0.091 A 
ATOM     21  C   UNL     1      -0.559   4.201  25.039  0.00  0.00    +0.106 A 
ATOM     22  N   UNL     1      -0.279   3.447  25.221  0.00  0.00    -0.210 NA
BRANCH  20  23
ATOM     23  C   UNL     1      -1.601   5.177  25.082  0.00  0.00    +0.420 C 
ATOM     24  F   UNL     1      -1.881   5.932  24.900  0.00  0.00    -0.166 F 
ATOM     25  F   UNL     1      -2.348   4.863  24.929  0.00  0.00    -0.166 F 
ATOM     26  F   UNL     1      -0.854   5.492  25.236  0.00  0.00    -0.166 F 
ENDBRANCH  20  23
ENDBRANCH  16  17
ENDBRANCH  14  16
TORSDOF 4
ENDMDL
MODEL 5
REMARK VINA RESULT:     -12.2      2.128      2.837
REMARK  Name = 
REMARK  4 active torsions:
REMARK  status: ('A' for Active; 'I' for Inactive)
REMARK    1  A    between atoms: C_5  and  N_6
REMARK    2  A    between atoms: C_14  and  O_16
REMARK    3  A    between atoms: O_16  and  C_17
REMARK    4  A    between atoms: C_20  and  C_23
REMARK                            x       y       z     vdW  Elec       q    Type
REMARK                         _______ _______ _______ _____ _____    ______ ____
ROOT
ATOM      6  N   UNL     1      -2.079  -0.715  25.063  0.00  0.00    -0.160 NA
ATOM      7  C   UNL     1      -2.339   0.007  24.759  0.00  0.00    +0.328 C 
ATOM      8  O   UNL     1      -3.011   0.036  24.283  0.00  0.00    -0.250 OA
ATOM      9  N   UNL     1      -1.925   0.699  24.931  0.00  0.00    -0.256 N 
ATOM     10  C   UNL     1      -1.260   0.609  25.412  0.00  0.00    +0.127 C 
ATOM     11  C   UNL     1      -0.737   1.188  25.680  0.00  0.00    +0.164 C 
ATOM     12  O   UNL     1      -0.749   1.999  25.534  0.00  0.00    -0.348 OA
ATOM     13  C   UNL     1      -1.287   2.433  25.083  0.00  0.00    +0.187 C 
ATOM     14  C   UNL     1      -1.946   2.162  24.668  0.00  0.00    +0.217 C 
ATOM     15  C   UNL     1      -2.230   1.391  24.600  0.00  0.00    +0.141 C 
ENDROOT
BRANCH   6   5
ATOM      1  F   UNL     1      -3.735  -3.486  24.374  0.00  0.00    -0.204 F 
ATOM      2  C   UNL     1      -3.321  -2.793  24.546  0.00  0.00    +0.142 A 
ATOM      3  C   UNL     1      -3.717  -2.144  24.865  0.00  0.00    +0.031 A 
ATOM      4  C   UNL     1      -3.303  -1.451  25.038  0.00  0.00    +0.021 A 
ATOM      5  C   UNL     1      -2.493  -1.408  24.891  0.00  0.00    +0.102 A 
ATOM     27  C   UNL     1      -2.096  -2.057  24.572  0.00  0.00    +0.158 A 
ATOM     28  F   UNL     1      -1.286  -2.014  24.425  0.00  0.00    -0.203 F 
ATOM     29  C   UNL     1      -2.510  -2.750  24.400  0.00  0.00    +0.061 A 
ENDBRANCH   6   5
BRANCH  14  16
ATOM     16  O   UNL     1      -2.379   2.739  24.267  0.00  0.00    -0.460 OA
BRANCH  16  17
ATOM     17  C   UNL     1      -3.099   3.002  24.574  0.00  0.00    +0.225 A 
ATOM     18  C   UNL     1      -3.797   2.871  24.155  0.00  0.00    +0.058 A 
ATOM     19  C   UNL     1      -4.517   3.133  24.461  0.00  0.00    +0.010 A 
ATOM     20  C   UNL     1      -4.538   3.526  25.186  0.00  0.00    +0.091 A 
ATOM     21  C   UNL     1      -3.840   3.657  25.605  0.00  0.00    +0.106 A 
ATOM     22  N   UNL     1      -3.120   3.394  25.298  0.00  0.00    -0.210 NA
BRANCH  20  23
ATOM     23  C   UNL     1      -5.258   3.788  25.492  0.00  0.00    +0.420 C 
ATOM     24  F   UNL     1      -5.978   4.050  25.799  0.00  0.00    -0.166 F 
ATOM     25  F   UNL     1      -5.143   4.522  25.133  0.00  0.00    -0.166 F 
ATOM     26  F   UNL     1      -5.373   3.054  25.851  0.00  0.00    -0.166 F 
ENDBRANCH  20  23
ENDBRANCH  16  17
ENDBRANCH  14  16
TORSDOF 4
ENDMDL
