MODEL 1
REMARK VINA RESULT:     -16.1      0.000      0.000
REMARK  Name = 
REMARK  5 active torsions:
REMARK  status: ('A' for Active; 'I' for Inactive)
REMARK    1  A    between atoms: C_2  and  C_3
REMARK    2  A    between atoms: C_11  and  C_12
REMARK    3  A    between atoms: C_12  and  C_13
REMARK    4  A    between atoms: N_15  and  C_16
REMARK    5  A    between atoms: C_29  and  C_31
REMARK                            x       y       z     vdW  Elec       q    Type
REMARK                         _______ _______ _______ _____ _____    ______ ____
ROOT
ATOM      1  C   UNL     1      -2.328  -2.814  24.701  0.00  0.00    +0.005 C 
ATOM      2  C   UNL     1      -2.622  -2.051  24.594  0.00  0.00    +0.059 C 
ATOM      5  C   UNL     1      -3.298  -2.490  24.422  0.00  0.00    +0.154 C 
ATOM      6  O   UNL     1      -3.275  -3.314  24.457  0.00  0.00    -0.223 OA
ATOM      7  C   UNL     1      -3.999  -2.105  24.216  0.00  0.00    +0.033 C 
ATOM      8  C   UNL     1      -4.022  -1.282  24.181  0.00  0.00    +0.003 C 
ATOM      9  C   UNL     1      -3.346  -0.842  24.353  0.00  0.00    +0.006 C 
ATOM     10  C   UNL     1      -4.046  -0.458  24.147  0.00  0.00    +0.000 C 
ATOM     11  C   UNL     1      -3.369  -0.018  24.319  0.00  0.00    +0.050 C 
ATOM     22  C   UNL     1      -2.693   0.421  24.490  0.00  0.00    +0.063 A 
ATOM     23  C   UNL     1      -1.992   0.036  24.697  0.00  0.00    +0.023 A 
ATOM     24  C   UNL     1      -1.969  -0.787  24.731  0.00  0.00    +0.034 C 
ATOM     25  C   UNL     1      -2.645  -1.227  24.560  0.00  0.00    +0.010 C 
ATOM     26  S   UNL     1      -1.418   0.612  24.836  0.00  0.00    -0.054 S 
ATOM     27  C   UNL     1      -1.762   1.352  24.716  0.00  0.00    +0.185 A 
ATOM     28  N   UNL     1      -1.385   2.081  24.795  0.00  0.00    -0.151 NA
ATOM     29  C   UNL     1      -1.803   2.778  24.656  0.00  0.00    +0.271 C 
ATOM     30  O   UNL     1      -2.598   2.747  24.437  0.00  0.00    -0.268 OA
ATOM     38  N   UNL     1      -2.550   1.234  24.502  0.00  0.00    -0.227 NA
ENDROOT
BRANCH  29  31
ATOM     31  C   UNL     1      -1.426   3.508  24.735  0.00  0.00    +0.056 A 
ATOM     32  C   UNL     1      -1.800   4.124  25.137  0.00  0.00    +0.007 A 
ATOM     33  C   UNL     1      -1.422   4.854  25.216  0.00  0.00    +0.030 A 
ATOM     34  C   UNL     1      -0.671   4.967  24.894  0.00  0.00    +0.140 A 
ATOM     35  F   UNL     1      -0.294   5.696  24.973  0.00  0.00    -0.204 F 
ATOM     36  C   UNL     1      -0.298   4.351  24.493  0.00  0.00    +0.030 A 
ATOM     37  C   UNL     1      -0.675   3.622  24.413  0.00  0.00    +0.007 A 
ENDBRANCH  29  31
BRANCH   2   3
ATOM      3  C   UNL     1      -1.843  -1.876  24.803  0.00  0.00    +0.184 C 
ATOM      4  O   UNL     1      -1.306  -2.488  24.938  0.00  0.00    -0.220 OA
ENDBRANCH   2   3
BRANCH  11  12
ATOM     12  C   UNL     1      -4.069   0.366  24.112  0.00  0.00    +0.093 C 
BRANCH  12  13
ATOM     13  C   UNL     1      -4.504   0.769  24.687  0.00  0.00    +0.242 C 
ATOM     14  O   UNL     1      -4.414   0.574  25.483  0.00  0.00    -0.273 OA
ATOM     15  N   UNL     1      -5.029   1.364  24.465  0.00  0.00    -0.207 NA
BRANCH  15  16
ATOM     16  C   UNL     1      -5.464   1.767  25.039  0.00  0.00    +0.095 C 
ATOM     17  C   UNL     1      -5.290   2.555  25.208  0.00  0.00    +0.022 C 
ATOM     18  C   UNL     1      -5.725   2.959  25.783  0.00  0.00    +0.002 C 
ATOM     19  C   UNL     1      -6.333   2.573  26.187  0.00  0.00    +0.000 C 
ATOM     20  C   UNL     1      -6.505   1.784  26.016  0.00  0.00    +0.002 C 
ATOM     21  C   UNL     1      -6.071   1.381  25.443  0.00  0.00    +0.022 C 
ENDBRANCH  15  16
ENDBRANCH  12  13
ENDBRANCH  11  12
TORSDOF 5
ENDMDL
MODEL 2
REMARK VINA RESULT:     -14.3      2.020      4.835
REMARK  Name = 
REMARK  5 active torsions:
REMARK  status: ('A' for Active; 'I' for Inactive)
REMARK    1  A    between atoms: C_2  and  C_3
REMARK    2  A    between atoms: C_11  and  C_12
REMARK    3  A    between atoms: C_12  and  C_13
REMARK    4  A    between atoms: N_15  and  C_16
REMARK    5  A    between atoms: C_29  and  C_31
REMARK                            x       y       z     vdW  Elec       q    Type
REMARK                         _______ _______ _______ _____ _____    ______ ____
ROOT
ATOM      1  C   UNL     1       0.078   3.786  25.474  0.00  0.00    +0.005 C 
ATOM      2  C   UNL     1      -0.623   3.429  25.226  0.00  0.00    +0.059 C 
ATOM      5  C   UNL     1      -0.821   4.223  25.119  0.00  0.00    +0.154 C 
ATOM      6  O   UNL     1      -0.274   4.813  25.300  0.00  0.00    -0.223 OA
ATOM      7  C   UNL     1      -1.568   4.427  24.831  0.00  0.00    +0.033 C 
ATOM      8  C   UNL     1      -2.115   3.837  24.650  0.00  0.00    +0.003 C 
ATOM      9  C   UNL     1      -1.917   3.044  24.757  0.00  0.00    +0.006 C 
ATOM     10  C   UNL     1      -2.662   3.248  24.469  0.00  0.00    +0.000 C 
ATOM     11  C   UNL     1      -2.464   2.454  24.576  0.00  0.00    +0.050 C 
ATOM     22  C   UNL     1      -2.267   1.661  24.683  0.00  0.00    +0.063 A 
ATOM     23  C   UNL     1      -1.520   1.456  24.971  0.00  0.00    +0.023 A 
ATOM     24  C   UNL     1      -0.973   2.046  25.152  0.00  0.00    +0.034 C 
ATOM     25  C   UNL     1      -1.170   2.840  25.045  0.00  0.00    +0.010 C 
ATOM     26  S   UNL     1      -1.482   0.634  25.018  0.00  0.00    -0.054 S 
ATOM     27  C   UNL     1      -2.204   0.329  24.761  0.00  0.00    +0.185 A 
ATOM     28  N   UNL     1      -2.406  -0.470  24.718  0.00  0.00    -0.151 NA
ATOM     29  C   UNL     1      -3.152  -0.692  24.447  0.00  0.00    +0.271 C 
ATOM     30  O   UNL     1      -3.698  -0.117  24.219  0.00  0.00    -0.268 OA
ATOM     38  N   UNL     1      -2.688   0.963  24.553  0.00  0.00    -0.227 NA
ENDROOT
BRANCH  29  31
ATOM     31  C   UNL     1      -3.354  -1.491  24.404  0.00  0.00    +0.056 A 
ATOM     32  C   UNL     1      -3.974  -1.735  23.917  0.00  0.00    +0.007 A 
ATOM     33  C   UNL     1      -4.176  -2.533  23.874  0.00  0.00    +0.030 A 
ATOM     34  C   UNL     1      -3.758  -3.089  24.318  0.00  0.00    +0.140 A 
ATOM     35  F   UNL     1      -3.960  -3.887  24.275  0.00  0.00    -0.204 F 
ATOM     36  C   UNL     1      -3.138  -2.846  24.805  0.00  0.00    +0.030 A 
ATOM     37  C   UNL     1      -2.936  -2.047  24.848  0.00  0.00    +0.007 A 
ENDBRANCH  29  31
BRANCH   2   3
ATOM      3  C   UNL     1      -0.182   2.760  25.419  0.00  0.00    +0.184 C 
ATOM      4  O   UNL     1       0.536   2.840  25.819  0.00  0.00    -0.220 OA
ENDBRANCH   2   3
BRANCH  11  12
ATOM     12  C   UNL     1      -3.210   2.658  24.288  0.00  0.00    +0.093 C 
BRANCH  12  13
ATOM     13  C   UNL     1      -3.873   2.591  24.775  0.00  0.00    +0.242 C 
ATOM     14  O   UNL     1      -3.780   2.539  25.593  0.00  0.00    -0.273 OA
ATOM     15  N   UNL     1      -4.628   2.577  24.445  0.00  0.00    -0.207 NA
BRANCH  15  16
ATOM     16  C   UNL     1      -5.291   2.510  24.931  0.00  0.00    +0.095 C 
ATOM     17  C   UNL     1      -5.740   1.818  24.922  0.00  0.00    +0.022 C 
ATOM     18  C   UNL     1      -6.404   1.751  25.409  0.00  0.00    +0.002 C 
ATOM     19  C   UNL     1      -6.617   2.376  25.904  0.00  0.00    +0.000 C 
ATOM     20  C   UNL     1      -6.167   3.067  25.912  0.00  0.00    +0.002 C 
ATOM     21  C   UNL     1      -5.504   3.135  25.426  0.00  0.00    +0.022 C 
ENDBRANCH  15  16
ENDBRANCH  12  13
ENDBRANCH  11  12
TORSDOF 5
ENDMDL
MODEL 3
REMARK VINA RESULT:     -14.3      2.154      4.336
REMARK  Name = 
REMARK  5 active torsions:
REMARK  status: ('A' for Active; 'I' for Inactive)
REMARK    1  A    between atoms: C_2  and  C_3
REMARK    2  A    between atoms: C_11  and  C_12
REMARK    3  A    between atoms: C_12  and  C_13
REMARK    4  A    between atoms: N_15  and  C_16
REMARK    5  A    between atoms: C_29  and  C_31
REMARK                            x       y       z     vdW  Elec       q    Type
REMARK                         _______ _______ _______ _____ _____    ______ ____
ROOT
ATOM      1  C   UNL     1      -4.573   3.804  25.955  0.00  0.00    +0.005 C 
ATOM      2  C   UNL     1      -4.280   3.178  25.505  0.00  0.00    +0.059 C 
ATOM      5  C   UNL     1      -5.088   3.021  25.460  0.00  0.00    +0.154 C 
ATOM      6  O   UNL     1      -5.627   3.516  25.839  0.00  0.00    -0.223 OA
ATOM      7  C   UNL     1      -5.357   2.366  25.034  0.00  0.00    +0.033 C 
ATOM      8  C   UNL     1      -4.818   1.871  24.654  0.00  0.00    +0.003 C 
ATOM      9  C   UNL     1      -4.010   2.029  24.700  0.00  0.00    +0.006 C 
ATOM     10  C   UNL     1      -4.279   1.376  24.275  0.00  0.00    +0.000 C 
ATOM     11  C   UNL     1      -3.470   1.534  24.320  0.00  0.00    +0.050 C 
ATOM     22  C   UNL     1      -2.662   1.691  24.366  0.00  0.00    +0.063 A 
ATOM     23  C   UNL     1      -2.393   2.346  24.792  0.00  0.00    +0.023 A 
ATOM     24  C   UNL     1      -2.932   2.841  25.171  0.00  0.00    +0.034 C 
ATOM     25  C   UNL     1      -3.741   2.683  25.126  0.00  0.00    +0.010 C 
ATOM     26  S   UNL     1      -1.570   2.362  24.739  0.00  0.00    -0.054 S 
ATOM     27  C   UNL     1      -1.330   1.719  24.282  0.00  0.00    +0.185 A 
ATOM     28  N   UNL     1      -0.552   1.524  24.089  0.00  0.00    -0.151 NA
ATOM     29  C   UNL     1      -0.396   0.861  23.624  0.00  0.00    +0.271 C 
ATOM     30  O   UNL     1      -1.018   0.392  23.352  0.00  0.00    -0.268 OA
ATOM     38  N   UNL     1      -2.005   1.305  24.051  0.00  0.00    -0.227 NA
ENDROOT
BRANCH  29  31
ATOM     31  C   UNL     1       0.382   0.666  23.431  0.00  0.00    +0.056 A 
ATOM     32  C   UNL     1       0.548  -0.051  23.058  0.00  0.00    +0.007 A 
ATOM     33  C   UNL     1       1.326  -0.246  22.865  0.00  0.00    +0.030 A 
ATOM     34  C   UNL     1       1.938   0.276  23.046  0.00  0.00    +0.140 A 
ATOM     35  F   UNL     1       2.716   0.081  22.853  0.00  0.00    -0.204 F 
ATOM     36  C   UNL     1       1.773   0.993  23.419  0.00  0.00    +0.030 A 
ATOM     37  C   UNL     1       0.995   1.187  23.612  0.00  0.00    +0.007 A 
ENDBRANCH  29  31
BRANCH   2   3
ATOM      3  C   UNL     1      -3.574   3.554  25.707  0.00  0.00    +0.184 C 
ATOM      4  O   UNL     1      -3.585   4.216  26.199  0.00  0.00    -0.220 OA
ENDBRANCH   2   3
BRANCH  11  12
ATOM     12  C   UNL     1      -3.739   0.880  23.895  0.00  0.00    +0.093 C 
BRANCH  12  13
ATOM     13  C   UNL     1      -3.690   0.124  24.223  0.00  0.00    +0.242 C 
ATOM     14  O   UNL     1      -3.675   0.032  25.043  0.00  0.00    -0.273 OA
ATOM     15  N   UNL     1      -3.655  -0.537  23.733  0.00  0.00    -0.207 NA
BRANCH  15  16
ATOM     16  C   UNL     1      -3.605  -1.292  24.061  0.00  0.00    +0.095 C 
ATOM     17  C   UNL     1      -4.228  -1.824  23.965  0.00  0.00    +0.022 C 
ATOM     18  C   UNL     1      -4.179  -2.580  24.293  0.00  0.00    +0.002 C 
ATOM     19  C   UNL     1      -3.507  -2.803  24.716  0.00  0.00    +0.000 C 
ATOM     20  C   UNL     1      -2.884  -2.270  24.811  0.00  0.00    +0.002 C 
ATOM     21  C   UNL     1      -2.933  -1.515  24.483  0.00  0.00    +0.022 C 
ENDBRANCH  15  16
ENDBRANCH  12  13
ENDBRANCH  11  12
TORSDOF 5
ENDMDL
MODEL 4
REMARK VINA RESULT:     -13.8      2.433      6.008
REMARK  Name = 
REMARK  5 active torsions:
REMARK  status: ('A' for Active; 'I' for Inactive)
REMARK    1  A    between atoms: C_2  and  C_3
REMARK    2  A    between atoms: C_11  and  C_12
REMARK    3  A    between atoms: C_12  and  C_13
REMARK    4  A    between atoms: N_15  and  C_16
REMARK    5  A    between atoms: C_29  and  C_31
REMARK                            x       y       z     vdW  Elec       q    Type
REMARK                         _______ _______ _______ _____ _____    ______ ____
ROOT
ATOM      1  C   UNL     1      -2.669   4.869  25.154  0.00  0.00    +0.005 C 
ATOM      2  C   UNL     1      -2.331   4.117  25.139  0.00  0.00    +0.059 C 
ATOM      5  C   UNL     1      -1.660   4.571  25.289  0.00  0.00    +0.154 C 
ATOM      6  O   UNL     1      -1.723   5.391  25.355  0.00  0.00    -0.223 OA
ATOM      7  C   UNL     1      -0.924   4.205  25.374  0.00  0.00    +0.033 C 
ATOM      8  C   UNL     1      -0.862   3.386  25.308  0.00  0.00    +0.003 C 
ATOM      9  C   UNL     1      -1.533   2.932  25.158  0.00  0.00    +0.006 C 
ATOM     10  C   UNL     1      -0.799   2.567  25.242  0.00  0.00    +0.000 C 
ATOM     11  C   UNL     1      -1.470   2.111  25.092  0.00  0.00    +0.050 C 
ATOM     22  C   UNL     1      -2.142   1.657  24.942  0.00  0.00    +0.063 A 
ATOM     23  C   UNL     1      -2.877   2.023  24.857  0.00  0.00    +0.023 A 
ATOM     24  C   UNL     1      -2.940   2.842  24.923  0.00  0.00    +0.034 C 
ATOM     25  C   UNL     1      -2.269   3.297  25.073  0.00  0.00    +0.010 C 
ATOM     26  S   UNL     1      -3.438   1.435  24.712  0.00  0.00    -0.054 S 
ATOM     27  C   UNL     1      -3.051   0.707  24.707  0.00  0.00    +0.185 A 
ATOM     28  N   UNL     1      -3.402  -0.029  24.583  0.00  0.00    -0.151 NA
ATOM     29  C   UNL     1      -2.942  -0.712  24.593  0.00  0.00    +0.271 C 
ATOM     30  O   UNL     1      -2.129  -0.662  24.729  0.00  0.00    -0.268 OA
ATOM     38  N   UNL     1      -2.250   0.844  24.849  0.00  0.00    -0.227 NA
ENDROOT
BRANCH  29  31
ATOM     31  C   UNL     1      -3.293  -1.448  24.469  0.00  0.00    +0.056 A 
ATOM     32  C   UNL     1      -3.969  -1.509  23.999  0.00  0.00    +0.007 A 
ATOM     33  C   UNL     1      -4.321  -2.245  23.874  0.00  0.00    +0.030 A 
ATOM     34  C   UNL     1      -3.996  -2.920  24.219  0.00  0.00    +0.140 A 
ATOM     35  F   UNL     1      -4.348  -3.656  24.095  0.00  0.00    -0.204 F 
ATOM     36  C   UNL     1      -3.321  -2.860  24.689  0.00  0.00    +0.030 A 
ATOM     37  C   UNL     1      -2.970  -2.124  24.813  0.00  0.00    +0.007 A 
ENDBRANCH  29  31
BRANCH   2   3
ATOM      3  C   UNL     1      -3.120   3.924  24.994  0.00  0.00    +0.184 C 
ATOM      4  O   UNL     1      -3.688   4.521  24.940  0.00  0.00    -0.220 OA
ENDBRANCH   2   3
BRANCH  11  12
ATOM     12  C   UNL     1      -0.736   1.746  25.176  0.00  0.00    +0.093 C 
BRANCH  12  13
ATOM     13  C   UNL     1      -0.330   1.476  24.510  0.00  0.00    +0.242 C 
ATOM     14  O   UNL     1      -0.515   1.777  23.765  0.00  0.00    -0.273 OA
ATOM     15  N   UNL     1       0.259   0.905  24.589  0.00  0.00    -0.207 NA
BRANCH  15  16
ATOM     16  C   UNL     1       0.665   0.635  23.924  0.00  0.00    +0.095 C 
ATOM     17  C   UNL     1       1.358   1.012  23.683  0.00  0.00    +0.022 C 
ATOM     18  C   UNL     1       1.764   0.741  23.017  0.00  0.00    +0.002 C 
ATOM     19  C   UNL     1       1.477   0.094  22.593  0.00  0.00    +0.000 C 
ATOM     20  C   UNL     1       0.784  -0.282  22.835  0.00  0.00    +0.002 C 
ATOM     21  C   UNL     1       0.378  -0.012  23.500  0.00  0.00    +0.022 C 
ENDBRANCH  15  16
ENDBRANCH  12  13
ENDBRANCH  11  12
TORSDOF 5
ENDMDL
MODEL 5
REMARK VINA RESULT:     -13.7      1.770      3.729
REMARK  Name = 
REMARK  5 active torsions:
REMARK  status: ('A' for Active; 'I' for Inactive)
REMARK    1  A    between atoms: C_2  and  C_3
REMARK    2  A    between atoms: C_11  and  C_12
REMARK    3  A    between atoms: C_12  and  C_13
REMARK    4  A    between atoms: N_15  and  C_16
REMARK    5  A    between atoms: C_29  and  C_31
REMARK                            x       y       z     vdW  Elec       q    Type
REMARK                         _______ _______ _______ _____ _____    ______ ____
ROOT
ATOM      1  C   UNL     1      -4.314  -2.148  24.195  0.00  0.00    +0.005 C 
ATOM      2  C   UNL     1      -3.644  -1.687  24.333  0.00  0.00    +0.059 C 
ATOM      5  C   UNL     1      -3.302  -2.438  24.322  0.00  0.00    +0.154 C 
ATOM      6  O   UNL     1      -3.773  -3.104  24.197  0.00  0.00    -0.223 OA
ATOM      7  C   UNL     1      -2.489  -2.523  24.436  0.00  0.00    +0.033 C 
ATOM      8  C   UNL     1      -2.018  -1.857  24.561  0.00  0.00    +0.003 C 
ATOM      9  C   UNL     1      -2.360  -1.107  24.571  0.00  0.00    +0.006 C 
ATOM     10  C   UNL     1      -1.548  -1.192  24.685  0.00  0.00    +0.000 C 
ATOM     11  C   UNL     1      -1.890  -0.440  24.696  0.00  0.00    +0.050 C 
ATOM     22  C   UNL     1      -2.231   0.310  24.707  0.00  0.00    +0.063 A 
ATOM     23  C   UNL     1      -3.045   0.395  24.593  0.00  0.00    +0.023 A 
ATOM     24  C   UNL     1      -3.515  -0.271  24.468  0.00  0.00    +0.034 C 
ATOM     25  C   UNL     1      -3.174  -1.022  24.457  0.00  0.00    +0.010 C 
ATOM     26  S   UNL     1      -3.224   1.199  24.632  0.00  0.00    -0.054 S 
ATOM     27  C   UNL     1      -2.523   1.611  24.770  0.00  0.00    +0.185 A 
ATOM     28  N   UNL     1      -2.449   2.429  24.849  0.00  0.00    -0.151 NA
ATOM     29  C   UNL     1      -1.708   2.764  24.987  0.00  0.00    +0.271 C 
ATOM     30  O   UNL     1      -1.041   2.282  25.046  0.00  0.00    -0.268 OA
ATOM     38  N   UNL     1      -1.910   1.062  24.817  0.00  0.00    -0.227 NA
ENDROOT
BRANCH  29  31
ATOM     31  C   UNL     1      -1.634   3.582  25.065  0.00  0.00    +0.056 A 
ATOM     32  C   UNL     1      -0.942   3.959  24.819  0.00  0.00    +0.007 A 
ATOM     33  C   UNL     1      -0.867   4.777  24.897  0.00  0.00    +0.030 A 
ATOM     34  C   UNL     1      -1.485   5.218  25.221  0.00  0.00    +0.140 A 
ATOM     35  F   UNL     1      -1.411   6.036  25.300  0.00  0.00    -0.204 F 
ATOM     36  C   UNL     1      -2.176   4.842  25.467  0.00  0.00    +0.030 A 
ATOM     37  C   UNL     1      -2.251   4.024  25.388  0.00  0.00    +0.007 A 
ENDBRANCH  29  31
BRANCH   2   3
ATOM      3  C   UNL     1      -4.219  -1.097  24.296  0.00  0.00    +0.184 C 
ATOM      4  O   UNL     1      -4.998  -1.291  24.103  0.00  0.00    -0.220 OA
ENDBRANCH   2   3
BRANCH  11  12
ATOM     12  C   UNL     1      -1.077  -0.525  24.810  0.00  0.00    +0.093 C 
BRANCH  12  13
ATOM     13  C   UNL     1      -0.552  -0.326  24.205  0.00  0.00    +0.242 C 
ATOM     14  O   UNL     1      -0.837  -0.177  23.445  0.00  0.00    -0.273 OA
ATOM     15  N   UNL     1       0.256  -0.276  24.360  0.00  0.00    -0.207 NA
BRANCH  15  16
ATOM     16  C   UNL     1       0.781  -0.077  23.755  0.00  0.00    +0.095 C 
ATOM     17  C   UNL     1       1.153   0.659  23.760  0.00  0.00    +0.022 C 
ATOM     18  C   UNL     1       1.678   0.859  23.155  0.00  0.00    +0.002 C 
ATOM     19  C   UNL     1       1.831   0.323  22.547  0.00  0.00    +0.000 C 
ATOM     20  C   UNL     1       1.458  -0.413  22.544  0.00  0.00    +0.002 C 
ATOM     21  C   UNL     1       0.933  -0.613  23.147  0.00  0.00    +0.022 C 
ENDBRANCH  15  16
ENDBRANCH  12  13
ENDBRANCH  11  12
TORSDOF 5
ENDMDL
MODEL 6
REMARK VINA RESULT:     -13.7      1.567      3.640
REMARK  Name = 
REMARK  5 active torsions:
REMARK  status: ('A' for Active; 'I' for Inactive)
REMARK    1  A    between atoms: C_2  and  C_3
REMARK    2  A    between atoms: C_11  and  C_12
REMARK    3  A    between atoms: C_12  and  C_13
REMARK    4  A    between atoms: N_15  and  C_16
REMARK    5  A    between atoms: C_29  and  C_31
REMARK                            x       y       z     vdW  Elec       q    Type
REMARK                         _______ _______ _______ _____ _____    ______ ____
ROOT
ATOM      1  C   UNL     1      -3.533  -3.014  23.959  0.00  0.00    +0.005 C 
ATOM      2  C   UNL     1      -3.319  -2.288  24.285  0.00  0.00    +0.059 C 
ATOM      5  C   UNL     1      -2.623  -2.712  24.412  0.00  0.00    +0.154 C 
ATOM      6  O   UNL     1      -2.569  -3.499  24.169  0.00  0.00    -0.223 OA
ATOM      7  C   UNL     1      -1.980  -2.350  24.783  0.00  0.00    +0.033 C 
ATOM      8  C   UNL     1      -2.034  -1.564  25.025  0.00  0.00    +0.003 C 
ATOM      9  C   UNL     1      -2.729  -1.139  24.899  0.00  0.00    +0.006 C 
ATOM     10  C   UNL     1      -2.088  -0.778  25.268  0.00  0.00    +0.000 C 
ATOM     11  C   UNL     1      -2.784  -0.352  25.141  0.00  0.00    +0.050 C 
ATOM     22  C   UNL     1      -3.479   0.072  25.014  0.00  0.00    +0.063 A 
ATOM     23  C   UNL     1      -4.122  -0.291  24.644  0.00  0.00    +0.023 A 
ATOM     24  C   UNL     1      -4.068  -1.077  24.401  0.00  0.00    +0.034 C 
ATOM     25  C   UNL     1      -3.372  -1.502  24.528  0.00  0.00    +0.010 C 
ATOM     26  S   UNL     1      -4.732   0.263  24.594  0.00  0.00    -0.054 S 
ATOM     27  C   UNL     1      -4.467   0.967  24.932  0.00  0.00    +0.185 A 
ATOM     28  N   UNL     1      -4.899   1.666  24.999  0.00  0.00    -0.151 NA
ATOM     29  C   UNL     1      -4.560   2.329  25.353  0.00  0.00    +0.271 C 
ATOM     30  O   UNL     1      -3.787   2.293  25.640  0.00  0.00    -0.268 OA
ATOM     38  N   UNL     1      -3.693   0.849  25.192  0.00  0.00    -0.227 NA
ENDROOT
BRANCH  29  31
ATOM     31  C   UNL     1      -4.993   3.028  25.420  0.00  0.00    +0.056 A 
ATOM     32  C   UNL     1      -4.636   3.752  25.247  0.00  0.00    +0.007 A 
ATOM     33  C   UNL     1      -5.069   4.451  25.314  0.00  0.00    +0.030 A 
ATOM     34  C   UNL     1      -5.858   4.426  25.553  0.00  0.00    +0.140 A 
ATOM     35  F   UNL     1      -6.291   5.125  25.620  0.00  0.00    -0.204 F 
ATOM     36  C   UNL     1      -6.214   3.703  25.726  0.00  0.00    +0.030 A 
ATOM     37  C   UNL     1      -5.782   3.004  25.659  0.00  0.00    +0.007 A 
ENDBRANCH  29  31
BRANCH   2   3
ATOM      3  C   UNL     1      -4.089  -2.116  24.045  0.00  0.00    +0.184 C 
ATOM      4  O   UNL     1      -4.532  -2.685  23.643  0.00  0.00    -0.220 OA
ENDBRANCH   2   3
BRANCH  11  12
ATOM     12  C   UNL     1      -2.141   0.010  25.511  0.00  0.00    +0.093 C 
BRANCH  12  13
ATOM     13  C   UNL     1      -1.678   0.553  25.097  0.00  0.00    +0.242 C 
ATOM     14  O   UNL     1      -1.746   0.611  24.277  0.00  0.00    -0.273 OA
ATOM     15  N   UNL     1      -1.150   1.038  25.502  0.00  0.00    -0.207 NA
BRANCH  15  16
ATOM     16  C   UNL     1      -0.687   1.581  25.088  0.00  0.00    +0.095 C 
ATOM     17  C   UNL     1      -0.892   2.380  25.088  0.00  0.00    +0.022 C 
ATOM     18  C   UNL     1      -0.429   2.924  24.674  0.00  0.00    +0.002 C 
ATOM     19  C   UNL     1       0.238   2.669  24.261  0.00  0.00    +0.000 C 
ATOM     20  C   UNL     1       0.442   1.869  24.262  0.00  0.00    +0.002 C 
ATOM     21  C   UNL     1      -0.020   1.326  24.675  0.00  0.00    +0.022 C 
ENDBRANCH  15  16
ENDBRANCH  12  13
ENDBRANCH  11  12
TORSDOF 5
ENDMDL
MODEL 7
REMARK VINA RESULT:     -13.4      2.327      5.707
REMARK  Name = 
REMARK  5 active torsions:
REMARK  status: ('A' for Active; 'I' for Inactive)
REMARK    1  A    between atoms: C_2  and  C_3
REMARK    2  A    between atoms: C_11  and  C_12
REMARK    3  A    between atoms: C_12  and  C_13
REMARK    4  A    between atoms: N_15  and  C_16
REMARK    5  A    between atoms: C_29  and  C_31
REMARK                            x       y       z     vdW  Elec       q    Type
REMARK                         _______ _______ _______ _____ _____    ______ ____
ROOT
ATOM      1  C   UNL     1      -5.762   4.132  25.747  0.00  0.00    +0.005 C 
ATOM      2  C   UNL     1      -5.228   3.644  25.351  0.00  0.00    +0.059 C 
ATOM      5  C   UNL     1      -4.941   4.383  25.125  0.00  0.00    +0.154 C 
ATOM      6  O   UNL     1      -5.311   5.070  25.394  0.00  0.00    -0.223 OA
ATOM      7  C   UNL     1      -4.283   4.436  24.629  0.00  0.00    +0.033 C 
ATOM      8  C   UNL     1      -3.913   3.751  24.360  0.00  0.00    +0.003 C 
ATOM      9  C   UNL     1      -4.199   3.012  24.586  0.00  0.00    +0.006 C 
ATOM     10  C   UNL     1      -3.543   3.065  24.091  0.00  0.00    +0.000 C 
ATOM     11  C   UNL     1      -3.829   2.325  24.317  0.00  0.00    +0.050 C 
ATOM     22  C   UNL     1      -4.115   1.586  24.543  0.00  0.00    +0.063 A 
ATOM     23  C   UNL     1      -4.774   1.532  25.039  0.00  0.00    +0.023 A 
ATOM     24  C   UNL     1      -5.144   2.218  25.308  0.00  0.00    +0.034 C 
ATOM     25  C   UNL     1      -4.857   2.958  25.082  0.00  0.00    +0.010 C 
ATOM     26  S   UNL     1      -4.930   0.732  25.168  0.00  0.00    -0.054 S 
ATOM     27  C   UNL     1      -4.370   0.292  24.753  0.00  0.00    +0.185 A 
ATOM     28  N   UNL     1      -4.322  -0.532  24.728  0.00  0.00    -0.151 NA
ATOM     29  C   UNL     1      -3.728  -0.896  24.287  0.00  0.00    +0.271 C 
ATOM     30  O   UNL     1      -3.183  -0.439  23.870  0.00  0.00    -0.268 OA
ATOM     38  N   UNL     1      -3.867   0.819  24.367  0.00  0.00    -0.227 NA
ENDROOT
BRANCH  29  31
ATOM     31  C   UNL     1      -3.680  -1.720  24.262  0.00  0.00    +0.056 A 
ATOM     32  C   UNL     1      -3.078  -2.110  24.670  0.00  0.00    +0.007 A 
ATOM     33  C   UNL     1      -3.029  -2.933  24.645  0.00  0.00    +0.030 A 
ATOM     34  C   UNL     1      -3.583  -3.366  24.213  0.00  0.00    +0.140 A 
ATOM     35  F   UNL     1      -3.535  -4.189  24.188  0.00  0.00    -0.204 F 
ATOM     36  C   UNL     1      -4.185  -2.976  23.805  0.00  0.00    +0.030 A 
ATOM     37  C   UNL     1      -4.233  -2.153  23.830  0.00  0.00    +0.007 A 
ENDBRANCH  29  31
BRANCH   2   3
ATOM      3  C   UNL     1      -5.700   3.074  25.715  0.00  0.00    +0.184 C 
ATOM      4  O   UNL     1      -6.323   3.305  26.204  0.00  0.00    -0.220 OA
ENDBRANCH   2   3
BRANCH  11  12
ATOM     12  C   UNL     1      -3.172   2.378  23.821  0.00  0.00    +0.093 C 
BRANCH  12  13
ATOM     13  C   UNL     1      -2.414   2.250  24.124  0.00  0.00    +0.242 C 
ATOM     14  O   UNL     1      -2.299   2.210  24.940  0.00  0.00    -0.273 OA
ATOM     15  N   UNL     1      -1.775   2.162  23.612  0.00  0.00    -0.207 NA
BRANCH  15  16
ATOM     16  C   UNL     1      -1.018   2.033  23.915  0.00  0.00    +0.095 C 
ATOM     17  C   UNL     1      -0.698   1.273  23.913  0.00  0.00    +0.022 C 
ATOM     18  C   UNL     1       0.059   1.144  24.216  0.00  0.00    +0.002 C 
ATOM     19  C   UNL     1       0.495   1.775  24.519  0.00  0.00    +0.000 C 
ATOM     20  C   UNL     1       0.174   2.536  24.520  0.00  0.00    +0.002 C 
ATOM     21  C   UNL     1      -0.582   2.665  24.218  0.00  0.00    +0.022 C 
ENDBRANCH  15  16
ENDBRANCH  12  13
ENDBRANCH  11  12
TORSDOF 5
ENDMDL
MODEL 8
REMARK VINA RESULT:     -12.2      2.649      3.798
REMARK  Name = 
REMARK  5 active torsions:
REMARK  status: ('A' for Active; 'I' for Inactive)
REMARK    1  A    between atoms: C_2  and  C_3
REMARK    2  A    between atoms: C_11  and  C_12
REMARK    3  A    between atoms: C_12  and  C_13
REMARK    4  A    between atoms: N_15  and  C_16
REMARK    5  A    between atoms: C_29  and  C_31
REMARK                            x       y       z     vdW  Elec       q    Type
REMARK                         _______ _______ _______ _____ _____    ______ ____
ROOT
ATOM      1  C   UNL     1      -3.558  -1.567  25.594  0.00  0.00    +0.005 C 
ATOM      2  C   UNL     1      -3.133  -0.977  25.205  0.00  0.00    +0.059 C 
ATOM      5  C   UNL     1      -3.863  -0.602  25.279  0.00  0.00    +0.154 C 
ATOM      6  O   UNL     1      -4.492  -0.989  25.646  0.00  0.00    -0.223 OA
ATOM      7  C   UNL     1      -3.965   0.163  24.984  0.00  0.00    +0.033 C 
ATOM      8  C   UNL     1      -3.338   0.551  24.617  0.00  0.00    +0.003 C 
ATOM      9  C   UNL     1      -2.607   0.176  24.543  0.00  0.00    +0.006 C 
ATOM     10  C   UNL     1      -2.710   0.939  24.249  0.00  0.00    +0.000 C 
ATOM     11  C   UNL     1      -1.979   0.564  24.175  0.00  0.00    +0.050 C 
ATOM     22  C   UNL     1      -1.248   0.188  24.101  0.00  0.00    +0.063 A 
ATOM     23  C   UNL     1      -1.146  -0.577  24.396  0.00  0.00    +0.023 A 
ATOM     24  C   UNL     1      -1.774  -0.964  24.763  0.00  0.00    +0.034 C 
ATOM     25  C   UNL     1      -2.505  -0.589  24.837  0.00  0.00    +0.010 C 
ATOM     26  S   UNL     1      -0.368  -0.805  24.244  0.00  0.00    -0.054 S 
ATOM     27  C   UNL     1       0.011  -0.183  23.856  0.00  0.00    +0.185 A 
ATOM     28  N   UNL     1       0.795  -0.176  23.601  0.00  0.00    -0.151 NA
ATOM     29  C   UNL     1       1.098   0.489  23.219  0.00  0.00    +0.271 C 
ATOM     30  O   UNL     1       0.618   1.147  23.092  0.00  0.00    -0.268 OA
ATOM     38  N   UNL     1      -0.533   0.430  23.768  0.00  0.00    -0.227 NA
ENDROOT
BRANCH  29  31
ATOM     31  C   UNL     1       1.883   0.496  22.965  0.00  0.00    +0.056 A 
ATOM     32  C   UNL     1       2.120   0.008  22.342  0.00  0.00    +0.007 A 
ATOM     33  C   UNL     1       2.904   0.015  22.087  0.00  0.00    +0.030 A 
ATOM     34  C   UNL     1       3.452   0.511  22.455  0.00  0.00    +0.140 A 
ATOM     35  F   UNL     1       4.237   0.518  22.200  0.00  0.00    -0.204 F 
ATOM     36  C   UNL     1       3.216   0.998  23.076  0.00  0.00    +0.030 A 
ATOM     37  C   UNL     1       2.432   0.991  23.331  0.00  0.00    +0.007 A 
ENDBRANCH  29  31
BRANCH   2   3
ATOM      3  C   UNL     1      -2.550  -1.558  25.266  0.00  0.00    +0.184 C 
ATOM      4  O   UNL     1      -2.749  -2.317  25.522  0.00  0.00    -0.220 OA
ENDBRANCH   2   3
BRANCH  11  12
ATOM     12  C   UNL     1      -2.081   1.328  23.881  0.00  0.00    +0.093 C 
BRANCH  12  13
ATOM     13  C   UNL     1      -1.827   1.977  24.322  0.00  0.00    +0.242 C 
ATOM     14  O   UNL     1      -1.543   1.869  25.089  0.00  0.00    -0.273 OA
ATOM     15  N   UNL     1      -1.856   2.734  23.996  0.00  0.00    -0.207 NA
BRANCH  15  16
ATOM     16  C   UNL     1      -1.602   3.383  24.437  0.00  0.00    +0.095 C 
ATOM     17  C   UNL     1      -2.142   3.806  24.895  0.00  0.00    +0.022 C 
ATOM     18  C   UNL     1      -1.888   4.456  25.336  0.00  0.00    +0.002 C 
ATOM     19  C   UNL     1      -1.095   4.683  25.318  0.00  0.00    +0.000 C 
ATOM     20  C   UNL     1      -0.555   4.259  24.859  0.00  0.00    +0.002 C 
ATOM     21  C   UNL     1      -0.809   3.610  24.419  0.00  0.00    +0.022 C 
ENDBRANCH  15  16
ENDBRANCH  12  13
ENDBRANCH  11  12
TORSDOF 5
ENDMDL
