MODEL 1
REMARK VINA RESULT:     -11.5      0.000      0.000
REMARK  Name = 
REMARK  6 active torsions:
REMARK  status: ('A' for Active; 'I' for Inactive)
REMARK    1  A    between atoms: O_2  and  C_3
REMARK    2  A    between atoms: C_12  and  C_13
REMARK    3  A    between atoms: C_13  and  C_14
REMARK    4  A    between atoms: C_19  and  C_20
REMARK    5  A    between atoms: C_20  and  C_21
REMARK    6  A    between atoms: C_24  and  C_26
REMARK                            x       y       z     vdW  Elec       q    Type
REMARK                         _______ _______ _______ _____ _____    ______ ____
ROOT
ATOM     14  C   UNL     1      -3.828   1.378  24.872  0.00  0.00    +0.026 C 
ATOM     15  C   UNL     1      -3.019   1.465  24.736  0.00  0.00    +0.094 C 
ATOM     16  N   UNL     1      -2.652   2.191  24.882  0.00  0.00    -0.280 N 
ATOM     17  C   UNL     1      -3.095   2.827  25.162  0.00  0.00    +0.093 C 
ATOM     18  C   UNL     1      -3.904   2.739  25.298  0.00  0.00    +0.022 C 
ATOM     19  C   UNL     1      -4.271   2.014  25.152  0.00  0.00    +0.015 C 
ATOM     24  C   UNL     1      -1.843   2.278  24.746  0.00  0.00    +0.225 C 
ATOM     25  O   UNL     1      -1.400   1.641  24.466  0.00  0.00    -0.275 OA
ENDROOT
BRANCH  24  26
ATOM     26  C   UNL     1      -1.478   3.003  24.892  0.00  0.00    +0.069 C 
ATOM     27  C   UNL     1      -1.112   3.728  25.039  0.00  0.00    +0.009 C 
ATOM     28  C   UNL     1      -1.648   3.244  24.123  0.00  0.00    +0.009 C 
ATOM     29  C   UNL     1      -1.307   2.761  25.663  0.00  0.00    +0.009 C 
ENDBRANCH  24  26
BRANCH  14  13
ATOM     13  C   UNL     1      -4.194   0.653  24.726  0.00  0.00    +0.047 C 
BRANCH  13  12
ATOM      3  C   UNL     1      -3.680  -2.155  24.582  0.00  0.00    +0.135 A 
ATOM      4  C   UNL     1      -4.024  -2.180  23.832  0.00  0.00    +0.037 A 
ATOM      5  C   UNL     1      -4.325  -1.490  23.493  0.00  0.00    +0.003 A 
ATOM      6  C   UNL     1      -4.281  -0.776  23.904  0.00  0.00    +0.001 A 
ATOM      7  C   UNL     1      -3.937  -0.750  24.654  0.00  0.00    +0.012 A 
ATOM      8  C   UNL     1      -3.636  -1.441  24.993  0.00  0.00    +0.015 A 
ATOM      9  C   UNL     1      -3.292  -1.416  25.742  0.00  0.00    +0.056 C 
ATOM     10  C   UNL     1      -3.249  -0.703  26.152  0.00  0.00    +0.130 C 
ATOM     11  N   UNL     1      -3.550  -0.012  25.813  0.00  0.00    -0.274 NA
ATOM     12  C   UNL     1      -3.893  -0.037  25.065  0.00  0.00    +0.053 C 
BRANCH   3   2
ATOM      1  C   UNL     1      -3.333  -3.538  24.474  0.00  0.00    +0.252 C 
ATOM      2  O   UNL     1      -3.380  -2.845  24.920  0.00  0.00    -0.472 OA
ENDBRANCH   3   2
ENDBRANCH  13  12
ENDBRANCH  14  13
BRANCH  19  20
ATOM     20  C   UNL     1      -5.080   1.927  25.287  0.00  0.00    +0.114 C 
BRANCH  20  21
ATOM     21  C   UNL     1      -5.528   2.571  25.540  0.00  0.00    +0.365 C 
ATOM     22  O   UNL     1      -5.629   2.713  26.346  0.00  0.00    -0.246 OA
ATOM     23  O   UNL     1      -5.875   3.074  24.986  0.00  0.00    -0.246 OA
ENDBRANCH  20  21
ENDBRANCH  19  20
TORSDOF 6
ENDMDL
MODEL 2
REMARK VINA RESULT:     -11.0      1.092      4.349
REMARK  Name = 
REMARK  6 active torsions:
REMARK  status: ('A' for Active; 'I' for Inactive)
REMARK    1  A    between atoms: O_2  and  C_3
REMARK    2  A    between atoms: C_12  and  C_13
REMARK    3  A    between atoms: C_13  and  C_14
REMARK    4  A    between atoms: C_19  and  C_20
REMARK    5  A    between atoms: C_20  and  C_21
REMARK    6  A    between atoms: C_24  and  C_26
REMARK                            x       y       z     vdW  Elec       q    Type
REMARK                         _______ _______ _______ _____ _____    ______ ____
ROOT
ATOM     14  C   UNL     1      -3.918   1.451  25.014  0.00  0.00    +0.026 C 
ATOM     15  C   UNL     1      -3.370   0.839  25.095  0.00  0.00    +0.094 C 
ATOM     16  N   UNL     1      -3.621   0.053  25.061  0.00  0.00    -0.280 N 
ATOM     17  C   UNL     1      -4.418  -0.120  24.945  0.00  0.00    +0.093 C 
ATOM     18  C   UNL     1      -4.966   0.493  24.863  0.00  0.00    +0.022 C 
ATOM     19  C   UNL     1      -4.715   1.278  24.898  0.00  0.00    +0.015 C 
ATOM     24  C   UNL     1      -3.073  -0.558  25.142  0.00  0.00    +0.225 C 
ATOM     25  O   UNL     1      -2.275  -0.385  25.258  0.00  0.00    -0.275 OA
ENDROOT
BRANCH  24  26
ATOM     26  C   UNL     1      -3.325  -1.343  25.107  0.00  0.00    +0.069 C 
ATOM     27  C   UNL     1      -3.576  -2.128  25.074  0.00  0.00    +0.009 C 
ATOM     28  C   UNL     1      -3.229  -1.338  24.288  0.00  0.00    +0.009 C 
ATOM     29  C   UNL     1      -3.421  -1.348  25.927  0.00  0.00    +0.009 C 
ENDBRANCH  24  26
BRANCH  14  13
ATOM     13  C   UNL     1      -3.666   2.236  25.049  0.00  0.00    +0.047 C 
BRANCH  13  12
ATOM      3  C   UNL     1      -1.338   3.881  24.838  0.00  0.00    +0.135 A 
ATOM      4  C   UNL     1      -1.518   4.229  25.564  0.00  0.00    +0.037 A 
ATOM      5  C   UNL     1      -2.191   3.991  25.981  0.00  0.00    +0.003 A 
ATOM      6  C   UNL     1      -2.682   3.406  25.669  0.00  0.00    +0.001 A 
ATOM      7  C   UNL     1      -2.503   3.058  24.943  0.00  0.00    +0.012 A 
ATOM      8  C   UNL     1      -1.830   3.296  24.527  0.00  0.00    +0.015 A 
ATOM      9  C   UNL     1      -1.651   2.948  23.801  0.00  0.00    +0.056 C 
ATOM     10  C   UNL     1      -2.142   2.363  23.491  0.00  0.00    +0.130 C 
ATOM     11  N   UNL     1      -2.815   2.126  23.907  0.00  0.00    -0.274 NA
ATOM     12  C   UNL     1      -2.994   2.473  24.633  0.00  0.00    +0.053 C 
BRANCH   3   2
ATOM      1  C   UNL     1      -0.295   4.831  24.610  0.00  0.00    +0.252 C 
ATOM      2  O   UNL     1      -0.667   4.118  24.422  0.00  0.00    -0.472 OA
ENDBRANCH   3   2
ENDBRANCH  13  12
ENDBRANCH  14  13
BRANCH  19  20
ATOM     20  C   UNL     1      -5.263   1.890  24.817  0.00  0.00    +0.114 C 
BRANCH  20  21
ATOM     21  C   UNL     1      -6.028   1.800  25.112  0.00  0.00    +0.365 C 
ATOM     22  O   UNL     1      -6.175   1.910  25.915  0.00  0.00    -0.246 OA
ATOM     23  O   UNL     1      -6.645   1.602  24.602  0.00  0.00    -0.246 OA
ENDBRANCH  20  21
ENDBRANCH  19  20
TORSDOF 6
ENDMDL
MODEL 3
REMARK VINA RESULT:     -10.8      1.555      4.198
REMARK  Name = 
REMARK  6 active torsions:
REMARK  status: ('A' for Active; 'I' for Inactive)
REMARK    1  A    between atoms: O_2  and  C_3
REMARK    2  A    between atoms: C_12  and  C_13
REMARK    3  A    between atoms: C_13  and  C_14
REMARK    4  A    between atoms: C_19  and  C_20
REMARK    5  A    between atoms: C_20  and  C_21
REMARK    6  A    between atoms: C_24  and  C_26
REMARK                            x       y       z     vdW  Elec       q    Type
REMARK                         _______ _______ _______ _____ _____    ______ ____
ROOT
ATOM     14  C   UNL     1      -3.524  -0.502  24.659  0.00  0.00    +0.026 C 
ATOM     15  C   UNL     1      -2.808  -0.231  24.969  0.00  0.00    +0.094 C 
ATOM     16  N   UNL     1      -2.146  -0.724  24.969  0.00  0.00    -0.280 N 
ATOM     17  C   UNL     1      -2.199  -1.486  24.659  0.00  0.00    +0.093 C 
ATOM     18  C   UNL     1      -2.914  -1.757  24.349  0.00  0.00    +0.022 C 
ATOM     19  C   UNL     1      -3.577  -1.264  24.350  0.00  0.00    +0.015 C 
ATOM     24  C   UNL     1      -1.431  -0.453  25.279  0.00  0.00    +0.225 C 
ATOM     25  O   UNL     1      -1.378   0.310  25.589  0.00  0.00    -0.275 OA
ENDROOT
BRANCH  24  26
ATOM     26  C   UNL     1      -0.769  -0.945  25.278  0.00  0.00    +0.069 C 
ATOM     27  C   UNL     1      -0.108  -1.438  25.279  0.00  0.00    +0.009 C 
ATOM     28  C   UNL     1      -0.547  -0.648  24.542  0.00  0.00    +0.009 C 
ATOM     29  C   UNL     1      -0.991  -1.243  26.016  0.00  0.00    +0.009 C 
ENDBRANCH  24  26
BRANCH  14  13
ATOM     13  C   UNL     1      -4.186  -0.010  24.660  0.00  0.00    +0.047 C 
BRANCH  13  12
ATOM      3  C   UNL     1      -4.938   2.727  24.999  0.00  0.00    +0.135 A 
ATOM      4  C   UNL     1      -5.466   2.508  25.595  0.00  0.00    +0.037 A 
ATOM      5  C   UNL     1      -5.541   1.714  25.808  0.00  0.00    +0.003 A 
ATOM      6  C   UNL     1      -5.089   1.140  25.425  0.00  0.00    +0.001 A 
ATOM      7  C   UNL     1      -4.562   1.358  24.829  0.00  0.00    +0.012 A 
ATOM      8  C   UNL     1      -4.486   2.152  24.616  0.00  0.00    +0.015 A 
ATOM      9  C   UNL     1      -3.960   2.371  24.020  0.00  0.00    +0.056 C 
ATOM     10  C   UNL     1      -3.508   1.796  23.638  0.00  0.00    +0.130 C 
ATOM     11  N   UNL     1      -3.584   1.002  23.851  0.00  0.00    -0.274 NA
ATOM     12  C   UNL     1      -4.110   0.784  24.447  0.00  0.00    +0.053 C 
BRANCH   3   2
ATOM      1  C   UNL     1      -5.161   4.111  25.280  0.00  0.00    +0.252 C 
ATOM      2  O   UNL     1      -4.863   3.520  24.785  0.00  0.00    -0.472 OA
ENDBRANCH   3   2
ENDBRANCH  13  12
ENDBRANCH  14  13
BRANCH  19  20
ATOM     20  C   UNL     1      -4.292  -1.535  24.040  0.00  0.00    +0.114 C 
BRANCH  20  21
ATOM     21  C   UNL     1      -4.355  -2.310  23.764  0.00  0.00    +0.365 C 
ATOM     22  O   UNL     1      -4.379  -2.937  24.299  0.00  0.00    -0.246 OA
ATOM     23  O   UNL     1      -4.394  -2.458  22.954  0.00  0.00    -0.246 OA
ENDBRANCH  20  21
ENDBRANCH  19  20
TORSDOF 6
ENDMDL
MODEL 4
REMARK VINA RESULT:     -10.8      1.337      2.583
REMARK  Name = 
REMARK  6 active torsions:
REMARK  status: ('A' for Active; 'I' for Inactive)
REMARK    1  A    between atoms: O_2  and  C_3
REMARK    2  A    between atoms: C_12  and  C_13
REMARK    3  A    between atoms: C_13  and  C_14
REMARK    4  A    between atoms: C_19  and  C_20
REMARK    5  A    between atoms: C_20  and  C_21
REMARK    6  A    between atoms: C_24  and  C_26
REMARK                            x       y       z     vdW  Elec       q    Type
REMARK                         _______ _______ _______ _____ _____    ______ ____
ROOT
ATOM     14  C   UNL     1      -3.738   1.156  23.986  0.00  0.00    +0.026 C 
ATOM     15  C   UNL     1      -4.304   1.335  24.560  0.00  0.00    +0.094 C 
ATOM     16  N   UNL     1      -4.467   2.122  24.747  0.00  0.00    -0.280 N 
ATOM     17  C   UNL     1      -4.066   2.730  24.361  0.00  0.00    +0.093 C 
ATOM     18  C   UNL     1      -3.500   2.551  23.787  0.00  0.00    +0.022 C 
ATOM     19  C   UNL     1      -3.337   1.764  23.600  0.00  0.00    +0.015 C 
ATOM     24  C   UNL     1      -5.033   2.301  25.321  0.00  0.00    +0.225 C 
ATOM     25  O   UNL     1      -5.435   1.693  25.707  0.00  0.00    -0.275 OA
ENDROOT
BRANCH  24  26
ATOM     26  C   UNL     1      -5.196   3.087  25.507  0.00  0.00    +0.069 C 
ATOM     27  C   UNL     1      -5.360   3.874  25.693  0.00  0.00    +0.009 C 
ATOM     28  C   UNL     1      -4.536   3.108  26.001  0.00  0.00    +0.009 C 
ATOM     29  C   UNL     1      -5.857   3.067  25.013  0.00  0.00    +0.009 C 
ENDBRANCH  24  26
BRANCH  14  13
ATOM     13  C   UNL     1      -3.575   0.370  23.799  0.00  0.00    +0.047 C 
BRANCH  13  12
ATOM      3  C   UNL     1      -3.558  -2.265  24.907  0.00  0.00    +0.135 A 
ATOM      4  C   UNL     1      -4.020  -2.533  24.278  0.00  0.00    +0.037 A 
ATOM      5  C   UNL     1      -4.256  -2.008  23.686  0.00  0.00    +0.003 A 
ATOM      6  C   UNL     1      -4.029  -1.215  23.724  0.00  0.00    +0.001 A 
ATOM      7  C   UNL     1      -3.567  -0.947  24.353  0.00  0.00    +0.012 A 
ATOM      8  C   UNL     1      -3.331  -1.472  24.945  0.00  0.00    +0.015 A 
ATOM      9  C   UNL     1      -2.870  -1.205  25.574  0.00  0.00    +0.056 C 
ATOM     10  C   UNL     1      -2.643  -0.413  25.611  0.00  0.00    +0.130 C 
ATOM     11  N   UNL     1      -2.879   0.112  25.019  0.00  0.00    -0.274 NA
ATOM     12  C   UNL     1      -3.340  -0.155  24.391  0.00  0.00    +0.053 C 
BRANCH   3   2
ATOM      1  C   UNL     1      -3.290  -3.600  25.343  0.00  0.00    +0.252 C 
ATOM      2  O   UNL     1      -3.323  -2.789  25.499  0.00  0.00    -0.472 OA
ENDBRANCH   3   2
ENDBRANCH  13  12
ENDBRANCH  14  13
BRANCH  19  20
ATOM     20  C   UNL     1      -2.772   1.585  23.026  0.00  0.00    +0.114 C 
BRANCH  20  21
ATOM     21  C   UNL     1      -2.407   2.193  22.603  0.00  0.00    +0.365 C 
ATOM     22  O   UNL     1      -2.707   2.423  21.871  0.00  0.00    -0.246 OA
ATOM     23  O   UNL     1      -1.742   2.569  22.913  0.00  0.00    -0.246 OA
ENDBRANCH  20  21
ENDBRANCH  19  20
TORSDOF 6
ENDMDL
MODEL 5
REMARK VINA RESULT:     -10.5      1.759      5.067
REMARK  Name = 
REMARK  6 active torsions:
REMARK  status: ('A' for Active; 'I' for Inactive)
REMARK    1  A    between atoms: O_2  and  C_3
REMARK    2  A    between atoms: C_12  and  C_13
REMARK    3  A    between atoms: C_13  and  C_14
REMARK    4  A    between atoms: C_19  and  C_20
REMARK    5  A    between atoms: C_20  and  C_21
REMARK    6  A    between atoms: C_24  and  C_26
REMARK                            x       y       z     vdW  Elec       q    Type
REMARK                         _______ _______ _______ _____ _____    ______ ____
ROOT
ATOM     14  C   UNL     1      -1.857   0.251  24.599  0.00  0.00    +0.026 C 
ATOM     15  C   UNL     1      -2.594  -0.076  24.776  0.00  0.00    +0.094 C 
ATOM     16  N   UNL     1      -2.703  -0.894  24.731  0.00  0.00    -0.280 N 
ATOM     17  C   UNL     1      -2.077  -1.382  24.510  0.00  0.00    +0.093 C 
ATOM     18  C   UNL     1      -1.340  -1.054  24.333  0.00  0.00    +0.022 C 
ATOM     19  C   UNL     1      -1.231  -0.237  24.378  0.00  0.00    +0.015 C 
ATOM     24  C   UNL     1      -3.439  -1.221  24.908  0.00  0.00    +0.225 C 
ATOM     25  O   UNL     1      -4.066  -0.732  25.129  0.00  0.00    -0.275 OA
ENDROOT
BRANCH  24  26
ATOM     26  C   UNL     1      -3.548  -2.037  24.863  0.00  0.00    +0.069 C 
ATOM     27  C   UNL     1      -3.658  -2.854  24.817  0.00  0.00    +0.009 C 
ATOM     28  C   UNL     1      -3.282  -2.116  25.639  0.00  0.00    +0.009 C 
ATOM     29  C   UNL     1      -3.815  -1.958  24.086  0.00  0.00    +0.009 C 
ENDBRANCH  24  26
BRANCH  14  13
ATOM     13  C   UNL     1      -1.748   1.068  24.644  0.00  0.00    +0.047 C 
BRANCH  13  12
ATOM      3  C   UNL     1      -3.260   3.493  24.639  0.00  0.00    +0.135 A 
ATOM      4  C   UNL     1      -2.950   3.688  25.379  0.00  0.00    +0.037 A 
ATOM      5  C   UNL     1      -2.416   3.179  25.750  0.00  0.00    +0.003 A 
ATOM      6  C   UNL     1      -2.194   2.475  25.381  0.00  0.00    +0.001 A 
ATOM      7  C   UNL     1      -2.504   2.280  24.641  0.00  0.00    +0.012 A 
ATOM      8  C   UNL     1      -3.038   2.789  24.270  0.00  0.00    +0.015 A 
ATOM      9  C   UNL     1      -3.348   2.594  23.532  0.00  0.00    +0.056 C 
ATOM     10  C   UNL     1      -3.125   1.891  23.163  0.00  0.00    +0.130 C 
ATOM     11  N   UNL     1      -2.591   1.382  23.534  0.00  0.00    -0.274 NA
ATOM     12  C   UNL     1      -2.281   1.577  24.273  0.00  0.00    +0.053 C 
BRANCH   3   2
ATOM      1  C   UNL     1      -4.236   4.535  24.718  0.00  0.00    +0.252 C 
ATOM      2  O   UNL     1      -3.793   4.002  24.269  0.00  0.00    -0.472 OA
ENDBRANCH   3   2
ENDBRANCH  13  12
ENDBRANCH  14  13
BRANCH  19  20
ATOM     20  C   UNL     1      -0.494   0.090  24.201  0.00  0.00    +0.114 C 
BRANCH  20  21
ATOM     21  C   UNL     1       0.116  -0.391  23.924  0.00  0.00    +0.365 C 
ATOM     22  O   UNL     1       0.342  -0.355  23.132  0.00  0.00    -0.246 OA
ATOM     23  O   UNL     1       0.499  -0.908  24.439  0.00  0.00    -0.246 OA
ENDBRANCH  20  21
ENDBRANCH  19  20
TORSDOF 6
ENDMDL
MODEL 6
REMARK VINA RESULT:     -10.3      1.349      2.967
REMARK  Name = 
REMARK  6 active torsions:
REMARK  status: ('A' for Active; 'I' for Inactive)
REMARK    1  A    between atoms: O_2  and  C_3
REMARK    2  A    between atoms: C_12  and  C_13
REMARK    3  A    between atoms: C_13  and  C_14
REMARK    4  A    between atoms: C_19  and  C_20
REMARK    5  A    between atoms: C_20  and  C_21
REMARK    6  A    between atoms: C_24  and  C_26
REMARK                            x       y       z     vdW  Elec       q    Type
REMARK                         _______ _______ _______ _____ _____    ______ ____
ROOT
ATOM     14  C   UNL     1      -1.901   1.574  25.158  0.00  0.00    +0.026 C 
ATOM     15  C   UNL     1      -2.580   2.025  25.289  0.00  0.00    +0.094 C 
ATOM     16  N   UNL     1      -2.525   2.847  25.345  0.00  0.00    -0.280 N 
ATOM     17  C   UNL     1      -1.792   3.217  25.271  0.00  0.00    +0.093 C 
ATOM     18  C   UNL     1      -1.113   2.766  25.140  0.00  0.00    +0.022 C 
ATOM     19  C   UNL     1      -1.168   1.944  25.084  0.00  0.00    +0.015 C 
ATOM     24  C   UNL     1      -3.203   3.298  25.475  0.00  0.00    +0.225 C 
ATOM     25  O   UNL     1      -3.937   2.927  25.550  0.00  0.00    -0.275 OA
ENDROOT
BRANCH  24  26
ATOM     26  C   UNL     1      -3.147   4.119  25.531  0.00  0.00    +0.069 C 
ATOM     27  C   UNL     1      -3.092   4.940  25.586  0.00  0.00    +0.009 C 
ATOM     28  C   UNL     1      -3.000   4.055  26.340  0.00  0.00    +0.009 C 
ATOM     29  C   UNL     1      -3.295   4.183  24.721  0.00  0.00    +0.009 C 
ENDBRANCH  24  26
BRANCH  14  13
ATOM     13  C   UNL     1      -1.957   0.753  25.103  0.00  0.00    +0.047 C 
BRANCH  13  12
ATOM      3  C   UNL     1      -3.767  -1.370  24.484  0.00  0.00    +0.135 A 
ATOM      4  C   UNL     1      -3.569  -1.746  25.191  0.00  0.00    +0.037 A 
ATOM      5  C   UNL     1      -3.016  -1.403  25.700  0.00  0.00    +0.003 A 
ATOM      6  C   UNL     1      -2.663  -0.684  25.500  0.00  0.00    +0.001 A 
ATOM      7  C   UNL     1      -2.861  -0.308  24.793  0.00  0.00    +0.012 A 
ATOM      8  C   UNL     1      -3.414  -0.651  24.284  0.00  0.00    +0.015 A 
ATOM      9  C   UNL     1      -3.613  -0.276  23.578  0.00  0.00    +0.056 C 
ATOM     10  C   UNL     1      -3.260   0.442  23.379  0.00  0.00    +0.130 C 
ATOM     11  N   UNL     1      -2.707   0.786  23.888  0.00  0.00    -0.274 NA
ATOM     12  C   UNL     1      -2.509   0.410  24.594  0.00  0.00    +0.053 C 
BRANCH   3   2
ATOM      1  C   UNL     1      -4.404  -2.534  23.951  0.00  0.00    +0.252 C 
ATOM      2  O   UNL     1      -4.319  -1.713  23.976  0.00  0.00    -0.472 OA
ENDBRANCH   3   2
ENDBRANCH  13  12
ENDBRANCH  14  13
BRANCH  19  20
ATOM     20  C   UNL     1      -0.490   1.493  24.954  0.00  0.00    +0.114 C 
BRANCH  20  21
ATOM     21  C   UNL     1       0.246   1.862  24.897  0.00  0.00    +0.365 C 
ATOM     22  O   UNL     1       0.583   1.998  24.156  0.00  0.00    -0.246 OA
ATOM     23  O   UNL     1       0.645   2.094  25.580  0.00  0.00    -0.246 OA
ENDBRANCH  20  21
ENDBRANCH  19  20
TORSDOF 6
ENDMDL
