MODEL 1
REMARK VINA RESULT:     -11.4      0.000      0.000
REMARK  Name = 
REMARK  2 active torsions:
REMARK  status: ('A' for Active; 'I' for Inactive)
REMARK    1  A    between atoms: C_2  and  C_3
REMARK    2  A    between atoms: C_21  and  C_24
REMARK                            x       y       z     vdW  Elec       q    Type
REMARK                         _______ _______ _______ _____ _____    ______ ____
ROOT
ATOM      1  O   UNL     1      -4.563   3.846  24.208  0.00  0.00    -0.275 OA
ATOM      2  C   UNL     1      -4.400   3.092  24.502  0.00  0.00    +0.225 C 
ATOM      9  N   UNL     1      -3.682   2.726  24.321  0.00  0.00    -0.276 N 
ATOM     10  C   UNL     1      -3.129   3.113  23.848  0.00  0.00    +0.115 C 
ATOM     11  C   UNL     1      -2.412   2.747  23.668  0.00  0.00    +0.116 C 
ATOM     12  N   UNL     1      -2.249   1.993  23.962  0.00  0.00    -0.266 N 
ATOM     13  C   UNL     1      -2.803   1.606  24.435  0.00  0.00    +0.174 C 
ATOM     14  C   UNL     1      -3.519   1.972  24.615  0.00  0.00    +0.123 C 
ATOM     15  C   UNL     1      -2.751   0.859  24.781  0.00  0.00    +0.265 C 
ATOM     16  O   UNL     1      -3.403   0.626  25.228  0.00  0.00    -0.271 OA
ATOM     17  N   UNL     1      -2.133   0.315  24.740  0.00  0.00    -0.178 NA
ATOM     18  C   UNL     1      -1.413   0.383  24.342  0.00  0.00    +0.078 A 
ATOM     19  C   UNL     1      -1.135   1.012  23.887  0.00  0.00    +0.069 A 
ATOM     20  C   UNL     1      -0.391   0.967  23.532  0.00  0.00    +0.006 A 
ATOM     21  C   UNL     1       0.074   0.293  23.633  0.00  0.00    +0.000 A 
ATOM     22  C   UNL     1      -0.204  -0.335  24.088  0.00  0.00    +0.001 A 
ATOM     23  C   UNL     1      -0.948  -0.291  24.443  0.00  0.00    +0.017 A 
ATOM     33  C   UNL     1      -1.507   1.729  23.717  0.00  0.00    +0.251 C 
ATOM     34  O   UNL     1      -1.080   2.250  23.241  0.00  0.00    -0.270 OA
ENDROOT
BRANCH  21  24
ATOM     24  C   UNL     1       0.818   0.249  23.279  0.00  0.00    +0.003 A 
ATOM     25  C   UNL     1       1.425   0.748  23.530  0.00  0.00    +0.040 A 
ATOM     26  C   UNL     1       2.169   0.704  23.175  0.00  0.00    +0.176 A 
ATOM     27  C   UNL     1       2.306   0.160  22.570  0.00  0.00    +0.176 A 
ATOM     28  O   UNL     1       3.090   0.242  22.326  0.00  0.00    -0.435 OA
ATOM     29  C   UNL     1       3.437   0.836  22.780  0.00  0.00    +0.429 C 
ATOM     30  O   UNL     1       2.869   1.122  23.306  0.00  0.00    -0.435 OA
ATOM     31  C   UNL     1       1.698  -0.339  22.319  0.00  0.00    +0.040 A 
ATOM     32  C   UNL     1       0.955  -0.295  22.673  0.00  0.00    +0.003 A 
ENDBRANCH  21  24
BRANCH   2   3
ATOM      3  C   UNL     1      -4.953   2.706  24.975  0.00  0.00    +0.080 C 
ATOM      4  C   UNL     1      -5.475   2.163  24.640  0.00  0.00    +0.028 C 
ATOM      5  C   UNL     1      -6.029   1.775  25.113  0.00  0.00    +0.089 C 
ATOM      6  N   UNL     1      -6.061   1.932  25.923  0.00  0.00    -0.218 NA
ATOM      7  C   UNL     1      -5.538   2.476  26.258  0.00  0.00    +0.089 C 
ATOM      8  C   UNL     1      -4.985   2.862  25.785  0.00  0.00    +0.028 C 
ENDBRANCH   2   3
TORSDOF 2
ENDMDL
MODEL 2
REMARK VINA RESULT:      -9.5      2.623      4.697
REMARK  Name = 
REMARK  2 active torsions:
REMARK  status: ('A' for Active; 'I' for Inactive)
REMARK    1  A    between atoms: C_2  and  C_3
REMARK    2  A    between atoms: C_21  and  C_24
REMARK                            x       y       z     vdW  Elec       q    Type
REMARK                         _______ _______ _______ _____ _____    ______ ____
ROOT
ATOM      1  O   UNL     1       0.196   3.827  25.377  0.00  0.00    -0.275 OA
ATOM      2  C   UNL     1      -0.605   3.844  25.179  0.00  0.00    +0.225 C 
ATOM      9  N   UNL     1      -1.017   3.138  25.064  0.00  0.00    -0.276 N 
ATOM     10  C   UNL     1      -0.628   2.415  25.148  0.00  0.00    +0.115 C 
ATOM     11  C   UNL     1      -1.039   1.710  25.033  0.00  0.00    +0.116 C 
ATOM     12  N   UNL     1      -1.841   1.727  24.835  0.00  0.00    -0.266 N 
ATOM     13  C   UNL     1      -2.229   2.450  24.752  0.00  0.00    +0.174 C 
ATOM     14  C   UNL     1      -1.818   3.155  24.866  0.00  0.00    +0.123 C 
ATOM     15  C   UNL     1      -3.019   2.590  24.558  0.00  0.00    +0.265 C 
ATOM     16  O   UNL     1      -3.242   3.382  24.517  0.00  0.00    -0.271 OA
ATOM     17  N   UNL     1      -3.615   2.042  24.401  0.00  0.00    -0.178 NA
ATOM     18  C   UNL     1      -3.568   1.218  24.398  0.00  0.00    +0.078 A 
ATOM     19  C   UNL     1      -2.914   0.739  24.551  0.00  0.00    +0.069 A 
ATOM     20  C   UNL     1      -2.987  -0.082  24.518  0.00  0.00    +0.006 A 
ATOM     21  C   UNL     1      -3.715  -0.424  24.332  0.00  0.00    +0.000 A 
ATOM     22  C   UNL     1      -4.368   0.054  24.178  0.00  0.00    +0.001 A 
ATOM     23  C   UNL     1      -4.295   0.875  24.211  0.00  0.00    +0.017 A 
ATOM     33  C   UNL     1      -2.145   0.966  24.746  0.00  0.00    +0.251 C 
ATOM     34  O   UNL     1      -1.610   0.349  24.867  0.00  0.00    -0.270 OA
ENDROOT
BRANCH  21  24
ATOM     24  C   UNL     1      -3.787  -1.246  24.299  0.00  0.00    +0.003 A 
ATOM     25  C   UNL     1      -3.460  -1.712  24.895  0.00  0.00    +0.040 A 
ATOM     26  C   UNL     1      -3.533  -2.534  24.862  0.00  0.00    +0.176 A 
ATOM     27  C   UNL     1      -3.933  -2.888  24.233  0.00  0.00    +0.176 A 
ATOM     28  O   UNL     1      -3.917  -3.705  24.348  0.00  0.00    -0.435 OA
ATOM     29  C   UNL     1      -3.507  -3.856  25.047  0.00  0.00    +0.429 C 
ATOM     30  O   UNL     1      -3.269  -3.133  25.365  0.00  0.00    -0.435 OA
ATOM     31  C   UNL     1      -4.261  -2.421  23.637  0.00  0.00    +0.040 A 
ATOM     32  C   UNL     1      -4.188  -1.600  23.670  0.00  0.00    +0.003 A 
ENDBRANCH  21  24
BRANCH   2   3
ATOM      3  C   UNL     1      -0.994   4.567  25.096  0.00  0.00    +0.080 C 
ATOM      4  C   UNL     1      -1.553   4.801  25.654  0.00  0.00    +0.028 C 
ATOM      5  C   UNL     1      -1.942   5.524  25.572  0.00  0.00    +0.089 C 
ATOM      6  N   UNL     1      -1.771   6.013  24.929  0.00  0.00    -0.218 NA
ATOM      7  C   UNL     1      -1.211   5.778  24.370  0.00  0.00    +0.089 C 
ATOM      8  C   UNL     1      -0.823   5.055  24.453  0.00  0.00    +0.028 C 
ENDBRANCH   2   3
TORSDOF 2
ENDMDL
MODEL 3
REMARK VINA RESULT:      -9.4      2.659      4.878
REMARK  Name = 
REMARK  2 active torsions:
REMARK  status: ('A' for Active; 'I' for Inactive)
REMARK    1  A    between atoms: C_2  and  C_3
REMARK    2  A    between atoms: C_21  and  C_24
REMARK                            x       y       z     vdW  Elec       q    Type
REMARK                         _______ _______ _______ _____ _____    ______ ____
ROOT
ATOM      1  O   UNL     1      -1.290  -2.606  24.994  0.00  0.00    -0.275 OA
ATOM      2  C   UNL     1      -1.991  -2.202  24.827  0.00  0.00    +0.225 C 
ATOM      9  N   UNL     1      -2.008  -1.377  24.855  0.00  0.00    -0.276 N 
ATOM     10  C   UNL     1      -1.325  -0.957  25.049  0.00  0.00    +0.115 C 
ATOM     11  C   UNL     1      -1.342  -0.133  25.077  0.00  0.00    +0.116 C 
ATOM     12  N   UNL     1      -2.042   0.271  24.910  0.00  0.00    -0.266 N 
ATOM     13  C   UNL     1      -2.725  -0.150  24.715  0.00  0.00    +0.174 C 
ATOM     14  C   UNL     1      -2.708  -0.973  24.687  0.00  0.00    +0.123 C 
ATOM     15  C   UNL     1      -3.474   0.143  24.531  0.00  0.00    +0.265 C 
ATOM     16  O   UNL     1      -4.047  -0.425  24.359  0.00  0.00    -0.271 OA
ATOM     17  N   UNL     1      -3.726   0.927  24.495  0.00  0.00    -0.178 NA
ATOM     18  C   UNL     1      -3.290   1.614  24.636  0.00  0.00    +0.078 A 
ATOM     19  C   UNL     1      -2.496   1.685  24.847  0.00  0.00    +0.069 A 
ATOM     20  C   UNL     1      -2.165   2.432  24.962  0.00  0.00    +0.006 A 
ATOM     21  C   UNL     1      -2.630   3.108  24.867  0.00  0.00    +0.000 A 
ATOM     22  C   UNL     1      -3.423   3.036  24.657  0.00  0.00    +0.001 A 
ATOM     23  C   UNL     1      -3.754   2.290  24.541  0.00  0.00    +0.017 A 
ATOM     33  C   UNL     1      -1.940   1.087  24.969  0.00  0.00    +0.251 C 
ATOM     34  O   UNL     1      -1.183   1.340  25.176  0.00  0.00    -0.270 OA
ENDROOT
BRANCH  21  24
ATOM     24  C   UNL     1      -2.298   3.855  24.983  0.00  0.00    +0.003 A 
ATOM     25  C   UNL     1      -1.574   4.043  24.637  0.00  0.00    +0.040 A 
ATOM     26  C   UNL     1      -1.243   4.790  24.752  0.00  0.00    +0.176 A 
ATOM     27  C   UNL     1      -1.637   5.349  25.214  0.00  0.00    +0.176 A 
ATOM     28  O   UNL     1      -1.178   6.035  25.230  0.00  0.00    -0.435 OA
ATOM     29  C   UNL     1      -0.503   5.900  24.779  0.00  0.00    +0.429 C 
ATOM     30  O   UNL     1      -0.541   5.131  24.483  0.00  0.00    -0.435 OA
ATOM     31  C   UNL     1      -2.362   5.161  25.561  0.00  0.00    +0.040 A 
ATOM     32  C   UNL     1      -2.692   4.414  25.445  0.00  0.00    +0.003 A 
ENDBRANCH  21  24
BRANCH   2   3
ATOM      3  C   UNL     1      -2.673  -2.623  24.632  0.00  0.00    +0.080 C 
ATOM      4  C   UNL     1      -2.821  -2.829  23.848  0.00  0.00    +0.028 C 
ATOM      5  C   UNL     1      -3.503  -3.249  23.652  0.00  0.00    +0.089 C 
ATOM      6  N   UNL     1      -4.038  -3.464  24.242  0.00  0.00    -0.218 NA
ATOM      7  C   UNL     1      -3.890  -3.258  25.028  0.00  0.00    +0.089 C 
ATOM      8  C   UNL     1      -3.208  -2.838  25.223  0.00  0.00    +0.028 C 
ENDBRANCH   2   3
TORSDOF 2
ENDMDL
MODEL 4
REMARK VINA RESULT:      -9.0      1.406      2.234
REMARK  Name = 
REMARK  2 active torsions:
REMARK  status: ('A' for Active; 'I' for Inactive)
REMARK    1  A    between atoms: C_2  and  C_3
REMARK    2  A    between atoms: C_21  and  C_24
REMARK                            x       y       z     vdW  Elec       q    Type
REMARK                         _______ _______ _______ _____ _____    ______ ____
ROOT
ATOM      1  O   UNL     1      -2.416   3.476  25.501  0.00  0.00    -0.275 OA
ATOM      2  C   UNL     1      -2.395   2.795  25.035  0.00  0.00    +0.225 C 
ATOM      9  N   UNL     1      -1.671   2.493  24.779  0.00  0.00    -0.276 N 
ATOM     10  C   UNL     1      -0.968   2.872  24.987  0.00  0.00    +0.115 C 
ATOM     11  C   UNL     1      -0.245   2.570  24.731  0.00  0.00    +0.116 C 
ATOM     12  N   UNL     1      -0.224   1.889  24.265  0.00  0.00    -0.266 N 
ATOM     13  C   UNL     1      -0.926   1.510  24.057  0.00  0.00    +0.174 C 
ATOM     14  C   UNL     1      -1.650   1.812  24.313  0.00  0.00    +0.123 C 
ATOM     15  C   UNL     1      -1.028   0.830  23.601  0.00  0.00    +0.265 C 
ATOM     16  O   UNL     1      -1.808   0.587  23.491  0.00  0.00    -0.271 OA
ATOM     17  N   UNL     1      -0.453   0.361  23.241  0.00  0.00    -0.178 NA
ATOM     18  C   UNL     1       0.367   0.457  23.249  0.00  0.00    +0.078 A 
ATOM     19  C   UNL     1       0.812   1.044  23.617  0.00  0.00    +0.069 A 
ATOM     20  C   UNL     1       1.636   1.037  23.555  0.00  0.00    +0.006 A 
ATOM     21  C   UNL     1       2.011   0.443  23.124  0.00  0.00    +0.000 A 
ATOM     22  C   UNL     1       1.565  -0.144  22.755  0.00  0.00    +0.001 A 
ATOM     23  C   UNL     1       0.743  -0.138  22.817  0.00  0.00    +0.017 A 
ATOM     33  C   UNL     1       0.550   1.682  24.070  0.00  0.00    +0.251 C 
ATOM     34  O   UNL     1       1.139   2.177  24.366  0.00  0.00    -0.270 OA
ENDROOT
BRANCH  21  24
ATOM     24  C   UNL     1       2.835   0.436  23.061  0.00  0.00    +0.003 A 
ATOM     25  C   UNL     1       3.273  -0.142  23.454  0.00  0.00    +0.040 A 
ATOM     26  C   UNL     1       4.096  -0.148  23.392  0.00  0.00    +0.176 A 
ATOM     27  C   UNL     1       4.480   0.423  22.937  0.00  0.00    +0.176 A 
ATOM     28  O   UNL     1       5.292   0.278  22.978  0.00  0.00    -0.435 OA
ATOM     29  C   UNL     1       5.408  -0.381  23.458  0.00  0.00    +0.429 C 
ATOM     30  O   UNL     1       4.670  -0.646  23.715  0.00  0.00    -0.435 OA
ATOM     31  C   UNL     1       4.041   1.001  22.543  0.00  0.00    +0.040 A 
ATOM     32  C   UNL     1       3.219   1.007  22.606  0.00  0.00    +0.003 A 
ENDBRANCH  21  24
BRANCH   2   3
ATOM      3  C   UNL     1      -3.097   2.416  24.827  0.00  0.00    +0.080 C 
ATOM      4  C   UNL     1      -3.397   1.813  25.301  0.00  0.00    +0.028 C 
ATOM      5  C   UNL     1      -4.100   1.433  25.093  0.00  0.00    +0.089 C 
ATOM      6  N   UNL     1      -4.503   1.659  24.409  0.00  0.00    -0.218 NA
ATOM      7  C   UNL     1      -4.202   2.263  23.934  0.00  0.00    +0.089 C 
ATOM      8  C   UNL     1      -3.500   2.642  24.143  0.00  0.00    +0.028 C 
ENDBRANCH   2   3
TORSDOF 2
ENDMDL
MODEL 5
REMARK VINA RESULT:      -8.1      1.755      6.314
REMARK  Name = 
REMARK  2 active torsions:
REMARK  status: ('A' for Active; 'I' for Inactive)
REMARK    1  A    between atoms: C_2  and  C_3
REMARK    2  A    between atoms: C_21  and  C_24
REMARK                            x       y       z     vdW  Elec       q    Type
REMARK                         _______ _______ _______ _____ _____    ______ ____
ROOT
ATOM      1  O   UNL     1       1.596  -0.822  22.044  0.00  0.00    -0.275 OA
ATOM      2  C   UNL     1       1.688  -0.188  22.564  0.00  0.00    +0.225 C 
ATOM      9  N   UNL     1       1.025   0.182  22.886  0.00  0.00    -0.276 N 
ATOM     10  C   UNL     1       0.269  -0.082  22.688  0.00  0.00    +0.115 C 
ATOM     11  C   UNL     1      -0.395   0.288  23.010  0.00  0.00    +0.116 C 
ATOM     12  N   UNL     1      -0.302   0.922  23.530  0.00  0.00    -0.266 N 
ATOM     13  C   UNL     1       0.454   1.186  23.728  0.00  0.00    +0.174 C 
ATOM     14  C   UNL     1       1.117   0.817  23.406  0.00  0.00    +0.123 C 
ATOM     15  C   UNL     1       0.668   1.804  24.231  0.00  0.00    +0.265 C 
ATOM     16  O   UNL     1       1.478   1.932  24.316  0.00  0.00    -0.271 OA
ATOM     17  N   UNL     1       0.178   2.310  24.660  0.00  0.00    -0.178 NA
ATOM     18  C   UNL     1      -0.646   2.323  24.693  0.00  0.00    +0.078 A 
ATOM     19  C   UNL     1      -1.184   1.834  24.304  0.00  0.00    +0.069 A 
ATOM     20  C   UNL     1      -1.995   1.943  24.414  0.00  0.00    +0.006 A 
ATOM     21  C   UNL     1      -2.266   2.541  24.913  0.00  0.00    +0.000 A 
ATOM     22  C   UNL     1      -1.729   3.029  25.302  0.00  0.00    +0.001 A 
ATOM     23  C   UNL     1      -0.918   2.922  25.192  0.00  0.00    +0.017 A 
ATOM     33  C   UNL     1      -1.031   1.210  23.786  0.00  0.00    +0.251 C 
ATOM     34  O   UNL     1      -1.695   0.824  23.485  0.00  0.00    -0.270 OA
ENDROOT
BRANCH  21  24
ATOM     24  C   UNL     1      -3.078   2.649  25.024  0.00  0.00    +0.003 A 
ATOM     25  C   UNL     1      -3.568   1.996  25.141  0.00  0.00    +0.040 A 
ATOM     26  C   UNL     1      -4.379   2.104  25.252  0.00  0.00    +0.176 A 
ATOM     27  C   UNL     1      -4.698   2.865  25.244  0.00  0.00    +0.176 A 
ATOM     28  O   UNL     1      -5.512   2.801  25.367  0.00  0.00    -0.435 OA
ATOM     29  C   UNL     1      -5.695   2.002  25.450  0.00  0.00    +0.429 C 
ATOM     30  O   UNL     1      -4.995   1.570  25.379  0.00  0.00    -0.435 OA
ATOM     31  C   UNL     1      -4.207   3.518  25.126  0.00  0.00    +0.040 A 
ATOM     32  C   UNL     1      -3.397   3.409  25.016  0.00  0.00    +0.003 A 
ENDBRANCH  21  24
BRANCH   2   3
ATOM      3  C   UNL     1       2.444   0.076  22.762  0.00  0.00    +0.080 C 
ATOM      4  C   UNL     1       2.762   0.738  22.387  0.00  0.00    +0.028 C 
ATOM      5  C   UNL     1       3.518   1.002  22.584  0.00  0.00    +0.089 C 
ATOM      6  N   UNL     1       3.957   0.604  23.158  0.00  0.00    -0.218 NA
ATOM      7  C   UNL     1       3.639  -0.058  23.534  0.00  0.00    +0.089 C 
ATOM      8  C   UNL     1       2.883  -0.322  23.337  0.00  0.00    +0.028 C 
ENDBRANCH   2   3
TORSDOF 2
ENDMDL
MODEL 6
REMARK VINA RESULT:      -7.5      1.915      2.961
REMARK  Name = 
REMARK  2 active torsions:
REMARK  status: ('A' for Active; 'I' for Inactive)
REMARK    1  A    between atoms: C_2  and  C_3
REMARK    2  A    between atoms: C_21  and  C_24
REMARK                            x       y       z     vdW  Elec       q    Type
REMARK                         _______ _______ _______ _____ _____    ______ ____
ROOT
ATOM      1  O   UNL     1      -3.137  -2.251  24.970  0.00  0.00    -0.275 OA
ATOM      2  C   UNL     1      -2.983  -1.447  24.864  0.00  0.00    +0.225 C 
ATOM      9  N   UNL     1      -2.235  -1.200  24.616  0.00  0.00    -0.276 N 
ATOM     10  C   UNL     1      -1.643  -1.756  24.473  0.00  0.00    +0.115 C 
ATOM     11  C   UNL     1      -0.897  -1.510  24.225  0.00  0.00    +0.116 C 
ATOM     12  N   UNL     1      -0.742  -0.706  24.119  0.00  0.00    -0.266 N 
ATOM     13  C   UNL     1      -1.334  -0.150  24.262  0.00  0.00    +0.174 C 
ATOM     14  C   UNL     1      -2.081  -0.397  24.510  0.00  0.00    +0.123 C 
ATOM     15  C   UNL     1      -1.296   0.671  24.190  0.00  0.00    +0.265 C 
ATOM     16  O   UNL     1      -1.989   1.078  24.375  0.00  0.00    -0.271 OA
ATOM     17  N   UNL     1      -0.658   1.139  23.960  0.00  0.00    -0.178 NA
ATOM     18  C   UNL     1       0.102   0.900  23.743  0.00  0.00    +0.078 A 
ATOM     19  C   UNL     1       0.410   0.136  23.703  0.00  0.00    +0.069 A 
ATOM     20  C   UNL     1       1.193   0.018  23.470  0.00  0.00    +0.006 A 
ATOM     21  C   UNL     1       1.667   0.665  23.277  0.00  0.00    +0.000 A 
ATOM     22  C   UNL     1       1.360   1.428  23.317  0.00  0.00    +0.001 A 
ATOM     23  C   UNL     1       0.577   1.547  23.549  0.00  0.00    +0.017 A 
ATOM     33  C   UNL     1       0.034  -0.579  23.871  0.00  0.00    +0.251 C 
ATOM     34  O   UNL     1       0.496  -1.256  23.777  0.00  0.00    -0.270 OA
ENDROOT
BRANCH  21  24
ATOM     24  C   UNL     1       2.450   0.547  23.044  0.00  0.00    +0.003 A 
ATOM     25  C   UNL     1       3.065   0.713  23.568  0.00  0.00    +0.040 A 
ATOM     26  C   UNL     1       3.849   0.595  23.335  0.00  0.00    +0.176 A 
ATOM     27  C   UNL     1       4.016   0.310  22.579  0.00  0.00    +0.176 A 
ATOM     28  O   UNL     1       4.836   0.249  22.505  0.00  0.00    -0.435 OA
ATOM     29  C   UNL     1       5.174   0.495  23.215  0.00  0.00    +0.429 C 
ATOM     30  O   UNL     1       4.565   0.709  23.729  0.00  0.00    -0.435 OA
ATOM     31  C   UNL     1       3.400   0.144  22.055  0.00  0.00    +0.040 A 
ATOM     32  C   UNL     1       2.618   0.262  22.288  0.00  0.00    +0.003 A 
ENDBRANCH  21  24
BRANCH   2   3
ATOM      3  C   UNL     1      -3.575  -0.891  25.006  0.00  0.00    +0.080 C 
ATOM      4  C   UNL     1      -3.660  -0.562  25.757  0.00  0.00    +0.028 C 
ATOM      5  C   UNL     1      -4.253  -0.006  25.900  0.00  0.00    +0.089 C 
ATOM      6  N   UNL     1      -4.760   0.221  25.291  0.00  0.00    -0.218 NA
ATOM      7  C   UNL     1      -4.675  -0.108  24.539  0.00  0.00    +0.089 C 
ATOM      8  C   UNL     1      -4.083  -0.664  24.396  0.00  0.00    +0.028 C 
ENDBRANCH   2   3
TORSDOF 2
ENDMDL
