MODEL 1
REMARK VINA RESULT:     -10.2      0.000      0.000
REMARK  Name = 
REMARK  10 active torsions:
REMARK  status: ('A' for Active; 'I' for Inactive)
REMARK    1  A    between atoms: C_2  and  C_4
REMARK    2  A    between atoms: C_6  and  C_7
REMARK    3  A    between atoms: C_7  and  C_8
REMARK    4  A    between atoms: N_10  and  C_11
REMARK    5  A    between atoms: C_11  and  C_12
REMARK    6  A    between atoms: C_21  and  C_22
REMARK    7  A    between atoms: C_22  and  N_23
REMARK    8  A    between atoms: C_24  and  C_26
REMARK    9  A    between atoms: C_26  and  C_27
REMARK   10  A    between atoms: C_27  and  C_28
REMARK                            x       y       z     vdW  Elec       q    Type
REMARK                         _______ _______ _______ _____ _____    ______ ____
ROOT
ATOM      4  C   UNL     1      -3.554   1.611  23.948  0.00  0.00    +0.006 C 
ATOM      5  C   UNL     1      -3.673   2.361  24.270  0.00  0.00    +0.005 C 
ATOM      6  C   UNL     1      -4.294   2.489  24.798  0.00  0.00    +0.027 C 
ATOM     18  C   UNL     1      -4.797   1.867  25.003  0.00  0.00    -0.048 C 
ATOM     19  C   UNL     1      -5.417   1.995  25.530  0.00  0.00    +0.026 C 
ATOM     20  C   UNL     1      -4.677   1.118  24.679  0.00  0.00    -0.033 C 
ATOM     21  C   UNL     1      -4.056   0.990  24.152  0.00  0.00    +0.043 C 
ENDROOT
BRANCH   4   2
ATOM      1  C   UNL     1      -2.211   1.193  23.695  0.00  0.00    +0.000 C 
ATOM      2  C   UNL     1      -2.932   1.484  23.420  0.00  0.00    +0.000 C 
ATOM      3  C   UNL     1      -3.032   1.646  22.618  0.00  0.00    +0.000 C 
ENDBRANCH   4   2
BRANCH   6   7
ATOM      7  C   UNL     1      -4.413   3.239  25.121  0.00  0.00    +0.091 C 
BRANCH   7   8
ATOM      8  C   UNL     1      -3.838   3.572  25.610  0.00  0.00    +0.242 C 
ATOM      9  O   UNL     1      -3.871   3.454  26.426  0.00  0.00    -0.273 OA
ATOM     10  N   UNL     1      -3.230   4.024  25.283  0.00  0.00    -0.200 NA
BRANCH  10  11
ATOM     11  C   UNL     1      -2.655   4.358  25.772  0.00  0.00    +0.143 C 
BRANCH  11  12
ATOM     12  C   UNL     1      -1.950   4.637  25.448  0.00  0.00    +0.019 A 
ATOM     13  C   UNL     1      -1.296   4.139  25.392  0.00  0.00    +0.001 A 
ATOM     14  C   UNL     1      -0.590   4.419  25.068  0.00  0.00    +0.020 A 
ATOM     15  C   UNL     1      -0.541   5.197  24.799  0.00  0.00    +0.099 A 
ATOM     16  N   UNL     1      -1.195   5.695  24.854  0.00  0.00    -0.243 NA
ATOM     17  C   UNL     1      -1.900   5.416  25.179  0.00  0.00    +0.096 A 
ENDBRANCH  11  12
ENDBRANCH  10  11
ENDBRANCH   7   8
ENDBRANCH   6   7
BRANCH  21  22
ATOM     22  C   UNL     1      -3.936   0.240  23.828  0.00  0.00    +0.119 C 
BRANCH  22  23
ATOM     23  N   UNL     1      -3.889  -0.420  24.321  0.00  0.00    -0.205 NA
ATOM     24  C   UNL     1      -4.024  -1.173  24.015  0.00  0.00    +0.242 C 
ATOM     25  O   UNL     1      -4.206  -1.267  23.215  0.00  0.00    -0.273 OA
BRANCH  24  26
ATOM     26  C   UNL     1      -3.976  -1.834  24.507  0.00  0.00    +0.099 C 
BRANCH  26  27
ATOM     27  C   UNL     1      -3.549  -2.498  24.268  0.00  0.00    +0.124 C 
BRANCH  27  28
ATOM     28  C   UNL     1      -3.111  -2.927  24.819  0.00  0.00    +0.365 C 
ATOM     29  O   UNL     1      -3.488  -3.278  25.463  0.00  0.00    -0.246 OA
ATOM     30  O   UNL     1      -2.295  -3.006  24.726  0.00  0.00    -0.246 OA
ENDBRANCH  27  28
ENDBRANCH  26  27
ENDBRANCH  24  26
ENDBRANCH  22  23
ENDBRANCH  21  22
TORSDOF 10
ENDMDL
MODEL 2
REMARK VINA RESULT:     -10.2      2.891      4.456
REMARK  Name = 
REMARK  10 active torsions:
REMARK  status: ('A' for Active; 'I' for Inactive)
REMARK    1  A    between atoms: C_2  and  C_4
REMARK    2  A    between atoms: C_6  and  C_7
REMARK    3  A    between atoms: C_7  and  C_8
REMARK    4  A    between atoms: N_10  and  C_11
REMARK    5  A    between atoms: C_11  and  C_12
REMARK    6  A    between atoms: C_21  and  C_22
REMARK    7  A    between atoms: C_22  and  N_23
REMARK    8  A    between atoms: C_24  and  C_26
REMARK    9  A    between atoms: C_26  and  C_27
REMARK   10  A    between atoms: C_27  and  C_28
REMARK                            x       y       z     vdW  Elec       q    Type
REMARK                         _______ _______ _______ _____ _____    ______ ____
ROOT
ATOM      4  C   UNL     1      -1.542   1.067  24.780  0.00  0.00    +0.006 C 
ATOM      5  C   UNL     1      -1.978   1.706  25.067  0.00  0.00    +0.005 C 
ATOM      6  C   UNL     1      -1.681   2.473  24.995  0.00  0.00    +0.027 C 
ATOM     18  C   UNL     1      -0.949   2.601  24.637  0.00  0.00    -0.048 C 
ATOM     19  C   UNL     1      -0.653   3.367  24.566  0.00  0.00    +0.026 C 
ATOM     20  C   UNL     1      -0.514   1.961  24.350  0.00  0.00    -0.033 C 
ATOM     21  C   UNL     1      -0.810   1.195  24.422  0.00  0.00    +0.043 C 
ENDROOT
BRANCH   4   2
ATOM      1  C   UNL     1      -1.652  -0.153  25.514  0.00  0.00    +0.000 C 
ATOM      2  C   UNL     1      -1.839   0.300  24.852  0.00  0.00    +0.000 C 
ATOM      3  C   UNL     1      -2.322  -0.011  24.261  0.00  0.00    +0.000 C 
ENDBRANCH   4   2
BRANCH   6   7
ATOM      7  C   UNL     1      -2.117   3.112  25.282  0.00  0.00    +0.091 C 
BRANCH   7   8
ATOM      8  C   UNL     1      -2.853   3.291  24.952  0.00  0.00    +0.242 C 
ATOM      9  O   UNL     1      -2.895   3.681  24.226  0.00  0.00    -0.273 OA
ATOM     10  N   UNL     1      -3.545   3.079  25.348  0.00  0.00    -0.200 NA
BRANCH  10  11
ATOM     11  C   UNL     1      -4.280   3.258  25.017  0.00  0.00    +0.143 C 
BRANCH  11  12
ATOM     12  C   UNL     1      -4.956   2.868  25.283  0.00  0.00    +0.019 A 
ATOM     13  C   UNL     1      -5.294   2.271  24.827  0.00  0.00    +0.001 A 
ATOM     14  C   UNL     1      -5.971   1.881  25.093  0.00  0.00    +0.020 A 
ATOM     15  C   UNL     1      -6.310   2.090  25.815  0.00  0.00    +0.099 A 
ATOM     16  N   UNL     1      -5.972   2.688  26.271  0.00  0.00    -0.243 NA
ATOM     17  C   UNL     1      -5.295   3.077  26.006  0.00  0.00    +0.096 A 
ENDBRANCH  11  12
ENDBRANCH  10  11
ENDBRANCH   7   8
ENDBRANCH   6   7
BRANCH  21  22
ATOM     22  C   UNL     1      -0.375   0.555  24.135  0.00  0.00    +0.119 C 
BRANCH  22  23
ATOM     23  N   UNL     1       0.197   0.672  23.553  0.00  0.00    -0.205 NA
ATOM     24  C   UNL     1       0.701   0.056  23.340  0.00  0.00    +0.242 C 
ATOM     25  O   UNL     1       0.632  -0.680  23.709  0.00  0.00    -0.273 OA
BRANCH  24  26
ATOM     26  C   UNL     1       1.274   0.173  22.757  0.00  0.00    +0.099 C 
BRANCH  26  27
ATOM     27  C   UNL     1       2.047  -0.088  22.880  0.00  0.00    +0.124 C 
BRANCH  27  28
ATOM     28  C   UNL     1       2.648   0.148  22.367  0.00  0.00    +0.365 C 
ATOM     29  O   UNL     1       2.603  -0.038  21.565  0.00  0.00    -0.246 OA
ATOM     30  O   UNL     1       3.296   0.569  22.656  0.00  0.00    -0.246 OA
ENDBRANCH  27  28
ENDBRANCH  26  27
ENDBRANCH  24  26
ENDBRANCH  22  23
ENDBRANCH  21  22
TORSDOF 10
ENDMDL
MODEL 3
REMARK VINA RESULT:      -9.5      1.554      5.490
REMARK  Name = 
REMARK  10 active torsions:
REMARK  status: ('A' for Active; 'I' for Inactive)
REMARK    1  A    between atoms: C_2  and  C_4
REMARK    2  A    between atoms: C_6  and  C_7
REMARK    3  A    between atoms: C_7  and  C_8
REMARK    4  A    between atoms: N_10  and  C_11
REMARK    5  A    between atoms: C_11  and  C_12
REMARK    6  A    between atoms: C_21  and  C_22
REMARK    7  A    between atoms: C_22  and  N_23
REMARK    8  A    between atoms: C_24  and  C_26
REMARK    9  A    between atoms: C_26  and  C_27
REMARK   10  A    between atoms: C_27  and  C_28
REMARK                            x       y       z     vdW  Elec       q    Type
REMARK                         _______ _______ _______ _____ _____    ______ ____
ROOT
ATOM      4  C   UNL     1      -4.612   1.740  24.823  0.00  0.00    +0.006 C 
ATOM      5  C   UNL     1      -4.595   0.995  24.469  0.00  0.00    +0.005 C 
ATOM      6  C   UNL     1      -4.000   0.809  23.927  0.00  0.00    +0.027 C 
ATOM     18  C   UNL     1      -3.423   1.368  23.741  0.00  0.00    -0.048 C 
ATOM     19  C   UNL     1      -2.829   1.181  23.200  0.00  0.00    +0.026 C 
ATOM     20  C   UNL     1      -3.440   2.112  24.095  0.00  0.00    -0.033 C 
ATOM     21  C   UNL     1      -4.034   2.299  24.636  0.00  0.00    +0.043 C 
ENDROOT
BRANCH   4   2
ATOM      1  C   UNL     1      -5.899   2.293  25.105  0.00  0.00    +0.000 C 
ATOM      2  C   UNL     1      -5.207   1.926  25.364  0.00  0.00    +0.000 C 
ATOM      3  C   UNL     1      -5.109   1.747  26.162  0.00  0.00    +0.000 C 
ENDBRANCH   4   2
BRANCH   6   7
ATOM      7  C   UNL     1      -3.984   0.064  23.574  0.00  0.00    +0.091 C 
BRANCH   7   8
ATOM      8  C   UNL     1      -3.864  -0.609  24.036  0.00  0.00    +0.242 C 
ATOM      9  O   UNL     1      -4.510  -1.032  24.327  0.00  0.00    -0.273 OA
ATOM     10  N   UNL     1      -3.096  -0.859  24.207  0.00  0.00    -0.200 NA
BRANCH  10  11
ATOM     11  C   UNL     1      -2.976  -1.533  24.670  0.00  0.00    +0.143 C 
BRANCH  11  12
ATOM     12  C   UNL     1      -2.209  -1.780  24.845  0.00  0.00    +0.019 A 
ATOM     13  C   UNL     1      -1.758  -1.367  25.397  0.00  0.00    +0.001 A 
ATOM     14  C   UNL     1      -0.990  -1.615  25.572  0.00  0.00    +0.020 A 
ATOM     15  C   UNL     1      -0.675  -2.276  25.193  0.00  0.00    +0.099 A 
ATOM     16  N   UNL     1      -1.126  -2.690  24.641  0.00  0.00    -0.243 NA
ATOM     17  C   UNL     1      -1.893  -2.442  24.466  0.00  0.00    +0.096 A 
ENDBRANCH  11  12
ENDBRANCH  10  11
ENDBRANCH   7   8
ENDBRANCH   6   7
BRANCH  21  22
ATOM     22  C   UNL     1      -4.051   3.044  24.990  0.00  0.00    +0.119 C 
BRANCH  22  23
ATOM     23  N   UNL     1      -3.489   3.611  24.787  0.00  0.00    -0.205 NA
ATOM     24  C   UNL     1      -3.220   4.147  25.352  0.00  0.00    +0.242 C 
ATOM     25  O   UNL     1      -3.514   4.115  26.124  0.00  0.00    -0.273 OA
BRANCH  24  26
ATOM     26  C   UNL     1      -2.657   4.715  25.149  0.00  0.00    +0.099 C 
BRANCH  26  27
ATOM     27  C   UNL     1      -1.899   4.680  25.471  0.00  0.00    +0.124 C 
BRANCH  27  28
ATOM     28  C   UNL     1      -1.280   5.093  25.116  0.00  0.00    +0.365 C 
ATOM     29  O   UNL     1      -0.598   4.693  24.881  0.00  0.00    -0.246 OA
ATOM     30  O   UNL     1      -1.342   5.907  24.995  0.00  0.00    -0.246 OA
ENDBRANCH  27  28
ENDBRANCH  26  27
ENDBRANCH  24  26
ENDBRANCH  22  23
ENDBRANCH  21  22
TORSDOF 10
ENDMDL
MODEL 4
REMARK VINA RESULT:      -9.4      3.554      5.386
REMARK  Name = 
REMARK  10 active torsions:
REMARK  status: ('A' for Active; 'I' for Inactive)
REMARK    1  A    between atoms: C_2  and  C_4
REMARK    2  A    between atoms: C_6  and  C_7
REMARK    3  A    between atoms: C_7  and  C_8
REMARK    4  A    between atoms: N_10  and  C_11
REMARK    5  A    between atoms: C_11  and  C_12
REMARK    6  A    between atoms: C_21  and  C_22
REMARK    7  A    between atoms: C_22  and  N_23
REMARK    8  A    between atoms: C_24  and  C_26
REMARK    9  A    between atoms: C_26  and  C_27
REMARK   10  A    between atoms: C_27  and  C_28
REMARK                            x       y       z     vdW  Elec       q    Type
REMARK                         _______ _______ _______ _____ _____    ______ ____
ROOT
ATOM      4  C   UNL     1      -0.687   1.768  24.537  0.00  0.00    +0.006 C 
ATOM      5  C   UNL     1      -0.126   1.203  24.320  0.00  0.00    +0.005 C 
ATOM      6  C   UNL     1      -0.358   0.424  24.178  0.00  0.00    +0.027 C 
ATOM     18  C   UNL     1      -1.152   0.210  24.252  0.00  0.00    -0.048 C 
ATOM     19  C   UNL     1      -1.384  -0.568  24.109  0.00  0.00    +0.026 C 
ATOM     20  C   UNL     1      -1.713   0.775  24.468  0.00  0.00    -0.033 C 
ATOM     21  C   UNL     1      -1.481   1.554  24.611  0.00  0.00    +0.043 C 
ENDROOT
BRANCH   4   2
ATOM      1  C   UNL     1      -0.458   3.097  24.065  0.00  0.00    +0.000 C 
ATOM      2  C   UNL     1      -0.455   2.547  24.679  0.00  0.00    +0.000 C 
ATOM      3  C   UNL     1      -0.219   2.775  25.435  0.00  0.00    +0.000 C 
ENDBRANCH   4   2
BRANCH   6   7
ATOM      7  C   UNL     1       0.203  -0.140  23.961  0.00  0.00    +0.091 C 
BRANCH   7   8
ATOM      8  C   UNL     1       0.680  -0.014  23.299  0.00  0.00    +0.242 C 
ATOM      9  O   UNL     1       0.336   0.077  22.554  0.00  0.00    -0.273 OA
ATOM     10  N   UNL     1       1.499   0.020  23.382  0.00  0.00    -0.200 NA
BRANCH  10  11
ATOM     11  C   UNL     1       1.976   0.146  22.719  0.00  0.00    +0.143 C 
BRANCH  11  12
ATOM     12  C   UNL     1       2.792   0.229  22.809  0.00  0.00    +0.019 A 
ATOM     13  C   UNL     1       3.145   0.966  22.701  0.00  0.00    +0.001 A 
ATOM     14  C   UNL     1       3.961   1.050  22.791  0.00  0.00    +0.020 A 
ATOM     15  C   UNL     1       4.423   0.395  22.988  0.00  0.00    +0.099 A 
ATOM     16  N   UNL     1       4.070  -0.342  23.096  0.00  0.00    -0.243 NA
ATOM     17  C   UNL     1       3.254  -0.425  23.006  0.00  0.00    +0.096 A 
ENDBRANCH  11  12
ENDBRANCH  10  11
ENDBRANCH   7   8
ENDBRANCH   6   7
BRANCH  21  22
ATOM     22  C   UNL     1      -2.041   2.119  24.827  0.00  0.00    +0.119 C 
BRANCH  22  23
ATOM     23  N   UNL     1      -2.833   1.904  24.911  0.00  0.00    -0.205 NA
ATOM     24  C   UNL     1      -3.409   2.485  25.015  0.00  0.00    +0.242 C 
ATOM     25  O   UNL     1      -3.193   3.282  25.034  0.00  0.00    -0.273 OA
BRANCH  24  26
ATOM     26  C   UNL     1      -4.201   2.271  25.099  0.00  0.00    +0.099 C 
BRANCH  26  27
ATOM     27  C   UNL     1      -4.748   2.814  25.393  0.00  0.00    +0.124 C 
BRANCH  27  28
ATOM     28  C   UNL     1      -5.505   2.566  25.604  0.00  0.00    +0.365 C 
ATOM     29  O   UNL     1      -5.982   2.183  25.052  0.00  0.00    -0.246 OA
ATOM     30  O   UNL     1      -5.786   2.701  26.368  0.00  0.00    -0.246 OA
ENDBRANCH  27  28
ENDBRANCH  26  27
ENDBRANCH  24  26
ENDBRANCH  22  23
ENDBRANCH  21  22
TORSDOF 10
ENDMDL
MODEL 5
REMARK VINA RESULT:      -9.4      2.100      5.436
REMARK  Name = 
REMARK  10 active torsions:
REMARK  status: ('A' for Active; 'I' for Inactive)
REMARK    1  A    between atoms: C_2  and  C_4
REMARK    2  A    between atoms: C_6  and  C_7
REMARK    3  A    between atoms: C_7  and  C_8
REMARK    4  A    between atoms: N_10  and  C_11
REMARK    5  A    between atoms: C_11  and  C_12
REMARK    6  A    between atoms: C_21  and  C_22
REMARK    7  A    between atoms: C_22  and  N_23
REMARK    8  A    between atoms: C_24  and  C_26
REMARK    9  A    between atoms: C_26  and  C_27
REMARK   10  A    between atoms: C_27  and  C_28
REMARK                            x       y       z     vdW  Elec       q    Type
REMARK                         _______ _______ _______ _____ _____    ______ ____
ROOT
ATOM      4  C   UNL     1      -1.991   1.617  23.797  0.00  0.00    +0.006 C 
ATOM      5  C   UNL     1      -1.437   1.020  23.926  0.00  0.00    +0.005 C 
ATOM      6  C   UNL     1      -1.015   0.996  24.635  0.00  0.00    +0.027 C 
ATOM     18  C   UNL     1      -1.147   1.569  25.214  0.00  0.00    -0.048 C 
ATOM     19  C   UNL     1      -0.726   1.544  25.922  0.00  0.00    +0.026 C 
ATOM     20  C   UNL     1      -1.702   2.165  25.084  0.00  0.00    -0.033 C 
ATOM     21  C   UNL     1      -2.124   2.190  24.376  0.00  0.00    +0.043 C 
ENDROOT
BRANCH   4   2
ATOM      1  C   UNL     1      -3.120   1.222  23.015  0.00  0.00    +0.000 C 
ATOM      2  C   UNL     1      -2.413   1.642  23.088  0.00  0.00    +0.000 C 
ATOM      3  C   UNL     1      -2.129   2.084  22.454  0.00  0.00    +0.000 C 
ENDBRANCH   4   2
BRANCH   6   7
ATOM      7  C   UNL     1      -0.460   0.399  24.764  0.00  0.00    +0.091 C 
BRANCH   7   8
ATOM      8  C   UNL     1      -0.609  -0.367  24.493  0.00  0.00    +0.242 C 
ATOM      9  O   UNL     1      -0.215  -0.652  23.826  0.00  0.00    -0.273 OA
ATOM     10  N   UNL     1      -1.150  -0.846  24.890  0.00  0.00    -0.200 NA
BRANCH  10  11
ATOM     11  C   UNL     1      -1.299  -1.612  24.619  0.00  0.00    +0.143 C 
BRANCH  11  12
ATOM     12  C   UNL     1      -2.036  -1.959  24.748  0.00  0.00    +0.019 A 
ATOM     13  C   UNL     1      -2.464  -1.775  25.428  0.00  0.00    +0.001 A 
ATOM     14  C   UNL     1      -3.202  -2.123  25.557  0.00  0.00    +0.020 A 
ATOM     15  C   UNL     1      -3.509  -2.654  25.005  0.00  0.00    +0.099 A 
ATOM     16  N   UNL     1      -3.081  -2.837  24.326  0.00  0.00    -0.243 NA
ATOM     17  C   UNL     1      -2.344  -2.490  24.196  0.00  0.00    +0.096 A 
ENDBRANCH  11  12
ENDBRANCH  10  11
ENDBRANCH   7   8
ENDBRANCH   6   7
BRANCH  21  22
ATOM     22  C   UNL     1      -2.679   2.787  24.246  0.00  0.00    +0.119 C 
BRANCH  22  23
ATOM     23  N   UNL     1      -3.269   2.931  24.803  0.00  0.00    -0.205 NA
ATOM     24  C   UNL     1      -3.682   3.644  24.791  0.00  0.00    +0.242 C 
ATOM     25  O   UNL     1      -3.506   4.214  24.220  0.00  0.00    -0.273 OA
BRANCH  24  26
ATOM     26  C   UNL     1      -4.273   3.789  25.349  0.00  0.00    +0.099 C 
BRANCH  26  27
ATOM     27  C   UNL     1      -5.057   3.597  25.181  0.00  0.00    +0.124 C 
BRANCH  27  28
ATOM     28  C   UNL     1      -5.633   3.657  25.768  0.00  0.00    +0.365 C 
ATOM     29  O   UNL     1      -5.734   3.044  26.310  0.00  0.00    -0.246 OA
ATOM     30  O   UNL     1      -6.107   4.330  25.814  0.00  0.00    -0.246 OA
ENDBRANCH  27  28
ENDBRANCH  26  27
ENDBRANCH  24  26
ENDBRANCH  22  23
ENDBRANCH  21  22
TORSDOF 10
ENDMDL
MODEL 6
REMARK VINA RESULT:      -9.4      2.990      5.345
REMARK  Name = 
REMARK  10 active torsions:
REMARK  status: ('A' for Active; 'I' for Inactive)
REMARK    1  A    between atoms: C_2  and  C_4
REMARK    2  A    between atoms: C_6  and  C_7
REMARK    3  A    between atoms: C_7  and  C_8
REMARK    4  A    between atoms: N_10  and  C_11
REMARK    5  A    between atoms: C_11  and  C_12
REMARK    6  A    between atoms: C_21  and  C_22
REMARK    7  A    between atoms: C_22  and  N_23
REMARK    8  A    between atoms: C_24  and  C_26
REMARK    9  A    between atoms: C_26  and  C_27
REMARK   10  A    between atoms: C_27  and  C_28
REMARK                            x       y       z     vdW  Elec       q    Type
REMARK                         _______ _______ _______ _____ _____    ______ ____
ROOT
ATOM      4  C   UNL     1      -1.328   1.541  24.842  0.00  0.00    +0.006 C 
ATOM      5  C   UNL     1      -2.152   1.540  24.802  0.00  0.00    +0.005 C 
ATOM      6  C   UNL     1      -2.529   1.545  24.068  0.00  0.00    +0.027 C 
ATOM     18  C   UNL     1      -2.082   1.552  23.374  0.00  0.00    -0.048 C 
ATOM     19  C   UNL     1      -2.459   1.557  22.641  0.00  0.00    +0.026 C 
ATOM     20  C   UNL     1      -1.258   1.553  23.415  0.00  0.00    -0.033 C 
ATOM     21  C   UNL     1      -0.881   1.547  24.148  0.00  0.00    +0.043 C 
ENDROOT
BRANCH   4   2
ATOM      1  C   UNL     1      -0.774   0.818  25.943  0.00  0.00    +0.000 C 
ATOM      2  C   UNL     1      -0.950   1.536  25.576  0.00  0.00    +0.000 C 
ATOM      3  C   UNL     1      -0.750   2.246  25.942  0.00  0.00    +0.000 C 
ENDBRANCH   4   2
BRANCH   6   7
ATOM      7  C   UNL     1      -3.353   1.544  24.028  0.00  0.00    +0.091 C 
BRANCH   7   8
ATOM      8  C   UNL     1      -3.786   0.990  24.461  0.00  0.00    +0.242 C 
ATOM      9  O   UNL     1      -4.212   1.227  25.127  0.00  0.00    -0.273 OA
ATOM     10  N   UNL     1      -3.791   0.199  24.228  0.00  0.00    -0.200 NA
BRANCH  10  11
ATOM     11  C   UNL     1      -4.224  -0.356  24.661  0.00  0.00    +0.143 C 
BRANCH  11  12
ATOM     12  C   UNL     1      -4.074  -1.161  24.564  0.00  0.00    +0.019 A 
ATOM     13  C   UNL     1      -3.641  -1.571  25.133  0.00  0.00    +0.001 A 
ATOM     14  C   UNL     1      -3.492  -2.378  25.035  0.00  0.00    +0.020 A 
ATOM     15  C   UNL     1      -3.776  -2.772  24.369  0.00  0.00    +0.099 A 
ATOM     16  N   UNL     1      -4.209  -2.361  23.801  0.00  0.00    -0.243 NA
ATOM     17  C   UNL     1      -4.359  -1.556  23.897  0.00  0.00    +0.096 A 
ENDBRANCH  11  12
ENDBRANCH  10  11
ENDBRANCH   7   8
ENDBRANCH   6   7
BRANCH  21  22
ATOM     22  C   UNL     1      -0.057   1.548  24.189  0.00  0.00    +0.119 C 
BRANCH  22  23
ATOM     23  N   UNL     1       0.381   1.032  23.718  0.00  0.00    -0.205 NA
ATOM     24  C   UNL     1       1.182   1.173  23.586  0.00  0.00    +0.242 C 
ATOM     25  O   UNL     1       1.547   1.831  23.926  0.00  0.00    -0.273 OA
BRANCH  24  26
ATOM     26  C   UNL     1       1.620   0.656  23.115  0.00  0.00    +0.099 C 
BRANCH  26  27
ATOM     27  C   UNL     1       2.433   0.767  23.025  0.00  0.00    +0.124 C 
BRANCH  27  28
ATOM     28  C   UNL     1       2.874   0.240  22.570  0.00  0.00    +0.365 C 
ATOM     29  O   UNL     1       3.565  -0.090  22.874  0.00  0.00    -0.246 OA
ATOM     30  O   UNL     1       2.623   0.042  21.809  0.00  0.00    -0.246 OA
ENDBRANCH  27  28
ENDBRANCH  26  27
ENDBRANCH  24  26
ENDBRANCH  22  23
ENDBRANCH  21  22
TORSDOF 10
ENDMDL
MODEL 7
REMARK VINA RESULT:      -9.4      3.118      4.873
REMARK  Name = 
REMARK  10 active torsions:
REMARK  status: ('A' for Active; 'I' for Inactive)
REMARK    1  A    between atoms: C_2  and  C_4
REMARK    2  A    between atoms: C_6  and  C_7
REMARK    3  A    between atoms: C_7  and  C_8
REMARK    4  A    between atoms: N_10  and  C_11
REMARK    5  A    between atoms: C_11  and  C_12
REMARK    6  A    between atoms: C_21  and  C_22
REMARK    7  A    between atoms: C_22  and  N_23
REMARK    8  A    between atoms: C_24  and  C_26
REMARK    9  A    between atoms: C_26  and  C_27
REMARK   10  A    between atoms: C_27  and  C_28
REMARK                            x       y       z     vdW  Elec       q    Type
REMARK                         _______ _______ _______ _____ _____    ______ ____
ROOT
ATOM      4  C   UNL     1      -1.335   1.293  24.576  0.00  0.00    +0.006 C 
ATOM      5  C   UNL     1      -2.072   1.001  24.806  0.00  0.00    +0.005 C 
ATOM      6  C   UNL     1      -2.208   0.187  24.816  0.00  0.00    +0.027 C 
ATOM     18  C   UNL     1      -1.607  -0.334  24.596  0.00  0.00    -0.048 C 
ATOM     19  C   UNL     1      -1.743  -1.147  24.607  0.00  0.00    +0.026 C 
ATOM     20  C   UNL     1      -0.871  -0.041  24.367  0.00  0.00    -0.033 C 
ATOM     21  C   UNL     1      -0.735   0.772  24.357  0.00  0.00    +0.043 C 
ENDROOT
BRANCH   4   2
ATOM      1  C   UNL     1      -1.342   2.540  23.879  0.00  0.00    +0.000 C 
ATOM      2  C   UNL     1      -1.199   2.107  24.566  0.00  0.00    +0.000 C 
ATOM      3  C   UNL     1      -0.922   2.487  25.243  0.00  0.00    +0.000 C 
ENDBRANCH   4   2
BRANCH   6   7
ATOM      7  C   UNL     1      -2.944  -0.105  25.045  0.00  0.00    +0.091 C 
BRANCH   7   8
ATOM      8  C   UNL     1      -3.632   0.196  24.702  0.00  0.00    +0.242 C 
ATOM      9  O   UNL     1      -3.835  -0.016  23.931  0.00  0.00    -0.273 OA
ATOM     10  N   UNL     1      -4.116   0.710  25.130  0.00  0.00    -0.200 NA
BRANCH  10  11
ATOM     11  C   UNL     1      -4.803   1.011  24.787  0.00  0.00    +0.143 C 
BRANCH  11  12
ATOM     12  C   UNL     1      -5.192   1.650  25.135  0.00  0.00    +0.019 A 
ATOM     13  C   UNL     1      -5.014   2.419  24.899  0.00  0.00    +0.001 A 
ATOM     14  C   UNL     1      -5.404   3.058  25.248  0.00  0.00    +0.020 A 
ATOM     15  C   UNL     1      -5.970   2.926  25.833  0.00  0.00    +0.099 A 
ATOM     16  N   UNL     1      -6.147   2.156  26.069  0.00  0.00    -0.243 NA
ATOM     17  C   UNL     1      -5.759   1.518  25.721  0.00  0.00    +0.096 A 
ENDBRANCH  11  12
ENDBRANCH  10  11
ENDBRANCH   7   8
ENDBRANCH   6   7
BRANCH  21  22
ATOM     22  C   UNL     1       0.002   1.065  24.128  0.00  0.00    +0.119 C 
BRANCH  22  23
ATOM     23  N   UNL     1       0.515   0.593  23.688  0.00  0.00    -0.205 NA
ATOM     24  C   UNL     1       1.288   0.844  23.548  0.00  0.00    +0.242 C 
ATOM     25  O   UNL     1       1.548   1.568  23.849  0.00  0.00    -0.273 OA
BRANCH  24  26
ATOM     26  C   UNL     1       1.803   0.372  23.108  0.00  0.00    +0.099 C 
BRANCH  26  27
ATOM     27  C   UNL     1       2.542   0.662  22.885  0.00  0.00    +0.124 C 
BRANCH  27  28
ATOM     28  C   UNL     1       3.061   0.186  22.457  0.00  0.00    +0.365 C 
ATOM     29  O   UNL     1       2.906   0.017  21.665  0.00  0.00    -0.246 OA
ATOM     30  O   UNL     1       3.735  -0.121  22.820  0.00  0.00    -0.246 OA
ENDBRANCH  27  28
ENDBRANCH  26  27
ENDBRANCH  24  26
ENDBRANCH  22  23
ENDBRANCH  21  22
TORSDOF 10
ENDMDL
MODEL 8
REMARK VINA RESULT:      -9.3      2.444      4.881
REMARK  Name = 
REMARK  10 active torsions:
REMARK  status: ('A' for Active; 'I' for Inactive)
REMARK    1  A    between atoms: C_2  and  C_4
REMARK    2  A    between atoms: C_6  and  C_7
REMARK    3  A    between atoms: C_7  and  C_8
REMARK    4  A    between atoms: N_10  and  C_11
REMARK    5  A    between atoms: C_11  and  C_12
REMARK    6  A    between atoms: C_21  and  C_22
REMARK    7  A    between atoms: C_22  and  N_23
REMARK    8  A    between atoms: C_24  and  C_26
REMARK    9  A    between atoms: C_26  and  C_27
REMARK   10  A    between atoms: C_27  and  C_28
REMARK                            x       y       z     vdW  Elec       q    Type
REMARK                         _______ _______ _______ _____ _____    ______ ____
ROOT
ATOM      4  C   UNL     1      -2.028   3.278  24.802  0.00  0.00    +0.006 C 
ATOM      5  C   UNL     1      -1.403   2.895  24.424  0.00  0.00    +0.005 C 
ATOM      6  C   UNL     1      -1.550   2.412  23.770  0.00  0.00    +0.027 C 
ATOM     18  C   UNL     1      -2.322   2.314  23.496  0.00  0.00    -0.048 C 
ATOM     19  C   UNL     1      -2.469   1.832  22.843  0.00  0.00    +0.026 C 
ATOM     20  C   UNL     1      -2.947   2.697  23.876  0.00  0.00    -0.033 C 
ATOM     21  C   UNL     1      -2.800   3.179  24.528  0.00  0.00    +0.043 C 
ENDROOT
BRANCH   4   2
ATOM      1  C   UNL     1      -1.870   3.434  26.214  0.00  0.00    +0.000 C 
ATOM      2  C   UNL     1      -1.880   3.760  25.456  0.00  0.00    +0.000 C 
ATOM      3  C   UNL     1      -1.744   4.566  25.352  0.00  0.00    +0.000 C 
ENDBRANCH   4   2
BRANCH   6   7
ATOM      7  C   UNL     1      -0.926   2.030  23.392  0.00  0.00    +0.091 C 
BRANCH   7   8
ATOM      8  C   UNL     1      -0.443   1.510  23.815  0.00  0.00    +0.242 C 
ATOM      9  O   UNL     1       0.288   1.765  24.100  0.00  0.00    -0.273 OA
ATOM     10  N   UNL     1      -0.693   0.736  23.952  0.00  0.00    -0.200 NA
BRANCH  10  11
ATOM     11  C   UNL     1      -0.211   0.216  24.376  0.00  0.00    +0.143 C 
BRANCH  11  12
ATOM     12  C   UNL     1      -0.514  -0.505  24.638  0.00  0.00    +0.019 A 
ATOM     13  C   UNL     1      -0.801  -0.577  25.407  0.00  0.00    +0.001 A 
ATOM     14  C   UNL     1      -1.104  -1.299  25.668  0.00  0.00    +0.020 A 
ATOM     15  C   UNL     1      -1.118  -1.948  25.160  0.00  0.00    +0.099 A 
ATOM     16  N   UNL     1      -0.831  -1.876  24.391  0.00  0.00    -0.243 NA
ATOM     17  C   UNL     1      -0.529  -1.155  24.129  0.00  0.00    +0.096 A 
ENDBRANCH  11  12
ENDBRANCH  10  11
ENDBRANCH   7   8
ENDBRANCH   6   7
BRANCH  21  22
ATOM     22  C   UNL     1      -3.424   3.562  24.908  0.00  0.00    +0.119 C 
BRANCH  22  23
ATOM     23  N   UNL     1      -4.141   3.172  25.021  0.00  0.00    -0.205 NA
ATOM     24  C   UNL     1      -4.806   3.593  25.264  0.00  0.00    +0.242 C 
ATOM     25  O   UNL     1      -4.755   4.407  25.394  0.00  0.00    -0.273 OA
BRANCH  24  26
ATOM     26  C   UNL     1      -5.524   3.203  25.378  0.00  0.00    +0.099 C 
BRANCH  26  27
ATOM     27  C   UNL     1      -5.624   2.699  26.024  0.00  0.00    +0.124 C 
BRANCH  27  28
ATOM     28  C   UNL     1      -6.269   2.186  26.052  0.00  0.00    +0.365 C 
ATOM     29  O   UNL     1      -6.572   1.867  25.356  0.00  0.00    -0.246 OA
ATOM     30  O   UNL     1      -6.610   1.992  26.778  0.00  0.00    -0.246 OA
ENDBRANCH  27  28
ENDBRANCH  26  27
ENDBRANCH  24  26
ENDBRANCH  22  23
ENDBRANCH  21  22
TORSDOF 10
ENDMDL
MODEL 9
REMARK VINA RESULT:      -9.3      1.971      3.446
REMARK  Name = 
REMARK  10 active torsions:
REMARK  status: ('A' for Active; 'I' for Inactive)
REMARK    1  A    between atoms: C_2  and  C_4
REMARK    2  A    between atoms: C_6  and  C_7
REMARK    3  A    between atoms: C_7  and  C_8
REMARK    4  A    between atoms: N_10  and  C_11
REMARK    5  A    between atoms: C_11  and  C_12
REMARK    6  A    between atoms: C_21  and  C_22
REMARK    7  A    between atoms: C_22  and  N_23
REMARK    8  A    between atoms: C_24  and  C_26
REMARK    9  A    between atoms: C_26  and  C_27
REMARK   10  A    between atoms: C_27  and  C_28
REMARK                            x       y       z     vdW  Elec       q    Type
REMARK                         _______ _______ _______ _____ _____    ______ ____
ROOT
ATOM      4  C   UNL     1      -2.174   2.190  23.691  0.00  0.00    +0.006 C 
ATOM      5  C   UNL     1      -2.587   2.845  23.975  0.00  0.00    +0.005 C 
ATOM      6  C   UNL     1      -2.361   3.199  24.685  0.00  0.00    +0.027 C 
ATOM     18  C   UNL     1      -1.722   2.898  25.112  0.00  0.00    -0.048 C 
ATOM     19  C   UNL     1      -1.496   3.251  25.821  0.00  0.00    +0.026 C 
ATOM     20  C   UNL     1      -1.310   2.242  24.827  0.00  0.00    -0.033 C 
ATOM     21  C   UNL     1      -1.535   1.888  24.118  0.00  0.00    +0.043 C 
ENDROOT
BRANCH   4   2
ATOM      1  C   UNL     1      -2.954   1.224  22.983  0.00  0.00    +0.000 C 
ATOM      2  C   UNL     1      -2.401   1.836  22.981  0.00  0.00    +0.000 C 
ATOM      3  C   UNL     1      -2.074   2.094  22.269  0.00  0.00    +0.000 C 
ENDBRANCH   4   2
BRANCH   6   7
ATOM      7  C   UNL     1      -2.774   3.855  24.969  0.00  0.00    +0.091 C 
BRANCH   7   8
ATOM      8  C   UNL     1      -3.588   3.913  24.847  0.00  0.00    +0.242 C 
ATOM      9  O   UNL     1      -3.882   4.386  24.239  0.00  0.00    -0.273 OA
ATOM     10  N   UNL     1      -4.108   3.497  25.334  0.00  0.00    -0.200 NA
BRANCH  10  11
ATOM     11  C   UNL     1      -4.923   3.555  25.213  0.00  0.00    +0.143 C 
BRANCH  11  12
ATOM     12  C   UNL     1      -5.425   2.967  25.500  0.00  0.00    +0.019 A 
ATOM     13  C   UNL     1      -5.725   2.394  24.989  0.00  0.00    +0.001 A 
ATOM     14  C   UNL     1      -6.227   1.806  25.277  0.00  0.00    +0.020 A 
ATOM     15  C   UNL     1      -6.429   1.791  26.076  0.00  0.00    +0.099 A 
ATOM     16  N   UNL     1      -6.128   2.364  26.588  0.00  0.00    -0.243 NA
ATOM     17  C   UNL     1      -5.626   2.952  26.301  0.00  0.00    +0.096 A 
ENDBRANCH  11  12
ENDBRANCH  10  11
ENDBRANCH   7   8
ENDBRANCH   6   7
BRANCH  21  22
ATOM     22  C   UNL     1      -1.123   1.232  23.833  0.00  0.00    +0.119 C 
BRANCH  22  23
ATOM     23  N   UNL     1      -0.996   0.581  24.321  0.00  0.00    -0.205 NA
ATOM     24  C   UNL     1      -0.403   0.038  24.139  0.00  0.00    +0.242 C 
ATOM     25  O   UNL     1       0.064   0.147  23.467  0.00  0.00    -0.273 OA
BRANCH  24  26
ATOM     26  C   UNL     1      -0.276  -0.615  24.628  0.00  0.00    +0.099 C 
BRANCH  26  27
ATOM     27  C   UNL     1      -0.590  -1.351  24.425  0.00  0.00    +0.124 C 
BRANCH  27  28
ATOM     28  C   UNL     1      -0.682  -1.934  25.001  0.00  0.00    +0.365 C 
ATOM     29  O   UNL     1      -1.344  -2.424  24.989  0.00  0.00    -0.246 OA
ATOM     30  O   UNL     1      -0.110  -2.025  25.589  0.00  0.00    -0.246 OA
ENDBRANCH  27  28
ENDBRANCH  26  27
ENDBRANCH  24  26
ENDBRANCH  22  23
ENDBRANCH  21  22
TORSDOF 10
ENDMDL
