MODEL 1
REMARK VINA RESULT:      -9.4      0.000      0.000
REMARK  Name = 
REMARK  8 active torsions:
REMARK  status: ('A' for Active; 'I' for Inactive)
REMARK    1  A    between atoms: N_2  and  C_4
REMARK    2  A    between atoms: C_7  and  C_10
REMARK    3  A    between atoms: C_15  and  C_17
REMARK    4  A    between atoms: C_24  and  C_25
REMARK    5  A    between atoms: C_25  and  N_26
REMARK    6  A    between atoms: N_26  and  S_27
REMARK    7  A    between atoms: S_27  and  C_30
REMARK    8  A    between atoms: C_33  and  N_34
REMARK                            x       y       z     vdW  Elec       q    Type
REMARK                         _______ _______ _______ _____ _____    ______ ____
ROOT
ATOM     17  C   UNL     1      -1.836   0.320  24.058  0.00  0.00    +0.056 C 
ATOM     18  C   UNL     1      -1.601   0.781  23.477  0.00  0.00    +0.078 C 
ATOM     19  N   UNL     1      -1.113   0.385  24.012  0.00  0.00    -0.272 NA
ATOM     20  C   UNL     1      -1.738  -0.147  24.665  0.00  0.00    +0.072 C 
ATOM     21  C   UNL     1      -1.817  -0.547  25.176  0.00  0.00    +0.018 C 
ATOM     22  C   UNL     1      -1.351  -0.065  24.580  0.00  0.00    +0.010 C 
ATOM     23  C   UNL     1      -0.477  -0.092  24.661  0.00  0.00    +0.018 C 
ATOM     24  C   UNL     1      -0.206   0.352  24.102  0.00  0.00    +0.077 C 
ENDROOT
BRANCH  17  15
ATOM     10  C   UNL     1      -3.929   0.729  24.523  0.00  0.00    +0.084 A 
ATOM     11  N   UNL     1      -4.275   0.003  24.338  0.00  0.00    -0.231 NA
ATOM     12  C   UNL     1      -3.808  -0.618  24.060  0.00  0.00    +0.139 A 
ATOM     13  C   UNL     1      -4.153  -1.344  23.874  0.00  0.00    +0.074 C 
ATOM     14  N   UNL     1      -2.995  -0.512  23.966  0.00  0.00    -0.235 NA
ATOM     15  C   UNL     1      -2.650   0.214  24.152  0.00  0.00    +0.063 A 
ATOM     16  C   UNL     1      -3.116   0.834  24.430  0.00  0.00    +0.034 A 
BRANCH  10   7
ATOM      4  C   UNL     1      -5.333   2.588  25.360  0.00  0.00    +0.048 A 
ATOM      5  C   UNL     1      -4.789   2.721  24.754  0.00  0.00    +0.015 A 
ATOM      6  C   UNL     1      -4.321   2.102  24.475  0.00  0.00    +0.003 A 
ATOM      7  C   UNL     1      -4.397   1.348  24.802  0.00  0.00    +0.018 A 
ATOM      8  C   UNL     1      -4.941   1.214  25.408  0.00  0.00    +0.003 A 
ATOM      9  C   UNL     1      -5.409   1.834  25.687  0.00  0.00    +0.015 A 
BRANCH   4   2
ATOM      1  C   UNL     1      -6.467   3.046  26.098  0.00  0.00    +0.112 C 
ATOM      2  N   UNL     1      -5.801   3.207  25.639  0.00  0.00    -0.304 N 
ATOM      3  C   UNL     1      -5.604   3.988  25.459  0.00  0.00    +0.112 C 
ENDBRANCH   4   2
ENDBRANCH  10   7
ENDBRANCH  17  15
BRANCH  24  25
ATOM     25  C   UNL     1       0.496   0.635  23.774  0.00  0.00    +0.131 C 
BRANCH  25  26
ATOM     26  N   UNL     1       0.863   0.218  23.164  0.00  0.00    -0.076 NA
BRANCH  26  27
ATOM     27  S   UNL     1       1.685   0.222  23.098  0.00  0.00    +0.077 S 
ATOM     28  O   UNL     1       1.659  -0.522  22.742  0.00  0.00    -0.152 OA
ATOM     29  O   UNL     1       1.711   0.967  23.454  0.00  0.00    -0.152 OA
BRANCH  27  30
ATOM     30  C   UNL     1       2.508   0.226  23.031  0.00  0.00    +0.124 A 
ATOM     31  C   UNL     1       2.936  -0.465  23.173  0.00  0.00    +0.021 A 
ATOM     32  C   UNL     1       3.758  -0.462  23.106  0.00  0.00    +0.018 A 
ATOM     33  C   UNL     1       4.153   0.233  22.898  0.00  0.00    +0.073 A 
ATOM     38  C   UNL     1       3.725   0.923  22.757  0.00  0.00    +0.018 A 
ATOM     39  C   UNL     1       2.902   0.920  22.824  0.00  0.00    +0.021 A 
BRANCH  33  34
ATOM     34  N   UNL     1       4.975   0.235  22.832  0.00  0.00    -0.179 NA
ATOM     35  C   UNL     1       5.442   0.272  23.511  0.00  0.00    +0.246 C 
ATOM     36  C   UNL     1       6.265   0.275  23.445  0.00  0.00    +0.097 C 
ATOM     37  O   UNL     1       5.088   0.306  24.255  0.00  0.00    -0.273 OA
ENDBRANCH  33  34
ENDBRANCH  27  30
ENDBRANCH  26  27
ENDBRANCH  25  26
ENDBRANCH  24  25
TORSDOF 8
ENDMDL
MODEL 2
REMARK VINA RESULT:      -8.2      1.609      2.288
REMARK  Name = 
REMARK  8 active torsions:
REMARK  status: ('A' for Active; 'I' for Inactive)
REMARK    1  A    between atoms: N_2  and  C_4
REMARK    2  A    between atoms: C_7  and  C_10
REMARK    3  A    between atoms: C_15  and  C_17
REMARK    4  A    between atoms: C_24  and  C_25
REMARK    5  A    between atoms: C_25  and  N_26
REMARK    6  A    between atoms: N_26  and  S_27
REMARK    7  A    between atoms: S_27  and  C_30
REMARK    8  A    between atoms: C_33  and  N_34
REMARK                            x       y       z     vdW  Elec       q    Type
REMARK                         _______ _______ _______ _____ _____    ______ ____
ROOT
ATOM     17  C   UNL     1      -1.077   2.374  24.511  0.00  0.00    +0.056 C 
ATOM     18  C   UNL     1      -1.044   2.153  23.766  0.00  0.00    +0.078 C 
ATOM     19  N   UNL     1      -0.535   1.911  24.370  0.00  0.00    -0.272 NA
ATOM     20  C   UNL     1      -0.849   2.389  25.249  0.00  0.00    +0.072 C 
ATOM     21  C   UNL     1      -0.780   2.503  25.888  0.00  0.00    +0.018 C 
ATOM     22  C   UNL     1      -0.574   2.133  25.098  0.00  0.00    +0.010 C 
ATOM     23  C   UNL     1       0.115   1.590  25.095  0.00  0.00    +0.018 C 
ATOM     24  C   UNL     1       0.182   1.347  24.374  0.00  0.00    +0.077 C 
ENDROOT
BRANCH  17  15
ATOM     10  C   UNL     1      -3.047   3.157  25.031  0.00  0.00    +0.084 A 
ATOM     11  N   UNL     1      -2.874   3.955  25.144  0.00  0.00    -0.231 NA
ATOM     12  C   UNL     1      -2.101   4.227  25.046  0.00  0.00    +0.139 A 
ATOM     13  C   UNL     1      -1.927   5.026  25.159  0.00  0.00    +0.074 C 
ATOM     14  N   UNL     1      -1.502   3.701  24.835  0.00  0.00    -0.235 NA
ATOM     15  C   UNL     1      -1.677   2.902  24.722  0.00  0.00    +0.063 A 
ATOM     16  C   UNL     1      -2.449   2.630  24.820  0.00  0.00    +0.034 A 
BRANCH  10   7
ATOM      4  C   UNL     1      -5.367   2.343  25.325  0.00  0.00    +0.048 A 
ATOM      5  C   UNL     1      -5.056   2.900  25.847  0.00  0.00    +0.015 A 
ATOM      6  C   UNL     1      -4.282   3.171  25.750  0.00  0.00    +0.003 A 
ATOM      7  C   UNL     1      -3.820   2.886  25.129  0.00  0.00    +0.018 A 
ATOM      8  C   UNL     1      -4.131   2.328  24.606  0.00  0.00    +0.003 A 
ATOM      9  C   UNL     1      -4.905   2.057  24.704  0.00  0.00    +0.015 A 
BRANCH   4   2
ATOM      1  C   UNL     1      -6.613   1.929  24.762  0.00  0.00    +0.112 C 
ATOM      2  N   UNL     1      -6.140   2.071  25.422  0.00  0.00    -0.304 N 
ATOM      3  C   UNL     1      -6.440   1.942  26.180  0.00  0.00    +0.112 C 
ENDBRANCH   4   2
ENDBRANCH  10   7
ENDBRANCH  17  15
BRANCH  24  25
ATOM     25  C   UNL     1       0.636   0.862  23.886  0.00  0.00    +0.131 C 
BRANCH  25  26
ATOM     26  N   UNL     1       1.113   1.195  23.301  0.00  0.00    -0.076 NA
BRANCH  26  27
ATOM     27  S   UNL     1       1.890   0.936  23.204  0.00  0.00    +0.077 S 
ATOM     28  O   UNL     1       1.613   0.228  22.884  0.00  0.00    -0.152 OA
ATOM     29  O   UNL     1       2.167   1.645  23.524  0.00  0.00    -0.152 OA
BRANCH  27  30
ATOM     30  C   UNL     1       2.667   0.677  23.107  0.00  0.00    +0.124 A 
ATOM     31  C   UNL     1       3.253   1.207  22.870  0.00  0.00    +0.021 A 
ATOM     32  C   UNL     1       4.030   0.948  22.773  0.00  0.00    +0.018 A 
ATOM     33  C   UNL     1       4.222   0.157  22.912  0.00  0.00    +0.073 A 
ATOM     38  C   UNL     1       3.636  -0.373  23.148  0.00  0.00    +0.018 A 
ATOM     39  C   UNL     1       2.859  -0.114  23.245  0.00  0.00    +0.021 A 
BRANCH  33  34
ATOM     34  N   UNL     1       4.999  -0.102  22.814  0.00  0.00    -0.179 NA
ATOM     35  C   UNL     1       5.547   0.007  23.420  0.00  0.00    +0.246 C 
ATOM     36  C   UNL     1       6.325  -0.252  23.323  0.00  0.00    +0.097 C 
ATOM     37  O   UNL     1       5.320   0.373  24.124  0.00  0.00    -0.273 OA
ENDBRANCH  33  34
ENDBRANCH  27  30
ENDBRANCH  26  27
ENDBRANCH  25  26
ENDBRANCH  24  25
TORSDOF 8
ENDMDL
MODEL 3
REMARK VINA RESULT:      -7.8      2.241      7.640
REMARK  Name = 
REMARK  8 active torsions:
REMARK  status: ('A' for Active; 'I' for Inactive)
REMARK    1  A    between atoms: N_2  and  C_4
REMARK    2  A    between atoms: C_7  and  C_10
REMARK    3  A    between atoms: C_15  and  C_17
REMARK    4  A    between atoms: C_24  and  C_25
REMARK    5  A    between atoms: C_25  and  N_26
REMARK    6  A    between atoms: N_26  and  S_27
REMARK    7  A    between atoms: S_27  and  C_30
REMARK    8  A    between atoms: C_33  and  N_34
REMARK                            x       y       z     vdW  Elec       q    Type
REMARK                         _______ _______ _______ _____ _____    ______ ____
ROOT
ATOM     17  C   UNL     1       0.397   0.451  23.468  0.00  0.00    +0.056 C 
ATOM     18  C   UNL     1       0.247   1.214  23.468  0.00  0.00    +0.078 C 
ATOM     19  N   UNL     1      -0.134   0.643  23.927  0.00  0.00    -0.272 NA
ATOM     20  C   UNL     1       0.300  -0.282  23.692  0.00  0.00    +0.072 C 
ATOM     21  C   UNL     1       0.338  -0.929  23.774  0.00  0.00    +0.018 C 
ATOM     22  C   UNL     1       0.018  -0.104  23.921  0.00  0.00    +0.010 C 
ATOM     23  C   UNL     1      -0.628  -0.040  24.511  0.00  0.00    +0.018 C 
ATOM     24  C   UNL     1      -0.806   0.702  24.541  0.00  0.00    +0.077 C 
ENDROOT
BRANCH  17  15
ATOM     10  C   UNL     1       2.377  -0.028  22.686  0.00  0.00    +0.084 A 
ATOM     11  N   UNL     1       2.182  -0.353  21.954  0.00  0.00    -0.231 NA
ATOM     12  C   UNL     1       1.391  -0.411  21.726  0.00  0.00    +0.139 A 
ATOM     13  C   UNL     1       1.195  -0.736  20.993  0.00  0.00    +0.074 C 
ATOM     14  N   UNL     1       0.796  -0.143  22.230  0.00  0.00    -0.235 NA
ATOM     15  C   UNL     1       0.993   0.182  22.963  0.00  0.00    +0.063 A 
ATOM     16  C   UNL     1       1.783   0.240  23.191  0.00  0.00    +0.034 A 
BRANCH  10   7
ATOM      4  C   UNL     1       4.751   0.145  23.367  0.00  0.00    +0.048 A 
ATOM      5  C   UNL     1       4.336  -0.557  23.492  0.00  0.00    +0.015 A 
ATOM      6  C   UNL     1       3.545  -0.615  23.265  0.00  0.00    +0.003 A 
ATOM      7  C   UNL     1       3.169   0.029  22.913  0.00  0.00    +0.018 A 
ATOM      8  C   UNL     1       3.584   0.731  22.788  0.00  0.00    +0.003 A 
ATOM      9  C   UNL     1       4.375   0.790  23.015  0.00  0.00    +0.015 A 
BRANCH   4   2
ATOM      1  C   UNL     1       6.128  -0.168  23.146  0.00  0.00    +0.112 C 
ATOM      2  N   UNL     1       5.542   0.203  23.594  0.00  0.00    -0.304 N 
ATOM      3  C   UNL     1       5.748   0.632  24.268  0.00  0.00    +0.112 C 
ENDBRANCH   4   2
ENDBRANCH  10   7
ENDBRANCH  17  15
BRANCH  24  25
ATOM     25  C   UNL     1      -1.309   1.239  24.911  0.00  0.00    +0.131 C 
BRANCH  25  26
ATOM     26  N   UNL     1      -2.103   1.047  25.029  0.00  0.00    -0.076 NA
BRANCH  26  27
ATOM     27  S   UNL     1      -2.675   1.641  25.037  0.00  0.00    +0.077 S 
ATOM     28  O   UNL     1      -2.205   2.087  25.547  0.00  0.00    -0.152 OA
ATOM     29  O   UNL     1      -3.146   1.195  24.527  0.00  0.00    -0.152 OA
BRANCH  27  30
ATOM     30  C   UNL     1      -3.248   2.235  25.045  0.00  0.00    +0.124 A 
ATOM     31  C   UNL     1      -3.112   2.932  25.465  0.00  0.00    +0.021 A 
ATOM     32  C   UNL     1      -3.685   3.527  25.474  0.00  0.00    +0.018 A 
ATOM     33  C   UNL     1      -4.392   3.424  25.061  0.00  0.00    +0.073 A 
ATOM     38  C   UNL     1      -4.527   2.727  24.641  0.00  0.00    +0.018 A 
ATOM     39  C   UNL     1      -3.955   2.133  24.633  0.00  0.00    +0.021 A 
BRANCH  33  34
ATOM     34  N   UNL     1      -4.963   4.019  25.070  0.00  0.00    -0.179 NA
ATOM     35  C   UNL     1      -5.602   3.968  25.590  0.00  0.00    +0.246 C 
ATOM     36  C   UNL     1      -6.174   4.562  25.599  0.00  0.00    +0.097 C 
ATOM     37  O   UNL     1      -5.670   3.323  26.100  0.00  0.00    -0.273 OA
ENDBRANCH  33  34
ENDBRANCH  27  30
ENDBRANCH  26  27
ENDBRANCH  25  26
ENDBRANCH  24  25
TORSDOF 8
ENDMDL
MODEL 4
REMARK VINA RESULT:      -7.5      2.880      4.810
REMARK  Name = 
REMARK  8 active torsions:
REMARK  status: ('A' for Active; 'I' for Inactive)
REMARK    1  A    between atoms: N_2  and  C_4
REMARK    2  A    between atoms: C_7  and  C_10
REMARK    3  A    between atoms: C_15  and  C_17
REMARK    4  A    between atoms: C_24  and  C_25
REMARK    5  A    between atoms: C_25  and  N_26
REMARK    6  A    between atoms: N_26  and  S_27
REMARK    7  A    between atoms: S_27  and  C_30
REMARK    8  A    between atoms: C_33  and  N_34
REMARK                            x       y       z     vdW  Elec       q    Type
REMARK                         _______ _______ _______ _____ _____    ______ ____
ROOT
ATOM     17  C   UNL     1      -0.959   2.262  24.709  0.00  0.00    +0.056 C 
ATOM     18  C   UNL     1      -1.190   1.835  24.101  0.00  0.00    +0.078 C 
ATOM     19  N   UNL     1      -0.625   1.618  24.662  0.00  0.00    -0.272 NA
ATOM     20  C   UNL     1      -0.546   2.409  25.345  0.00  0.00    +0.072 C 
ATOM     21  C   UNL     1      -0.279   2.674  25.879  0.00  0.00    +0.018 C 
ATOM     22  C   UNL     1      -0.403   2.041  25.256  0.00  0.00    +0.010 C 
ATOM     23  C   UNL     1       0.082   1.315  25.341  0.00  0.00    +0.018 C 
ATOM     24  C   UNL     1      -0.117   0.866  24.757  0.00  0.00    +0.077 C 
ENDROOT
BRANCH  17  15
ATOM     10  C   UNL     1      -2.470   3.801  25.045  0.00  0.00    +0.084 A 
ATOM     11  N   UNL     1      -2.010   4.484  25.000  0.00  0.00    -0.231 NA
ATOM     12  C   UNL     1      -1.199   4.427  24.858  0.00  0.00    +0.139 A 
ATOM     13  C   UNL     1      -0.739   5.110  24.813  0.00  0.00    +0.074 C 
ATOM     14  N   UNL     1      -0.849   3.687  24.762  0.00  0.00    -0.235 NA
ATOM     15  C   UNL     1      -1.310   3.003  24.807  0.00  0.00    +0.063 A 
ATOM     16  C   UNL     1      -2.120   3.060  24.948  0.00  0.00    +0.034 A 
BRANCH  10   7
ATOM      4  C   UNL     1      -4.902   3.975  25.470  0.00  0.00    +0.048 A 
ATOM      5  C   UNL     1      -4.371   3.996  26.100  0.00  0.00    +0.015 A 
ATOM      6  C   UNL     1      -3.560   3.938  25.959  0.00  0.00    +0.003 A 
ATOM      7  C   UNL     1      -3.281   3.859  25.187  0.00  0.00    +0.018 A 
ATOM      8  C   UNL     1      -3.812   3.837  24.556  0.00  0.00    +0.003 A 
ATOM      9  C   UNL     1      -4.623   3.895  24.697  0.00  0.00    +0.015 A 
BRANCH   4   2
ATOM      1  C   UNL     1      -6.153   3.354  25.772  0.00  0.00    +0.112 C 
ATOM      2  N   UNL     1      -5.713   4.033  25.611  0.00  0.00    -0.304 N 
ATOM      3  C   UNL     1      -6.084   4.770  25.591  0.00  0.00    +0.112 C 
ENDBRANCH   4   2
ENDBRANCH  10   7
ENDBRANCH  17  15
BRANCH  24  25
ATOM     25  C   UNL     1       0.037   0.132  24.414  0.00  0.00    +0.131 C 
BRANCH  25  26
ATOM     26  N   UNL     1      -0.022  -0.555  24.867  0.00  0.00    -0.076 NA
BRANCH  26  27
ATOM     27  S   UNL     1      -0.665  -1.062  24.768  0.00  0.00    +0.077 S 
ATOM     28  O   UNL     1      -0.790  -1.061  25.584  0.00  0.00    -0.152 OA
ATOM     29  O   UNL     1      -0.540  -1.063  23.953  0.00  0.00    -0.152 OA
BRANCH  27  30
ATOM     30  C   UNL     1      -1.309  -1.569  24.670  0.00  0.00    +0.124 A 
ATOM     31  C   UNL     1      -1.978  -1.482  25.145  0.00  0.00    +0.021 A 
ATOM     32  C   UNL     1      -2.621  -1.989  25.047  0.00  0.00    +0.018 A 
ATOM     33  C   UNL     1      -2.596  -2.583  24.474  0.00  0.00    +0.073 A 
ATOM     38  C   UNL     1      -1.927  -2.669  23.999  0.00  0.00    +0.018 A 
ATOM     39  C   UNL     1      -1.283  -2.162  24.098  0.00  0.00    +0.021 A 
BRANCH  33  34
ATOM     34  N   UNL     1      -3.240  -3.089  24.377  0.00  0.00    -0.179 NA
ATOM     35  C   UNL     1      -3.922  -2.818  24.000  0.00  0.00    +0.246 C 
ATOM     36  C   UNL     1      -4.567  -3.324  23.902  0.00  0.00    +0.097 C 
ATOM     37  O   UNL     1      -3.961  -2.042  23.721  0.00  0.00    -0.273 OA
ENDBRANCH  33  34
ENDBRANCH  27  30
ENDBRANCH  26  27
ENDBRANCH  25  26
ENDBRANCH  24  25
TORSDOF 8
ENDMDL
MODEL 5
REMARK VINA RESULT:      -6.9      1.283      2.714
REMARK  Name = 
REMARK  8 active torsions:
REMARK  status: ('A' for Active; 'I' for Inactive)
REMARK    1  A    between atoms: N_2  and  C_4
REMARK    2  A    between atoms: C_7  and  C_10
REMARK    3  A    between atoms: C_15  and  C_17
REMARK    4  A    between atoms: C_24  and  C_25
REMARK    5  A    between atoms: C_25  and  N_26
REMARK    6  A    between atoms: N_26  and  S_27
REMARK    7  A    between atoms: S_27  and  C_30
REMARK    8  A    between atoms: C_33  and  N_34
REMARK                            x       y       z     vdW  Elec       q    Type
REMARK                         _______ _______ _______ _____ _____    ______ ____
ROOT
ATOM     17  C   UNL     1      -1.121   1.333  24.203  0.00  0.00    +0.056 C 
ATOM     18  C   UNL     1      -0.890   1.314  23.460  0.00  0.00    +0.078 C 
ATOM     19  N   UNL     1      -0.409   1.449  24.117  0.00  0.00    -0.272 NA
ATOM     20  C   UNL     1      -1.024   1.410  24.965  0.00  0.00    +0.072 C 
ATOM     21  C   UNL     1      -1.102   1.447  25.612  0.00  0.00    +0.018 C 
ATOM     22  C   UNL     1      -0.643   1.466  24.842  0.00  0.00    +0.010 C 
ATOM     23  C   UNL     1       0.219   1.620  24.910  0.00  0.00    +0.018 C 
ATOM     24  C   UNL     1       0.486   1.610  24.195  0.00  0.00    +0.077 C 
ENDROOT
BRANCH  17  15
ATOM     10  C   UNL     1      -3.042   0.321  24.430  0.00  0.00    +0.084 A 
ATOM     11  N   UNL     1      -3.526   0.952  24.652  0.00  0.00    -0.231 NA
ATOM     12  C   UNL     1      -3.208   1.710  24.724  0.00  0.00    +0.139 A 
ATOM     13  C   UNL     1      -3.691   2.341  24.945  0.00  0.00    +0.074 C 
ATOM     14  N   UNL     1      -2.407   1.837  24.574  0.00  0.00    -0.235 NA
ATOM     15  C   UNL     1      -1.924   1.205  24.353  0.00  0.00    +0.063 A 
ATOM     16  C   UNL     1      -2.241   0.448  24.281  0.00  0.00    +0.034 A 
BRANCH  10   7
ATOM      4  C   UNL     1      -3.998  -1.952  24.216  0.00  0.00    +0.048 A 
ATOM      5  C   UNL     1      -4.086  -1.408  23.603  0.00  0.00    +0.015 A 
ATOM      6  C   UNL     1      -3.767  -0.650  23.673  0.00  0.00    +0.003 A 
ATOM      7  C   UNL     1      -3.361  -0.436  24.359  0.00  0.00    +0.018 A 
ATOM      8  C   UNL     1      -3.274  -0.980  24.973  0.00  0.00    +0.003 A 
ATOM      9  C   UNL     1      -3.592  -1.738  24.902  0.00  0.00    +0.015 A 
BRANCH   4   2
ATOM      1  C   UNL     1      -3.972  -3.341  24.549  0.00  0.00    +0.112 C 
ATOM      2  N   UNL     1      -4.317  -2.710  24.145  0.00  0.00    -0.304 N 
ATOM      3  C   UNL     1      -4.980  -2.836  23.671  0.00  0.00    +0.112 C 
ENDBRANCH   4   2
ENDBRANCH  10   7
ENDBRANCH  17  15
BRANCH  24  25
ATOM     25  C   UNL     1       1.177   1.695  23.753  0.00  0.00    +0.131 C 
BRANCH  25  26
ATOM     26  N   UNL     1       1.394   1.112  23.212  0.00  0.00    -0.076 NA
BRANCH  26  27
ATOM     27  S   UNL     1       2.186   0.895  23.134  0.00  0.00    +0.077 S 
ATOM     28  O   UNL     1       1.956   0.183  22.786  0.00  0.00    -0.152 OA
ATOM     29  O   UNL     1       2.416   1.607  23.481  0.00  0.00    -0.152 OA
BRANCH  27  30
ATOM     30  C   UNL     1       2.978   0.677  23.056  0.00  0.00    +0.124 A 
ATOM     31  C   UNL     1       3.538   1.234  22.819  0.00  0.00    +0.021 A 
ATOM     32  C   UNL     1       4.330   1.016  22.741  0.00  0.00    +0.018 A 
ATOM     33  C   UNL     1       4.562   0.241  22.899  0.00  0.00    +0.073 A 
ATOM     38  C   UNL     1       4.002  -0.317  23.136  0.00  0.00    +0.018 A 
ATOM     39  C   UNL     1       3.210  -0.099  23.214  0.00  0.00    +0.021 A 
BRANCH  33  34
ATOM     34  N   UNL     1       5.354   0.024  22.821  0.00  0.00    -0.179 NA
ATOM     35  C   UNL     1       5.822  -0.074  23.493  0.00  0.00    +0.246 C 
ATOM     36  C   UNL     1       6.614  -0.291  23.415  0.00  0.00    +0.097 C 
ATOM     37  O   UNL     1       5.499   0.045  24.243  0.00  0.00    -0.273 OA
ENDBRANCH  33  34
ENDBRANCH  27  30
ENDBRANCH  26  27
ENDBRANCH  25  26
ENDBRANCH  24  25
TORSDOF 8
ENDMDL
MODEL 6
REMARK VINA RESULT:      -6.7     18.042     19.146
REMARK  Name = 
REMARK  8 active torsions:
REMARK  status: ('A' for Active; 'I' for Inactive)
REMARK    1  A    between atoms: N_2  and  C_4
REMARK    2  A    between atoms: C_7  and  C_10
REMARK    3  A    between atoms: C_15  and  C_17
REMARK    4  A    between atoms: C_24  and  C_25
REMARK    5  A    between atoms: C_25  and  N_26
REMARK    6  A    between atoms: N_26  and  S_27
REMARK    7  A    between atoms: S_27  and  C_30
REMARK    8  A    between atoms: C_33  and  N_34
REMARK                            x       y       z     vdW  Elec       q    Type
REMARK                         _______ _______ _______ _____ _____    ______ ____
ROOT
ATOM     17  C   UNL     1      15.977  -7.472  27.225  0.00  0.00    +0.056 C 
ATOM     18  C   UNL     1      15.445  -6.972  26.957  0.00  0.00    +0.078 C 
ATOM     19  N   UNL     1      16.262  -6.917  26.852  0.00  0.00    -0.272 NA
ATOM     20  C   UNL     1      16.692  -7.743  27.333  0.00  0.00    +0.072 C 
ATOM     21  C   UNL     1      17.219  -8.089  27.505  0.00  0.00    +0.018 C 
ATOM     22  C   UNL     1      16.778  -7.411  27.117  0.00  0.00    +0.010 C 
ATOM     23  C   UNL     1      17.272  -6.816  26.702  0.00  0.00    +0.018 C 
ATOM     24  C   UNL     1      16.782  -6.302  26.422  0.00  0.00    +0.077 C 
ENDROOT
BRANCH  17  15
ATOM     10  C   UNL     1      15.213  -8.678  28.876  0.00  0.00    +0.084 A 
ATOM     11  N   UNL     1      15.155  -9.418  28.516  0.00  0.00    -0.231 NA
ATOM     12  C   UNL     1      15.372  -9.509  27.725  0.00  0.00    +0.139 A 
ATOM     13  C   UNL     1      15.315 -10.249  27.364  0.00  0.00    +0.074 C 
ATOM     14  N   UNL     1      15.646  -8.861  27.295  0.00  0.00    -0.235 NA
ATOM     15  C   UNL     1      15.703  -8.121  27.656  0.00  0.00    +0.063 A 
ATOM     16  C   UNL     1      15.487  -8.029  28.446  0.00  0.00    +0.034 A 
BRANCH  10   7
ATOM      4  C   UNL     1      14.563  -8.406  31.249  0.00  0.00    +0.048 A 
ATOM      5  C   UNL     1      14.027  -8.220  30.651  0.00  0.00    +0.015 A 
ATOM      6  C   UNL     1      14.243  -8.311  29.859  0.00  0.00    +0.003 A 
ATOM      7  C   UNL     1      14.996  -8.587  29.667  0.00  0.00    +0.018 A 
ATOM      8  C   UNL     1      15.533  -8.773  30.265  0.00  0.00    +0.003 A 
ATOM      9  C   UNL     1      15.317  -8.683  31.056  0.00  0.00    +0.015 A 
BRANCH   4   2
ATOM      1  C   UNL     1      13.605  -8.570  32.296  0.00  0.00    +0.112 C 
ATOM      2  N   UNL     1      14.347  -8.316  32.040  0.00  0.00    -0.304 N 
ATOM      3  C   UNL     1      14.872  -7.971  32.575  0.00  0.00    +0.112 C 
ENDBRANCH   4   2
ENDBRANCH  10   7
ENDBRANCH  17  15
BRANCH  24  25
ATOM     25  C   UNL     1      16.745  -5.603  25.986  0.00  0.00    +0.131 C 
BRANCH  25  26
ATOM     26  N   UNL     1      17.177  -5.530  25.288  0.00  0.00    -0.076 NA
BRANCH  26  27
ATOM     27  S   UNL     1      17.172  -4.818  24.872  0.00  0.00    +0.077 S 
ATOM     28  O   UNL     1      17.043  -5.230  24.169  0.00  0.00    -0.152 OA
ATOM     29  O   UNL     1      17.301  -4.405  25.574  0.00  0.00    -0.152 OA
BRANCH  27  30
ATOM     30  C   UNL     1      17.167  -4.106  24.454  0.00  0.00    +0.124 A 
ATOM     31  C   UNL     1      17.403  -4.089  23.664  0.00  0.00    +0.021 A 
ATOM     32  C   UNL     1      17.397  -3.377  23.247  0.00  0.00    +0.018 A 
ATOM     33  C   UNL     1      17.156  -2.682  23.620  0.00  0.00    +0.073 A 
ATOM     38  C   UNL     1      16.920  -2.699  24.410  0.00  0.00    +0.018 A 
ATOM     39  C   UNL     1      16.925  -3.411  24.828  0.00  0.00    +0.021 A 
BRANCH  33  34
ATOM     34  N   UNL     1      17.150  -1.970  23.203  0.00  0.00    -0.179 NA
ATOM     35  C   UNL     1      16.457  -1.713  22.838  0.00  0.00    +0.246 C 
ATOM     36  C   UNL     1      16.451  -1.001  22.420  0.00  0.00    +0.097 C 
ATOM     37  O   UNL     1      15.768  -2.165  22.891  0.00  0.00    -0.273 OA
ENDBRANCH  33  34
ENDBRANCH  27  30
ENDBRANCH  26  27
ENDBRANCH  25  26
ENDBRANCH  24  25
TORSDOF 8
ENDMDL
MODEL 7
REMARK VINA RESULT:      -5.7     14.581     17.115
REMARK  Name = 
REMARK  8 active torsions:
REMARK  status: ('A' for Active; 'I' for Inactive)
REMARK    1  A    between atoms: N_2  and  C_4
REMARK    2  A    between atoms: C_7  and  C_10
REMARK    3  A    between atoms: C_15  and  C_17
REMARK    4  A    between atoms: C_24  and  C_25
REMARK    5  A    between atoms: C_25  and  N_26
REMARK    6  A    between atoms: N_26  and  S_27
REMARK    7  A    between atoms: S_27  and  C_30
REMARK    8  A    between atoms: C_33  and  N_34
REMARK                            x       y       z     vdW  Elec       q    Type
REMARK                         _______ _______ _______ _____ _____    ______ ____
ROOT
ATOM     17  C   UNL     1      11.910  -7.824  32.099  0.00  0.00    +0.056 C 
ATOM     18  C   UNL     1      12.111  -7.388  32.712  0.00  0.00    +0.078 C 
ATOM     19  N   UNL     1      12.402  -7.313  31.943  0.00  0.00    -0.272 NA
ATOM     20  C   UNL     1      11.932  -8.047  31.361  0.00  0.00    +0.072 C 
ATOM     21  C   UNL     1      11.841  -8.344  30.786  0.00  0.00    +0.018 C 
ATOM     22  C   UNL     1      12.200  -7.744  31.348  0.00  0.00    +0.010 C 
ATOM     23  C   UNL     1      12.786  -7.191  30.999  0.00  0.00    +0.018 C 
ATOM     24  C   UNL     1      13.011  -6.741  31.574  0.00  0.00    +0.077 C 
ENDROOT
BRANCH  17  15
ATOM     10  C   UNL     1       9.994  -8.824  32.404  0.00  0.00    +0.084 A 
ATOM     11  N   UNL     1      10.237  -9.609  32.481  0.00  0.00    -0.231 NA
ATOM     12  C   UNL     1      11.039  -9.798  32.432  0.00  0.00    +0.139 A 
ATOM     13  C   UNL     1      11.283 -10.583  32.509  0.00  0.00    +0.074 C 
ATOM     14  N   UNL     1      11.596  -9.204  32.304  0.00  0.00    -0.235 NA
ATOM     15  C   UNL     1      11.352  -8.419  32.227  0.00  0.00    +0.063 A 
ATOM     16  C   UNL     1      10.551  -8.230  32.276  0.00  0.00    +0.034 A 
BRANCH  10   7
ATOM      4  C   UNL     1       7.589  -8.257  32.554  0.00  0.00    +0.048 A 
ATOM      5  C   UNL     1       7.821  -9.002  32.286  0.00  0.00    +0.015 A 
ATOM      6  C   UNL     1       8.623  -9.191  32.235  0.00  0.00    +0.003 A 
ATOM      7  C   UNL     1       9.192  -8.636  32.454  0.00  0.00    +0.018 A 
ATOM      8  C   UNL     1       8.960  -7.891  32.722  0.00  0.00    +0.003 A 
ATOM      9  C   UNL     1       8.158  -7.701  32.772  0.00  0.00    +0.015 A 
BRANCH   4   2
ATOM      1  C   UNL     1       6.247  -8.631  32.870  0.00  0.00    +0.112 C 
ATOM      2  N   UNL     1       6.787  -8.068  32.604  0.00  0.00    -0.304 N 
ATOM      3  C   UNL     1       6.527  -7.315  32.387  0.00  0.00    +0.112 C 
ENDBRANCH   4   2
ENDBRANCH  10   7
ENDBRANCH  17  15
BRANCH  24  25
ATOM     25  C   UNL     1      13.509  -6.110  31.754  0.00  0.00    +0.131 C 
BRANCH  25  26
ATOM     26  N   UNL     1      13.605  -5.494  31.214  0.00  0.00    -0.076 NA
BRANCH  26  27
ATOM     27  S   UNL     1      14.228  -4.960  31.302  0.00  0.00    +0.077 S 
ATOM     28  O   UNL     1      14.300  -4.909  30.482  0.00  0.00    -0.152 OA
ATOM     29  O   UNL     1      14.156  -5.012  32.123  0.00  0.00    -0.152 OA
BRANCH  27  30
ATOM     30  C   UNL     1      14.851  -4.426  31.390  0.00  0.00    +0.124 A 
ATOM     31  C   UNL     1      15.587  -4.592  31.056  0.00  0.00    +0.021 A 
ATOM     32  C   UNL     1      16.210  -4.058  31.144  0.00  0.00    +0.018 A 
ATOM     33  C   UNL     1      16.097  -3.358  31.566  0.00  0.00    +0.073 A 
ATOM     38  C   UNL     1      15.361  -3.193  31.900  0.00  0.00    +0.018 A 
ATOM     39  C   UNL     1      14.738  -3.727  31.813  0.00  0.00    +0.021 A 
BRANCH  33  34
ATOM     34  N   UNL     1      16.720  -2.825  31.653  0.00  0.00    -0.179 NA
ATOM     35  C   UNL     1      16.753  -2.151  31.180  0.00  0.00    +0.246 C 
ATOM     36  C   UNL     1      17.377  -1.617  31.266  0.00  0.00    +0.097 C 
ATOM     37  O   UNL     1      16.164  -2.009  30.619  0.00  0.00    -0.273 OA
ENDBRANCH  33  34
ENDBRANCH  27  30
ENDBRANCH  26  27
ENDBRANCH  25  26
ENDBRANCH  24  25
TORSDOF 8
ENDMDL
