MODEL 1
REMARK VINA RESULT:      -9.4      0.000      0.000
REMARK  Name = 
REMARK  7 active torsions:
REMARK  status: ('A' for Active; 'I' for Inactive)
REMARK    1  A    between atoms: O_2  and  C_3
REMARK    2  A    between atoms: C_3  and  C_5
REMARK    3  A    between atoms: C_5  and  C_6
REMARK    4  A    between atoms: C_5  and  N_15
REMARK    5  A    between atoms: C_6  and  C_7
REMARK    6  A    between atoms: C_10  and  O_11
REMARK    7  A    between atoms: C_16  and  C_18
REMARK                            x       y       z     vdW  Elec       q    Type
REMARK                         _______ _______ _______ _____ _____    ______ ____
ROOT
ATOM      5  C   UNL     1      -3.152   1.181  24.544  0.00  0.00    +0.198 C 
ENDROOT
BRANCH   5  15
ATOM     15  N   UNL     1      -2.362   1.114  24.316  0.00  0.00    -0.194 NA
ATOM     16  C   UNL     1      -1.779   1.535  24.722  0.00  0.00    +0.261 C 
ATOM     17  O   UNL     1      -1.985   2.021  25.354  0.00  0.00    -0.271 OA
BRANCH  16  18
ATOM     18  C   UNL     1      -0.989   1.468  24.494  0.00  0.00    +0.171 C 
ATOM     19  C   UNL     1      -0.783   0.990  23.854  0.00  0.00    +0.118 C 
ATOM     20  N   UNL     1       0.007   0.923  23.626  0.00  0.00    -0.214 NA
ATOM     21  C   UNL     1       0.592   1.334  24.037  0.00  0.00    +0.110 C 
ATOM     22  C   UNL     1       0.386   1.812  24.678  0.00  0.00    +0.113 C 
ATOM     23  N   UNL     1      -0.404   1.879  24.906  0.00  0.00    -0.270 N 
ATOM     24  C   UNL     1      -0.610   2.357  25.546  0.00  0.00    +0.227 C 
ATOM     25  C   UNL     1      -1.400   2.424  25.774  0.00  0.00    +0.095 C 
ATOM     26  O   UNL     1      -0.025   2.769  25.958  0.00  0.00    -0.275 OA
ENDBRANCH  16  18
ENDBRANCH   5  15
BRANCH   5   3
ATOM      3  C   UNL     1      -3.632   1.760  24.203  0.00  0.00    +0.337 C 
ATOM      4  O   UNL     1      -3.575   1.920  23.397  0.00  0.00    -0.248 OA
BRANCH   3   2
ATOM      1  C   UNL     1      -4.647   2.757  24.331  0.00  0.00    +0.256 C 
ATOM      2  O   UNL     1      -4.169   2.177  24.670  0.00  0.00    -0.443 OA
ENDBRANCH   3   2
ENDBRANCH   5   3
BRANCH   5   6
ATOM      6  C   UNL     1      -3.461   0.670  25.112  0.00  0.00    +0.059 C 
BRANCH   6   7
ATOM      7  C   UNL     1      -3.602  -0.120  24.923  0.00  0.00    -0.020 A 
ATOM      8  C   UNL     1      -3.352  -0.718  25.434  0.00  0.00    -0.001 A 
ATOM      9  C   UNL     1      -3.493  -1.509  25.245  0.00  0.00    +0.037 A 
ATOM     10  C   UNL     1      -3.884  -1.701  24.544  0.00  0.00    +0.139 A 
ATOM     13  C   UNL     1      -4.134  -1.104  24.034  0.00  0.00    +0.037 A 
ATOM     14  C   UNL     1      -3.993  -0.314  24.223  0.00  0.00    -0.001 A 
BRANCH  10  11
ATOM     11  O   UNL     1      -4.025  -2.492  24.355  0.00  0.00    -0.471 OA
ATOM     12  C   UNL     1      -3.418  -3.046  24.418  0.00  0.00    +0.252 C 
ENDBRANCH  10  11
ENDBRANCH   6   7
ENDBRANCH   5   6
TORSDOF 7
ENDMDL
MODEL 2
REMARK VINA RESULT:      -9.4      1.367      2.639
REMARK  Name = 
REMARK  7 active torsions:
REMARK  status: ('A' for Active; 'I' for Inactive)
REMARK    1  A    between atoms: O_2  and  C_3
REMARK    2  A    between atoms: C_3  and  C_5
REMARK    3  A    between atoms: C_5  and  C_6
REMARK    4  A    between atoms: C_5  and  N_15
REMARK    5  A    between atoms: C_6  and  C_7
REMARK    6  A    between atoms: C_10  and  O_11
REMARK    7  A    between atoms: C_16  and  C_18
REMARK                            x       y       z     vdW  Elec       q    Type
REMARK                         _______ _______ _______ _____ _____    ______ ____
ROOT
ATOM      5  C   UNL     1      -1.588   0.601  24.878  0.00  0.00    +0.198 C 
ENDROOT
BRANCH   5  15
ATOM     15  N   UNL     1      -2.139   1.137  24.577  0.00  0.00    -0.194 NA
ATOM     16  C   UNL     1      -2.200   1.892  24.904  0.00  0.00    +0.261 C 
ATOM     17  O   UNL     1      -1.711   2.112  25.530  0.00  0.00    -0.271 OA
BRANCH  16  18
ATOM     18  C   UNL     1      -2.750   2.428  24.603  0.00  0.00    +0.171 C 
ATOM     19  C   UNL     1      -3.261   2.199  23.997  0.00  0.00    +0.118 C 
ATOM     20  N   UNL     1      -3.811   2.735  23.696  0.00  0.00    -0.214 NA
ATOM     21  C   UNL     1      -3.852   3.500  24.001  0.00  0.00    +0.110 C 
ATOM     22  C   UNL     1      -3.342   3.729  24.608  0.00  0.00    +0.113 C 
ATOM     23  N   UNL     1      -2.791   3.194  24.909  0.00  0.00    -0.270 N 
ATOM     24  C   UNL     1      -2.281   3.423  25.515  0.00  0.00    +0.227 C 
ATOM     25  C   UNL     1      -1.730   2.887  25.816  0.00  0.00    +0.095 C 
ATOM     26  O   UNL     1      -2.321   4.189  25.821  0.00  0.00    -0.275 OA
ENDBRANCH  16  18
ENDBRANCH   5  15
BRANCH   5   3
ATOM      3  C   UNL     1      -0.830   0.566  24.556  0.00  0.00    +0.337 C 
ATOM      4  O   UNL     1      -0.171   0.557  25.051  0.00  0.00    -0.248 OA
BRANCH   3   2
ATOM      1  C   UNL     1       0.027   0.499  23.414  0.00  0.00    +0.256 C 
ATOM      2  O   UNL     1      -0.730   0.539  23.737  0.00  0.00    -0.443 OA
ENDBRANCH   3   2
ENDBRANCH   5   3
BRANCH   5   6
ATOM      6  C   UNL     1      -1.797   0.102  25.500  0.00  0.00    +0.059 C 
BRANCH   6   7
ATOM      7  C   UNL     1      -2.238  -0.580  25.352  0.00  0.00    -0.020 A 
ATOM      8  C   UNL     1      -3.046  -0.593  25.519  0.00  0.00    -0.001 A 
ATOM      9  C   UNL     1      -3.487  -1.274  25.371  0.00  0.00    +0.037 A 
ATOM     10  C   UNL     1      -3.120  -1.942  25.056  0.00  0.00    +0.139 A 
ATOM     13  C   UNL     1      -2.313  -1.929  24.888  0.00  0.00    +0.037 A 
ATOM     14  C   UNL     1      -1.872  -1.248  25.036  0.00  0.00    -0.001 A 
BRANCH  10  11
ATOM     11  O   UNL     1      -3.561  -2.624  24.907  0.00  0.00    -0.471 OA
ATOM     12  C   UNL     1      -3.917  -2.733  24.172  0.00  0.00    +0.252 C 
ENDBRANCH  10  11
ENDBRANCH   6   7
ENDBRANCH   5   6
TORSDOF 7
ENDMDL
MODEL 3
REMARK VINA RESULT:      -9.3      1.880      3.056
REMARK  Name = 
REMARK  7 active torsions:
REMARK  status: ('A' for Active; 'I' for Inactive)
REMARK    1  A    between atoms: O_2  and  C_3
REMARK    2  A    between atoms: C_3  and  C_5
REMARK    3  A    between atoms: C_5  and  C_6
REMARK    4  A    between atoms: C_5  and  N_15
REMARK    5  A    between atoms: C_6  and  C_7
REMARK    6  A    between atoms: C_10  and  O_11
REMARK    7  A    between atoms: C_16  and  C_18
REMARK                            x       y       z     vdW  Elec       q    Type
REMARK                         _______ _______ _______ _____ _____    ______ ____
ROOT
ATOM      5  C   UNL     1      -2.206   1.913  24.588  0.00  0.00    +0.198 C 
ENDROOT
BRANCH   5  15
ATOM     15  N   UNL     1      -1.948   1.190  24.891  0.00  0.00    -0.194 NA
ATOM     16  C   UNL     1      -1.381   0.751  24.482  0.00  0.00    +0.261 C 
ATOM     17  O   UNL     1      -1.073   1.034  23.772  0.00  0.00    -0.271 OA
BRANCH  16  18
ATOM     18  C   UNL     1      -1.122   0.028  24.784  0.00  0.00    +0.171 C 
ATOM     19  C   UNL     1      -1.488  -0.296  25.449  0.00  0.00    +0.118 C 
ATOM     20  N   UNL     1      -1.230  -1.018  25.752  0.00  0.00    -0.214 NA
ATOM     21  C   UNL     1      -0.606  -1.418  25.390  0.00  0.00    +0.110 C 
ATOM     22  C   UNL     1      -0.239  -1.095  24.724  0.00  0.00    +0.113 C 
ATOM     23  N   UNL     1      -0.498  -0.372  24.422  0.00  0.00    -0.270 N 
ATOM     24  C   UNL     1      -0.132  -0.048  23.757  0.00  0.00    +0.227 C 
ATOM     25  C   UNL     1      -0.391   0.675  23.454  0.00  0.00    +0.095 C 
ATOM     26  O   UNL     1       0.492  -0.448  23.394  0.00  0.00    -0.275 OA
ENDBRANCH  16  18
ENDBRANCH   5  15
BRANCH   5   3
ATOM      3  C   UNL     1      -1.860   2.615  24.848  0.00  0.00    +0.337 C 
ATOM      4  O   UNL     1      -1.621   3.185  24.302  0.00  0.00    -0.248 OA
BRANCH   3   2
ATOM      1  C   UNL     1      -1.381   3.437  25.915  0.00  0.00    +0.256 C 
ATOM      2  O   UNL     1      -1.753   2.748  25.655  0.00  0.00    -0.443 OA
ENDBRANCH   3   2
ENDBRANCH   5   3
BRANCH   5   6
ATOM      6  C   UNL     1      -2.809   1.932  24.027  0.00  0.00    +0.059 C 
BRANCH   6   7
ATOM      7  C   UNL     1      -3.597   1.953  24.269  0.00  0.00    -0.020 A 
ATOM      8  C   UNL     1      -4.017   2.664  24.248  0.00  0.00    -0.001 A 
ATOM      9  C   UNL     1      -4.805   2.685  24.490  0.00  0.00    +0.037 A 
ATOM     10  C   UNL     1      -5.174   1.996  24.753  0.00  0.00    +0.139 A 
ATOM     13  C   UNL     1      -4.755   1.286  24.775  0.00  0.00    +0.037 A 
ATOM     14  C   UNL     1      -3.967   1.265  24.533  0.00  0.00    -0.001 A 
BRANCH  10  11
ATOM     11  O   UNL     1      -5.962   2.017  24.996  0.00  0.00    -0.471 OA
ATOM     12  C   UNL     1      -6.149   2.182  25.782  0.00  0.00    +0.252 C 
ENDBRANCH  10  11
ENDBRANCH   6   7
ENDBRANCH   5   6
TORSDOF 7
ENDMDL
MODEL 4
REMARK VINA RESULT:      -9.3      1.692      2.902
REMARK  Name = 
REMARK  7 active torsions:
REMARK  status: ('A' for Active; 'I' for Inactive)
REMARK    1  A    between atoms: O_2  and  C_3
REMARK    2  A    between atoms: C_3  and  C_5
REMARK    3  A    between atoms: C_5  and  C_6
REMARK    4  A    between atoms: C_5  and  N_15
REMARK    5  A    between atoms: C_6  and  C_7
REMARK    6  A    between atoms: C_10  and  O_11
REMARK    7  A    between atoms: C_16  and  C_18
REMARK                            x       y       z     vdW  Elec       q    Type
REMARK                         _______ _______ _______ _____ _____    ______ ____
ROOT
ATOM      5  C   UNL     1      -2.732   1.203  24.388  0.00  0.00    +0.198 C 
ENDROOT
BRANCH   5  15
ATOM     15  N   UNL     1      -3.415   1.624  24.579  0.00  0.00    -0.194 NA
ATOM     16  C   UNL     1      -3.360   2.324  25.012  0.00  0.00    +0.261 C 
ATOM     17  O   UNL     1      -2.622   2.603  25.255  0.00  0.00    -0.271 OA
BRANCH  16  18
ATOM     18  C   UNL     1      -4.043   2.746  25.203  0.00  0.00    +0.171 C 
ATOM     19  C   UNL     1      -4.783   2.454  24.985  0.00  0.00    +0.118 C 
ATOM     20  N   UNL     1      -5.466   2.875  25.176  0.00  0.00    -0.214 NA
ATOM     21  C   UNL     1      -5.410   3.589  25.585  0.00  0.00    +0.110 C 
ATOM     22  C   UNL     1      -4.669   3.882  25.804  0.00  0.00    +0.113 C 
ATOM     23  N   UNL     1      -3.986   3.460  25.613  0.00  0.00    -0.270 N 
ATOM     24  C   UNL     1      -3.246   3.753  25.831  0.00  0.00    +0.227 C 
ATOM     25  C   UNL     1      -2.563   3.331  25.640  0.00  0.00    +0.095 C 
ATOM     26  O   UNL     1      -3.190   4.467  26.241  0.00  0.00    -0.275 OA
ENDBRANCH  16  18
ENDBRANCH   5  15
BRANCH   5   3
ATOM      3  C   UNL     1      -2.368   1.318  23.657  0.00  0.00    +0.337 C 
ATOM      4  O   UNL     1      -1.547   1.375  23.609  0.00  0.00    -0.248 OA
BRANCH   3   2
ATOM      1  C   UNL     1      -2.480   1.613  22.263  0.00  0.00    +0.256 C 
ATOM      2  O   UNL     1      -2.826   1.375  22.973  0.00  0.00    -0.443 OA
ENDBRANCH   3   2
ENDBRANCH   5   3
BRANCH   5   6
ATOM      6  C   UNL     1      -2.413   0.668  24.929  0.00  0.00    +0.059 C 
BRANCH   6   7
ATOM      7  C   UNL     1      -2.676  -0.114  24.938  0.00  0.00    -0.020 A 
ATOM      8  C   UNL     1      -2.168  -0.723  24.705  0.00  0.00    -0.001 A 
ATOM      9  C   UNL     1      -2.430  -1.505  24.714  0.00  0.00    +0.037 A 
ATOM     10  C   UNL     1      -3.200  -1.679  24.955  0.00  0.00    +0.139 A 
ATOM     13  C   UNL     1      -3.707  -1.071  25.187  0.00  0.00    +0.037 A 
ATOM     14  C   UNL     1      -3.445  -0.289  25.178  0.00  0.00    -0.001 A 
BRANCH  10  11
ATOM     11  O   UNL     1      -3.463  -2.461  24.964  0.00  0.00    -0.471 OA
ATOM     12  C   UNL     1      -3.752  -2.807  24.274  0.00  0.00    +0.252 C 
ENDBRANCH  10  11
ENDBRANCH   6   7
ENDBRANCH   5   6
TORSDOF 7
ENDMDL
MODEL 5
REMARK VINA RESULT:      -9.1      1.292      2.971
REMARK  Name = 
REMARK  7 active torsions:
REMARK  status: ('A' for Active; 'I' for Inactive)
REMARK    1  A    between atoms: O_2  and  C_3
REMARK    2  A    between atoms: C_3  and  C_5
REMARK    3  A    between atoms: C_5  and  C_6
REMARK    4  A    between atoms: C_5  and  N_15
REMARK    5  A    between atoms: C_6  and  C_7
REMARK    6  A    between atoms: C_10  and  O_11
REMARK    7  A    between atoms: C_16  and  C_18
REMARK                            x       y       z     vdW  Elec       q    Type
REMARK                         _______ _______ _______ _____ _____    ______ ____
ROOT
ATOM      5  C   UNL     1      -2.784   0.217  24.797  0.00  0.00    +0.198 C 
ENDROOT
BRANCH   5  15
ATOM     15  N   UNL     1      -2.234   0.737  25.127  0.00  0.00    -0.194 NA
ATOM     16  C   UNL     1      -1.501   0.846  24.766  0.00  0.00    +0.261 C 
ATOM     17  O   UNL     1      -1.316   0.436  24.075  0.00  0.00    -0.271 OA
BRANCH  16  18
ATOM     18  C   UNL     1      -0.952   1.365  25.097  0.00  0.00    +0.171 C 
ATOM     19  C   UNL     1      -1.131   1.767  25.795  0.00  0.00    +0.118 C 
ATOM     20  N   UNL     1      -0.582   2.286  26.125  0.00  0.00    -0.214 NA
ATOM     21  C   UNL     1       0.147   2.405  25.759  0.00  0.00    +0.110 C 
ATOM     22  C   UNL     1       0.327   2.003  25.060  0.00  0.00    +0.113 C 
ATOM     23  N   UNL     1      -0.222   1.484  24.729  0.00  0.00    -0.270 N 
ATOM     24  C   UNL     1      -0.042   1.083  24.031  0.00  0.00    +0.227 C 
ATOM     25  C   UNL     1      -0.592   0.563  23.700  0.00  0.00    +0.095 C 
ATOM     26  O   UNL     1       0.687   1.201  23.664  0.00  0.00    -0.275 OA
ENDBRANCH  16  18
ENDBRANCH   5  15
BRANCH   5   3
ATOM      3  C   UNL     1      -2.795  -0.574  25.031  0.00  0.00    +0.337 C 
ATOM      4  O   UNL     1      -2.721  -0.769  25.828  0.00  0.00    -0.248 OA
BRANCH   3   2
ATOM      1  C   UNL     1      -2.915  -1.959  24.701  0.00  0.00    +0.256 C 
ATOM      2  O   UNL     1      -2.881  -1.169  24.467  0.00  0.00    -0.443 OA
ENDBRANCH   3   2
ENDBRANCH   5   3
BRANCH   5   6
ATOM      6  C   UNL     1      -3.320   0.489  24.233  0.00  0.00    +0.059 C 
BRANCH   6   7
ATOM      7  C   UNL     1      -3.939   0.985  24.458  0.00  0.00    -0.020 A 
ATOM      8  C   UNL     1      -3.994   1.747  24.143  0.00  0.00    -0.001 A 
ATOM      9  C   UNL     1      -4.613   2.243  24.369  0.00  0.00    +0.037 A 
ATOM     10  C   UNL     1      -5.178   1.977  24.908  0.00  0.00    +0.139 A 
ATOM     13  C   UNL     1      -5.124   1.217  25.223  0.00  0.00    +0.037 A 
ATOM     14  C   UNL     1      -4.505   0.721  24.997  0.00  0.00    -0.001 A 
BRANCH  10  11
ATOM     11  O   UNL     1      -5.798   2.473  25.134  0.00  0.00    -0.471 OA
ATOM     12  C   UNL     1      -5.655   3.108  25.641  0.00  0.00    +0.252 C 
ENDBRANCH  10  11
ENDBRANCH   6   7
ENDBRANCH   5   6
TORSDOF 7
ENDMDL
MODEL 6
REMARK VINA RESULT:      -9.1      1.843      4.381
REMARK  Name = 
REMARK  7 active torsions:
REMARK  status: ('A' for Active; 'I' for Inactive)
REMARK    1  A    between atoms: O_2  and  C_3
REMARK    2  A    between atoms: C_3  and  C_5
REMARK    3  A    between atoms: C_5  and  C_6
REMARK    4  A    between atoms: C_5  and  N_15
REMARK    5  A    between atoms: C_6  and  C_7
REMARK    6  A    between atoms: C_10  and  O_11
REMARK    7  A    between atoms: C_16  and  C_18
REMARK                            x       y       z     vdW  Elec       q    Type
REMARK                         _______ _______ _______ _____ _____    ______ ____
ROOT
ATOM      5  C   UNL     1      -4.139   1.471  24.810  0.00  0.00    +0.198 C 
ENDROOT
BRANCH   5  15
ATOM     15  N   UNL     1      -3.901   0.769  25.172  0.00  0.00    -0.194 NA
ATOM     16  C   UNL     1      -3.918   0.061  24.749  0.00  0.00    +0.261 C 
ATOM     17  O   UNL     1      -4.171   0.054  23.965  0.00  0.00    -0.271 OA
BRANCH  16  18
ATOM     18  C   UNL     1      -3.681  -0.642  25.111  0.00  0.00    +0.171 C 
ATOM     19  C   UNL     1      -3.347  -0.625  25.865  0.00  0.00    +0.118 C 
ATOM     20  N   UNL     1      -3.109  -1.327  26.228  0.00  0.00    -0.214 NA
ATOM     21  C   UNL     1      -3.206  -2.047  25.836  0.00  0.00    +0.110 C 
ATOM     22  C   UNL     1      -3.540  -2.064  25.082  0.00  0.00    +0.113 C 
ATOM     23  N   UNL     1      -3.777  -1.362  24.719  0.00  0.00    -0.270 N 
ATOM     24  C   UNL     1      -4.111  -1.379  23.965  0.00  0.00    +0.227 C 
ATOM     25  C   UNL     1      -4.348  -0.676  23.603  0.00  0.00    +0.095 C 
ATOM     26  O   UNL     1      -4.208  -2.099  23.573  0.00  0.00    -0.275 OA
ENDBRANCH  16  18
ENDBRANCH   5  15
BRANCH   5   3
ATOM      3  C   UNL     1      -4.899   1.764  24.938  0.00  0.00    +0.337 C 
ATOM      4  O   UNL     1      -5.347   2.041  24.304  0.00  0.00    -0.248 OA
BRANCH   3   2
ATOM      1  C   UNL     1      -5.978   2.055  25.829  0.00  0.00    +0.256 C 
ATOM      2  O   UNL     1      -5.211   1.780  25.702  0.00  0.00    -0.443 OA
ENDBRANCH   3   2
ENDBRANCH   5   3
BRANCH   5   6
ATOM      6  C   UNL     1      -3.616   1.879  24.320  0.00  0.00    +0.059 C 
BRANCH   6   7
ATOM      7  C   UNL     1      -3.140   2.477  24.631  0.00  0.00    -0.020 A 
ATOM      8  C   UNL     1      -3.347   3.268  24.522  0.00  0.00    -0.001 A 
ATOM      9  C   UNL     1      -2.872   3.866  24.833  0.00  0.00    +0.037 A 
ATOM     10  C   UNL     1      -2.189   3.672  25.254  0.00  0.00    +0.139 A 
ATOM     13  C   UNL     1      -1.982   2.882  25.364  0.00  0.00    +0.037 A 
ATOM     14  C   UNL     1      -2.458   2.284  25.053  0.00  0.00    -0.001 A 
BRANCH  10  11
ATOM     11  O   UNL     1      -1.714   4.270  25.566  0.00  0.00    -0.471 OA
ATOM     12  C   UNL     1      -1.199   4.687  25.074  0.00  0.00    +0.252 C 
ENDBRANCH  10  11
ENDBRANCH   6   7
ENDBRANCH   5   6
TORSDOF 7
ENDMDL
MODEL 7
REMARK VINA RESULT:      -9.1      1.872      3.989
REMARK  Name = 
REMARK  7 active torsions:
REMARK  status: ('A' for Active; 'I' for Inactive)
REMARK    1  A    between atoms: O_2  and  C_3
REMARK    2  A    between atoms: C_3  and  C_5
REMARK    3  A    between atoms: C_5  and  C_6
REMARK    4  A    between atoms: C_5  and  N_15
REMARK    5  A    between atoms: C_6  and  C_7
REMARK    6  A    between atoms: C_10  and  O_11
REMARK    7  A    between atoms: C_16  and  C_18
REMARK                            x       y       z     vdW  Elec       q    Type
REMARK                         _______ _______ _______ _____ _____    ______ ____
ROOT
ATOM      5  C   UNL     1      -2.793   1.264  24.108  0.00  0.00    +0.198 C 
ENDROOT
BRANCH   5  15
ATOM     15  N   UNL     1      -3.173   0.533  24.056  0.00  0.00    -0.194 NA
ATOM     16  C   UNL     1      -2.797  -0.146  24.336  0.00  0.00    +0.261 C 
ATOM     17  O   UNL     1      -2.044  -0.096  24.667  0.00  0.00    -0.271 OA
BRANCH  16  18
ATOM     18  C   UNL     1      -3.176  -0.877  24.284  0.00  0.00    +0.171 C 
ATOM     19  C   UNL     1      -3.959  -0.919  24.027  0.00  0.00    +0.118 C 
ATOM     20  N   UNL     1      -4.338  -1.650  23.975  0.00  0.00    -0.214 NA
ATOM     21  C   UNL     1      -3.935  -2.340  24.180  0.00  0.00    +0.110 C 
ATOM     22  C   UNL     1      -3.151  -2.298  24.437  0.00  0.00    +0.113 C 
ATOM     23  N   UNL     1      -2.772  -1.568  24.489  0.00  0.00    -0.270 N 
ATOM     24  C   UNL     1      -1.990  -1.526  24.746  0.00  0.00    +0.227 C 
ATOM     25  C   UNL     1      -1.610  -0.795  24.798  0.00  0.00    +0.095 C 
ATOM     26  O   UNL     1      -1.586  -2.216  24.951  0.00  0.00    -0.275 OA
ENDBRANCH  16  18
ENDBRANCH   5  15
BRANCH   5   3
ATOM      3  C   UNL     1      -2.418   1.581  23.446  0.00  0.00    +0.337 C 
ATOM      4  O   UNL     1      -1.642   1.855  23.503  0.00  0.00    -0.248 OA
BRANCH   3   2
ATOM      1  C   UNL     1      -2.446   1.948  22.065  0.00  0.00    +0.256 C 
ATOM      2  O   UNL     1      -2.818   1.624  22.726  0.00  0.00    -0.443 OA
ENDBRANCH   3   2
ENDBRANCH   5   3
BRANCH   5   6
ATOM      6  C   UNL     1      -2.790   1.677  24.822  0.00  0.00    +0.059 C 
BRANCH   6   7
ATOM      7  C   UNL     1      -3.369   2.246  24.972  0.00  0.00    -0.020 A 
ATOM      8  C   UNL     1      -3.150   3.026  25.131  0.00  0.00    -0.001 A 
ATOM      9  C   UNL     1      -3.729   3.594  25.281  0.00  0.00    +0.037 A 
ATOM     10  C   UNL     1      -4.527   3.383  25.272  0.00  0.00    +0.139 A 
ATOM     13  C   UNL     1      -4.745   2.604  25.112  0.00  0.00    +0.037 A 
ATOM     14  C   UNL     1      -4.167   2.035  24.962  0.00  0.00    -0.001 A 
BRANCH  10  11
ATOM     11  O   UNL     1      -5.105   3.951  25.421  0.00  0.00    -0.471 OA
ATOM     12  C   UNL     1      -5.850   3.721  25.691  0.00  0.00    +0.252 C 
ENDBRANCH  10  11
ENDBRANCH   6   7
ENDBRANCH   5   6
TORSDOF 7
ENDMDL
MODEL 8
REMARK VINA RESULT:      -9.1      1.736      4.095
REMARK  Name = 
REMARK  7 active torsions:
REMARK  status: ('A' for Active; 'I' for Inactive)
REMARK    1  A    between atoms: O_2  and  C_3
REMARK    2  A    between atoms: C_3  and  C_5
REMARK    3  A    between atoms: C_5  and  C_6
REMARK    4  A    between atoms: C_5  and  N_15
REMARK    5  A    between atoms: C_6  and  C_7
REMARK    6  A    between atoms: C_10  and  O_11
REMARK    7  A    between atoms: C_16  and  C_18
REMARK                            x       y       z     vdW  Elec       q    Type
REMARK                         _______ _______ _______ _____ _____    ______ ____
ROOT
ATOM      5  C   UNL     1      -2.666   1.683  24.293  0.00  0.00    +0.198 C 
ENDROOT
BRANCH   5  15
ATOM     15  N   UNL     1      -2.144   1.059  24.431  0.00  0.00    -0.194 NA
ATOM     16  C   UNL     1      -2.425   0.348  24.741  0.00  0.00    +0.261 C 
ATOM     17  O   UNL     1      -3.226   0.260  24.912  0.00  0.00    -0.271 OA
BRANCH  16  18
ATOM     18  C   UNL     1      -1.903  -0.276  24.879  0.00  0.00    +0.171 C 
ATOM     19  C   UNL     1      -1.094  -0.173  24.755  0.00  0.00    +0.118 C 
ATOM     20  N   UNL     1      -0.572  -0.797  24.893  0.00  0.00    -0.214 NA
ATOM     21  C   UNL     1      -0.858  -1.525  25.155  0.00  0.00    +0.110 C 
ATOM     22  C   UNL     1      -1.668  -1.628  25.279  0.00  0.00    +0.113 C 
ATOM     23  N   UNL     1      -2.190  -1.005  25.141  0.00  0.00    -0.270 N 
ATOM     24  C   UNL     1      -2.999  -1.108  25.265  0.00  0.00    +0.227 C 
ATOM     25  C   UNL     1      -3.521  -0.484  25.127  0.00  0.00    +0.095 C 
ATOM     26  O   UNL     1      -3.286  -1.836  25.528  0.00  0.00    -0.275 OA
ENDBRANCH  16  18
ENDBRANCH   5  15
BRANCH   5   3
ATOM      3  C   UNL     1      -2.938   1.831  23.528  0.00  0.00    +0.337 C 
ATOM      4  O   UNL     1      -3.743   1.945  23.391  0.00  0.00    -0.248 OA
BRANCH   3   2
ATOM      1  C   UNL     1      -2.677   1.995  22.133  0.00  0.00    +0.256 C 
ATOM      2  O   UNL     1      -2.404   1.864  22.900  0.00  0.00    -0.443 OA
ENDBRANCH   3   2
ENDBRANCH   5   3
BRANCH   5   6
ATOM      6  C   UNL     1      -2.915   2.158  24.919  0.00  0.00    +0.059 C 
BRANCH   6   7
ATOM      7  C   UNL     1      -2.549   2.884  25.057  0.00  0.00    -0.020 A 
ATOM      8  C   UNL     1      -2.984   3.583  25.001  0.00  0.00    -0.001 A 
ATOM      9  C   UNL     1      -2.618   4.310  25.139  0.00  0.00    +0.037 A 
ATOM     10  C   UNL     1      -1.816   4.336  25.333  0.00  0.00    +0.139 A 
ATOM     13  C   UNL     1      -1.381   3.639  25.389  0.00  0.00    +0.037 A 
ATOM     14  C   UNL     1      -1.748   2.912  25.251  0.00  0.00    -0.001 A 
BRANCH  10  11
ATOM     11  O   UNL     1      -1.450   5.063  25.470  0.00  0.00    -0.471 OA
ATOM     12  C   UNL     1      -0.916   5.367  24.920  0.00  0.00    +0.252 C 
ENDBRANCH  10  11
ENDBRANCH   6   7
ENDBRANCH   5   6
TORSDOF 7
ENDMDL
