MODEL 1
REMARK VINA RESULT:     -13.6      0.000      0.000
REMARK  Name = 
REMARK  5 active torsions:
REMARK  status: ('A' for Active; 'I' for Inactive)
REMARK    1  A    between atoms: N_2  and  C_4
REMARK    2  A    between atoms: C_4  and  C_5
REMARK    3  A    between atoms: N_7  and  C_8
REMARK    4  A    between atoms: N_16  and  C_17
REMARK    5  A    between atoms: C_17  and  C_18
REMARK                            x       y       z     vdW  Elec       q    Type
REMARK                         _______ _______ _______ _____ _____    ______ ____
ROOT
ATOM      8  C   UNL     1      -3.057   2.095  24.068  0.00  0.00    +0.129 A 
ATOM      9  C   UNL     1      -3.362   2.860  24.022  0.00  0.00    +0.023 A 
ATOM     10  C   UNL     1      -4.124   3.018  24.296  0.00  0.00    +0.014 A 
ATOM     11  C   UNL     1      -4.581   2.410  24.615  0.00  0.00    +0.041 A 
ATOM     12  C   UNL     1      -5.409   2.258  24.984  0.00  0.00    +0.054 C 
ATOM     13  C   UNL     1      -6.005   2.588  25.153  0.00  0.00    +0.011 C 
ATOM     14  C   UNL     1      -5.701   1.833  25.197  0.00  0.00    +0.039 C 
ATOM     15  C   UNL     1      -5.514   0.873  25.334  0.00  0.00    +0.074 C 
ATOM     16  N   UNL     1      -4.738   0.836  25.028  0.00  0.00    -0.269 NA
ATOM     28  C   UNL     1      -5.244   1.328  25.123  0.00  0.00    +0.078 C 
ATOM     29  C   UNL     1      -4.834   1.983  24.812  0.00  0.00    +0.110 C 
ATOM     30  N   UNL     1      -4.276   1.645  24.661  0.00  0.00    -0.298 N 
ATOM     31  C   UNL     1      -3.514   1.488  24.387  0.00  0.00    +0.276 A 
ATOM     32  O   UNL     1      -3.209   0.722  24.433  0.00  0.00    -0.266 OA
ENDROOT
BRANCH   8   7
ATOM      5  C   UNL     1      -1.665   2.415  24.033  0.00  0.00    +0.262 C 
ATOM      6  O   UNL     1      -1.798   3.047  24.546  0.00  0.00    -0.271 OA
ATOM      7  N   UNL     1      -2.295   1.939  23.794  0.00  0.00    -0.173 NA
BRANCH   5   4
ATOM      4  C   UNL     1      -0.903   2.259  23.760  0.00  0.00    +0.161 C 
BRANCH   4   2
ATOM      1  C   UNL     1       0.097   1.834  24.689  0.00  0.00    +0.090 C 
ATOM      2  N   UNL     1      -0.250   2.430  24.235  0.00  0.00    -0.263 NA
ATOM      3  C   UNL     1       0.054   3.196  24.258  0.00  0.00    +0.090 C 
ENDBRANCH   4   2
ENDBRANCH   5   4
ENDBRANCH   8   7
BRANCH  16  17
ATOM     17  C   UNL     1      -4.013   0.510  24.806  0.00  0.00    +0.101 C 
BRANCH  17  18
ATOM     18  C   UNL     1      -3.798  -0.239  25.075  0.00  0.00    +0.012 A 
ATOM     19  C   UNL     1      -3.462  -0.414  25.809  0.00  0.00    +0.073 A 
ATOM     20  N   UNL     1      -3.338  -1.228  25.845  0.00  0.00    -0.324 N 
ATOM     21  C   UNL     1      -3.012  -1.641  26.480  0.00  0.00    +0.130 C 
ATOM     22  C   UNL     1      -3.596  -1.557  25.134  0.00  0.00    +0.060 A 
ATOM     23  C   UNL     1      -3.881  -0.946  24.658  0.00  0.00    +0.015 A 
ATOM     24  C   UNL     1      -4.179  -1.114  23.907  0.00  0.00    +0.001 A 
ATOM     25  C   UNL     1      -4.192  -1.891  23.632  0.00  0.00    +0.000 A 
ATOM     26  C   UNL     1      -3.908  -2.502  24.108  0.00  0.00    +0.001 A 
ATOM     27  C   UNL     1      -3.610  -2.335  24.859  0.00  0.00    +0.017 A 
ENDBRANCH  17  18
ENDBRANCH  16  17
TORSDOF 5
ENDMDL
MODEL 2
REMARK VINA RESULT:     -12.9      1.154      3.394
REMARK  Name = 
REMARK  5 active torsions:
REMARK  status: ('A' for Active; 'I' for Inactive)
REMARK    1  A    between atoms: N_2  and  C_4
REMARK    2  A    between atoms: C_4  and  C_5
REMARK    3  A    between atoms: N_7  and  C_8
REMARK    4  A    between atoms: N_16  and  C_17
REMARK    5  A    between atoms: C_17  and  C_18
REMARK                            x       y       z     vdW  Elec       q    Type
REMARK                         _______ _______ _______ _____ _____    ______ ____
ROOT
ATOM      8  C   UNL     1      -1.883  -0.246  25.270  0.00  0.00    +0.129 A 
ATOM      9  C   UNL     1      -1.579  -1.011  25.207  0.00  0.00    +0.023 A 
ATOM     10  C   UNL     1      -2.044  -1.615  24.892  0.00  0.00    +0.014 A 
ATOM     11  C   UNL     1      -2.813  -1.454  24.640  0.00  0.00    +0.041 A 
ATOM     12  C   UNL     1      -3.544  -1.870  24.269  0.00  0.00    +0.054 C 
ATOM     13  C   UNL     1      -3.764  -2.496  24.041  0.00  0.00    +0.011 C 
ATOM     14  C   UNL     1      -4.060  -1.740  24.104  0.00  0.00    +0.039 C 
ATOM     15  C   UNL     1      -4.589  -0.906  24.097  0.00  0.00    +0.074 C 
ATOM     16  N   UNL     1      -4.030  -0.382  24.429  0.00  0.00    -0.269 NA
ATOM     28  C   UNL     1      -4.068  -1.072  24.255  0.00  0.00    +0.078 C 
ATOM     29  C   UNL     1      -3.302  -1.297  24.492  0.00  0.00    +0.110 C 
ATOM     30  N   UNL     1      -3.116  -0.689  24.702  0.00  0.00    -0.298 N 
ATOM     31  C   UNL     1      -2.651  -0.085  25.017  0.00  0.00    +0.276 A 
ATOM     32  O   UNL     1      -2.955   0.680  25.079  0.00  0.00    -0.266 OA
ENDROOT
BRANCH   8   7
ATOM      5  C   UNL     1      -0.705   0.560  25.221  0.00  0.00    +0.262 C 
ATOM      6  O   UNL     1      -0.459   0.160  24.543  0.00  0.00    -0.271 OA
ATOM      7  N   UNL     1      -1.417   0.358  25.584  0.00  0.00    -0.173 NA
BRANCH   5   4
ATOM      4  C   UNL     1      -0.238   1.164  25.535  0.00  0.00    +0.161 C 
BRANCH   4   2
ATOM      1  C   UNL     1       0.469   1.686  24.408  0.00  0.00    +0.090 C 
ATOM      2  N   UNL     1      -0.018   1.804  25.063  0.00  0.00    -0.263 NA
ATOM      3  C   UNL     1      -0.286   2.563  25.246  0.00  0.00    +0.090 C 
ENDBRANCH   4   2
ENDBRANCH   5   4
ENDBRANCH   8   7
BRANCH  16  17
ATOM     17  C   UNL     1      -3.709   0.324  24.713  0.00  0.00    +0.101 C 
BRANCH  17  18
ATOM     18  C   UNL     1      -4.193   0.984  24.814  0.00  0.00    +0.012 A 
ATOM     19  C   UNL     1      -4.806   1.058  25.362  0.00  0.00    +0.073 A 
ATOM     20  N   UNL     1      -5.140   1.806  25.272  0.00  0.00    -0.324 N 
ATOM     21  C   UNL     1      -5.770   2.111  25.709  0.00  0.00    +0.130 C 
ATOM     22  C   UNL     1      -4.735   2.195  24.669  0.00  0.00    +0.060 A 
ATOM     23  C   UNL     1      -4.149   1.688  24.385  0.00  0.00    +0.015 A 
ATOM     24  C   UNL     1      -3.652   1.932  23.774  0.00  0.00    +0.001 A 
ATOM     25  C   UNL     1      -3.740   2.684  23.446  0.00  0.00    +0.000 A 
ATOM     26  C   UNL     1      -4.326   3.192  23.729  0.00  0.00    +0.001 A 
ATOM     27  C   UNL     1      -4.822   2.947  24.340  0.00  0.00    +0.017 A 
ENDBRANCH  17  18
ENDBRANCH  16  17
TORSDOF 5
ENDMDL
MODEL 3
REMARK VINA RESULT:     -12.5      1.252      4.127
REMARK  Name = 
REMARK  5 active torsions:
REMARK  status: ('A' for Active; 'I' for Inactive)
REMARK    1  A    between atoms: N_2  and  C_4
REMARK    2  A    between atoms: C_4  and  C_5
REMARK    3  A    between atoms: N_7  and  C_8
REMARK    4  A    between atoms: N_16  and  C_17
REMARK    5  A    between atoms: C_17  and  C_18
REMARK                            x       y       z     vdW  Elec       q    Type
REMARK                         _______ _______ _______ _____ _____    ______ ____
ROOT
ATOM      8  C   UNL     1      -3.869   0.611  24.437  0.00  0.00    +0.129 A 
ATOM      9  C   UNL     1      -4.479   0.056  24.483  0.00  0.00    +0.023 A 
ATOM     10  C   UNL     1      -4.305  -0.735  24.638  0.00  0.00    +0.014 A 
ATOM     11  C   UNL     1      -3.523  -0.972  24.747  0.00  0.00    +0.041 A 
ATOM     12  C   UNL     1      -3.023  -1.723  24.923  0.00  0.00    +0.054 C 
ATOM     13  C   UNL     1      -3.086  -2.412  25.040  0.00  0.00    +0.011 C 
ATOM     14  C   UNL     1      -2.487  -1.862  24.994  0.00  0.00    +0.039 C 
ATOM     15  C   UNL     1      -1.639  -1.356  24.977  0.00  0.00    +0.074 C 
ATOM     16  N   UNL     1      -1.934  -0.592  24.816  0.00  0.00    -0.269 NA
ATOM     28  C   UNL     1      -2.194  -1.248  24.910  0.00  0.00    +0.078 C 
ATOM     29  C   UNL     1      -3.002  -1.072  24.810  0.00  0.00    +0.110 C 
ATOM     30  N   UNL     1      -2.914  -0.418  24.701  0.00  0.00    -0.298 N 
ATOM     31  C   UNL     1      -3.087   0.374  24.546  0.00  0.00    +0.276 A 
ATOM     32  O   UNL     1      -2.477   0.928  24.500  0.00  0.00    -0.266 OA
ENDROOT
BRANCH   8   7
ATOM      5  C   UNL     1      -4.636   1.785  24.709  0.00  0.00    +0.262 C 
ATOM      6  O   UNL     1      -5.054   1.376  25.291  0.00  0.00    -0.271 OA
ATOM      7  N   UNL     1      -4.043   1.402  24.282  0.00  0.00    -0.173 NA
BRANCH   5   4
ATOM      4  C   UNL     1      -4.811   2.576  24.555  0.00  0.00    +0.161 C 
BRANCH   4   2
ATOM      1  C   UNL     1      -5.639   3.118  25.586  0.00  0.00    +0.090 C 
ATOM      2  N   UNL     1      -4.921   3.104  25.179  0.00  0.00    -0.263 NA
ATOM      3  C   UNL     1      -4.314   3.617  25.398  0.00  0.00    +0.090 C 
ENDBRANCH   4   2
ENDBRANCH   5   4
ENDBRANCH   8   7
BRANCH  16  17
ATOM     17  C   UNL     1      -1.929   0.221  24.672  0.00  0.00    +0.101 C 
BRANCH  17  18
ATOM     18  C   UNL     1      -1.217   0.609  24.525  0.00  0.00    +0.012 A 
ATOM     19  C   UNL     1      -0.739   0.511  23.858  0.00  0.00    +0.073 A 
ATOM     20  N   UNL     1      -0.084   1.005  23.939  0.00  0.00    -0.324 N 
ATOM     21  C   UNL     1       0.535   1.082  23.399  0.00  0.00    +0.130 C 
ATOM     22  C   UNL     1      -0.155   1.408  24.655  0.00  0.00    +0.060 A 
ATOM     23  C   UNL     1      -0.855   1.163  25.018  0.00  0.00    +0.015 A 
ATOM     24  C   UNL     1      -1.072   1.477  25.749  0.00  0.00    +0.001 A 
ATOM     25  C   UNL     1      -0.590   2.035  26.118  0.00  0.00    +0.000 A 
ATOM     26  C   UNL     1       0.110   2.280  25.756  0.00  0.00    +0.001 A 
ATOM     27  C   UNL     1       0.327   1.966  25.025  0.00  0.00    +0.017 A 
ENDBRANCH  17  18
ENDBRANCH  16  17
TORSDOF 5
ENDMDL
MODEL 4
REMARK VINA RESULT:     -12.3      1.170      4.015
REMARK  Name = 
REMARK  5 active torsions:
REMARK  status: ('A' for Active; 'I' for Inactive)
REMARK    1  A    between atoms: N_2  and  C_4
REMARK    2  A    between atoms: C_4  and  C_5
REMARK    3  A    between atoms: N_7  and  C_8
REMARK    4  A    between atoms: N_16  and  C_17
REMARK    5  A    between atoms: C_17  and  C_18
REMARK                            x       y       z     vdW  Elec       q    Type
REMARK                         _______ _______ _______ _____ _____    ______ ____
ROOT
ATOM      8  C   UNL     1      -3.902   0.953  24.549  0.00  0.00    +0.129 A 
ATOM      9  C   UNL     1      -4.724   0.940  24.618  0.00  0.00    +0.023 A 
ATOM     10  C   UNL     1      -5.126   1.609  24.887  0.00  0.00    +0.014 A 
ATOM     11  C   UNL     1      -4.705   2.289  25.088  0.00  0.00    +0.041 A 
ATOM     12  C   UNL     1      -4.837   3.144  25.398  0.00  0.00    +0.054 C 
ATOM     13  C   UNL     1      -5.345   3.585  25.598  0.00  0.00    +0.011 C 
ATOM     14  C   UNL     1      -4.533   3.594  25.528  0.00  0.00    +0.039 C 
ATOM     15  C   UNL     1      -3.567   3.798  25.513  0.00  0.00    +0.074 C 
ATOM     16  N   UNL     1      -3.274   3.067  25.232  0.00  0.00    -0.269 NA
ATOM     28  C   UNL     1      -3.906   3.356  25.389  0.00  0.00    +0.078 C 
ATOM     29  C   UNL     1      -4.386   2.702  25.203  0.00  0.00    +0.110 C 
ATOM     30  N   UNL     1      -3.883   2.302  25.018  0.00  0.00    -0.298 N 
ATOM     31  C   UNL     1      -3.481   1.633  24.749  0.00  0.00    +0.276 A 
ATOM     32  O   UNL     1      -2.659   1.645  24.679  0.00  0.00    -0.266 OA
ENDROOT
BRANCH   8   7
ATOM      5  C   UNL     1      -3.758  -0.468  24.502  0.00  0.00    +0.262 C 
ATOM      6  O   UNL     1      -4.414  -0.550  24.995  0.00  0.00    -0.271 OA
ATOM      7  N   UNL     1      -3.501   0.284  24.279  0.00  0.00    -0.173 NA
BRANCH   5   4
ATOM      4  C   UNL     1      -3.358  -1.137  24.233  0.00  0.00    +0.161 C 
BRANCH   4   2
ATOM      1  C   UNL     1      -3.384  -2.212  25.174  0.00  0.00    +0.090 C 
ATOM      2  N   UNL     1      -3.617  -1.889  24.452  0.00  0.00    -0.263 NA
ATOM      3  C   UNL     1      -4.110  -2.318  23.949  0.00  0.00    +0.090 C 
ENDBRANCH   4   2
ENDBRANCH   5   4
ENDBRANCH   8   7
BRANCH  16  17
ATOM     17  C   UNL     1      -2.726   2.501  24.985  0.00  0.00    +0.101 C 
BRANCH  17  18
ATOM     18  C   UNL     1      -1.945   2.721  24.836  0.00  0.00    +0.012 A 
ATOM     19  C   UNL     1      -1.665   3.079  24.147  0.00  0.00    +0.073 A 
ATOM     20  N   UNL     1      -0.854   3.200  24.235  0.00  0.00    -0.324 N 
ATOM     21  C   UNL     1      -0.352   3.544  23.678  0.00  0.00    +0.130 C 
ATOM     22  C   UNL     1      -0.633   2.917  24.977  0.00  0.00    +0.060 A 
ATOM     23  C   UNL     1      -1.307   2.621  25.349  0.00  0.00    +0.015 A 
ATOM     24  C   UNL     1      -1.253   2.299  26.107  0.00  0.00    +0.001 A 
ATOM     25  C   UNL     1      -0.524   2.273  26.492  0.00  0.00    +0.000 A 
ATOM     26  C   UNL     1       0.151   2.569  26.121  0.00  0.00    +0.001 A 
ATOM     27  C   UNL     1       0.096   2.891  25.364  0.00  0.00    +0.017 A 
ENDBRANCH  17  18
ENDBRANCH  16  17
TORSDOF 5
ENDMDL
MODEL 5
REMARK VINA RESULT:     -11.6      1.829      3.940
REMARK  Name = 
REMARK  5 active torsions:
REMARK  status: ('A' for Active; 'I' for Inactive)
REMARK    1  A    between atoms: N_2  and  C_4
REMARK    2  A    between atoms: C_4  and  C_5
REMARK    3  A    between atoms: N_7  and  C_8
REMARK    4  A    between atoms: N_16  and  C_17
REMARK    5  A    between atoms: C_17  and  C_18
REMARK                            x       y       z     vdW  Elec       q    Type
REMARK                         _______ _______ _______ _____ _____    ______ ____
ROOT
ATOM      8  C   UNL     1      -3.187   2.836  24.473  0.00  0.00    +0.129 A 
ATOM      9  C   UNL     1      -3.360   3.636  24.582  0.00  0.00    +0.023 A 
ATOM     10  C   UNL     1      -2.760   4.163  24.788  0.00  0.00    +0.014 A 
ATOM     11  C   UNL     1      -1.988   3.891  24.887  0.00  0.00    +0.041 A 
ATOM     12  C   UNL     1      -1.146   4.193  25.099  0.00  0.00    +0.054 C 
ATOM     13  C   UNL     1      -0.798   4.778  25.269  0.00  0.00    +0.011 C 
ATOM     14  C   UNL     1      -0.631   3.988  25.161  0.00  0.00    +0.039 C 
ATOM     15  C   UNL     1      -0.236   3.086  25.077  0.00  0.00    +0.074 C 
ATOM     16  N   UNL     1      -0.920   2.653  24.871  0.00  0.00    -0.269 NA
ATOM     28  C   UNL     1      -0.750   3.328  25.022  0.00  0.00    +0.078 C 
ATOM     29  C   UNL     1      -1.507   3.663  24.938  0.00  0.00    +0.110 C 
ATOM     30  N   UNL     1      -1.815   3.091  24.778  0.00  0.00    -0.298 N 
ATOM     31  C   UNL     1      -2.415   2.564  24.572  0.00  0.00    +0.276 A 
ATOM     32  O   UNL     1      -2.242   1.764  24.463  0.00  0.00    -0.266 OA
ENDROOT
BRANCH   8   7
ATOM      5  C   UNL     1      -4.518   2.347  24.649  0.00  0.00    +0.262 C 
ATOM      6  O   UNL     1      -4.647   2.911  25.237  0.00  0.00    -0.271 OA
ATOM      7  N   UNL     1      -3.787   2.310  24.267  0.00  0.00    -0.173 NA
BRANCH   5   4
ATOM      4  C   UNL     1      -5.119   1.821  24.443  0.00  0.00    +0.161 C 
BRANCH   4   2
ATOM      1  C   UNL     1      -6.365   1.904  25.137  0.00  0.00    +0.090 C 
ATOM      2  N   UNL     1      -5.636   1.538  25.020  0.00  0.00    -0.263 NA
ATOM      3  C   UNL     1      -5.423   0.888  25.482  0.00  0.00    +0.090 C 
ENDBRANCH   4   2
ENDBRANCH   5   4
ENDBRANCH   8   7
BRANCH  16  17
ATOM     17  C   UNL     1      -1.387   2.004  24.667  0.00  0.00    +0.101 C 
BRANCH  17  18
ATOM     18  C   UNL     1      -1.033   1.287  24.465  0.00  0.00    +0.012 A 
ATOM     19  C   UNL     1      -0.598   1.138  23.778  0.00  0.00    +0.073 A 
ATOM     20  N   UNL     1      -0.347   0.353  23.801  0.00  0.00    -0.324 N 
ATOM     21  C   UNL     1       0.104  -0.029  23.225  0.00  0.00    +0.130 C 
ATOM     22  C   UNL     1      -0.625   0.017  24.501  0.00  0.00    +0.060 A 
ATOM     23  C   UNL     1      -1.049   0.594  24.912  0.00  0.00    +0.015 A 
ATOM     24  C   UNL     1      -1.394   0.413  25.639  0.00  0.00    +0.001 A 
ATOM     25  C   UNL     1      -1.316  -0.344  25.956  0.00  0.00    +0.000 A 
ATOM     26  C   UNL     1      -0.892  -0.922  25.546  0.00  0.00    +0.001 A 
ATOM     27  C   UNL     1      -0.547  -0.741  24.819  0.00  0.00    +0.017 A 
ENDBRANCH  17  18
ENDBRANCH  16  17
TORSDOF 5
ENDMDL
MODEL 6
REMARK VINA RESULT:     -11.5      1.916      3.935
REMARK  Name = 
REMARK  5 active torsions:
REMARK  status: ('A' for Active; 'I' for Inactive)
REMARK    1  A    between atoms: N_2  and  C_4
REMARK    2  A    between atoms: C_4  and  C_5
REMARK    3  A    between atoms: N_7  and  C_8
REMARK    4  A    between atoms: N_16  and  C_17
REMARK    5  A    between atoms: C_17  and  C_18
REMARK                            x       y       z     vdW  Elec       q    Type
REMARK                         _______ _______ _______ _____ _____    ______ ____
ROOT
ATOM      8  C   UNL     1      -0.886  -0.077  24.396  0.00  0.00    +0.129 A 
ATOM      9  C   UNL     1      -0.785  -0.873  24.588  0.00  0.00    +0.023 A 
ATOM     10  C   UNL     1      -1.412  -1.302  24.910  0.00  0.00    +0.014 A 
ATOM     11  C   UNL     1      -2.139  -0.935  25.040  0.00  0.00    +0.041 A 
ATOM     12  C   UNL     1      -2.981  -1.114  25.361  0.00  0.00    +0.054 C 
ATOM     13  C   UNL     1      -3.368  -1.633  25.631  0.00  0.00    +0.011 C 
ATOM     14  C   UNL     1      -3.464  -0.847  25.441  0.00  0.00    +0.039 C 
ATOM     15  C   UNL     1      -3.772   0.078  25.279  0.00  0.00    +0.074 C 
ATOM     16  N   UNL     1      -3.072   0.405  24.962  0.00  0.00    -0.269 NA
ATOM     28  C   UNL     1      -3.294  -0.224  25.211  0.00  0.00    +0.078 C 
ATOM     29  C   UNL     1      -2.587  -0.651  25.104  0.00  0.00    +0.110 C 
ATOM     30  N   UNL     1      -2.239  -0.139  24.848  0.00  0.00    -0.298 N 
ATOM     31  C   UNL     1      -1.613   0.290  24.526  0.00  0.00    +0.276 A 
ATOM     32  O   UNL     1      -1.713   1.087  24.335  0.00  0.00    -0.266 OA
ENDROOT
BRANCH   8   7
ATOM      5  C   UNL     1       0.300  -0.028  23.600  0.00  0.00    +0.262 C 
ATOM      6  O   UNL     1       0.230  -0.836  23.448  0.00  0.00    -0.271 OA
ATOM      7  N   UNL     1      -0.259   0.352  24.074  0.00  0.00    -0.173 NA
BRANCH   5   4
ATOM      4  C   UNL     1       0.927   0.400  23.278  0.00  0.00    +0.161 C 
BRANCH   4   2
ATOM      1  C   UNL     1       1.221  -0.236  22.032  0.00  0.00    +0.090 C 
ATOM      2  N   UNL     1       1.465   0.028  22.774  0.00  0.00    -0.263 NA
ATOM      3  C   UNL     1       2.247  -0.081  23.014  0.00  0.00    +0.090 C 
ENDBRANCH   4   2
ENDBRANCH   5   4
ENDBRANCH   8   7
BRANCH  16  17
ATOM     17  C   UNL     1      -2.563   0.970  24.640  0.00  0.00    +0.101 C 
BRANCH  17  18
ATOM     18  C   UNL     1      -2.860   1.698  24.392  0.00  0.00    +0.012 A 
ATOM     19  C   UNL     1      -3.281   1.838  23.695  0.00  0.00    +0.073 A 
ATOM     20  N   UNL     1      -3.470   2.641  23.668  0.00  0.00    -0.324 N 
ATOM     21  C   UNL     1      -3.888   3.020  23.067  0.00  0.00    +0.130 C 
ATOM     22  C   UNL     1      -3.167   2.996  24.347  0.00  0.00    +0.060 A 
ATOM     23  C   UNL     1      -2.790   2.414  24.795  0.00  0.00    +0.015 A 
ATOM     24  C   UNL     1      -2.432   2.612  25.511  0.00  0.00    +0.001 A 
ATOM     25  C   UNL     1      -2.451   3.391  25.781  0.00  0.00    +0.000 A 
ATOM     26  C   UNL     1      -2.827   3.974  25.334  0.00  0.00    +0.001 A 
ATOM     27  C   UNL     1      -3.185   3.776  24.617  0.00  0.00    +0.017 A 
ENDBRANCH  17  18
ENDBRANCH  16  17
TORSDOF 5
ENDMDL
MODEL 7
REMARK VINA RESULT:     -11.5      1.577      4.732
REMARK  Name = 
REMARK  5 active torsions:
REMARK  status: ('A' for Active; 'I' for Inactive)
REMARK    1  A    between atoms: N_2  and  C_4
REMARK    2  A    between atoms: C_4  and  C_5
REMARK    3  A    between atoms: N_7  and  C_8
REMARK    4  A    between atoms: N_16  and  C_17
REMARK    5  A    between atoms: C_17  and  C_18
REMARK                            x       y       z     vdW  Elec       q    Type
REMARK                         _______ _______ _______ _____ _____    ______ ____
ROOT
ATOM      8  C   UNL     1      -1.691   0.010  25.005  0.00  0.00    +0.129 A 
ATOM      9  C   UNL     1      -1.020  -0.448  24.862  0.00  0.00    +0.023 A 
ATOM     10  C   UNL     1      -0.320  -0.088  24.613  0.00  0.00    +0.014 A 
ATOM     11  C   UNL     1      -0.292   0.730  24.508  0.00  0.00    +0.041 A 
ATOM     12  C   UNL     1       0.287   1.398  24.257  0.00  0.00    +0.054 C 
ATOM     13  C   UNL     1       0.949   1.503  24.050  0.00  0.00    +0.011 C 
ATOM     14  C   UNL     1       0.284   1.952  24.192  0.00  0.00    +0.039 C 
ATOM     15  C   UNL     1      -0.401   2.654  24.310  0.00  0.00    +0.074 C 
ATOM     16  N   UNL     1      -1.045   2.181  24.556  0.00  0.00    -0.269 NA
ATOM     28  C   UNL     1      -0.364   2.088  24.366  0.00  0.00    +0.078 C 
ATOM     29  C   UNL     1      -0.328   1.261  24.455  0.00  0.00    +0.110 C 
ATOM     30  N   UNL     1      -0.964   1.187  24.651  0.00  0.00    -0.298 N 
ATOM     31  C   UNL     1      -1.663   0.828  24.899  0.00  0.00    +0.276 A 
ATOM     32  O   UNL     1      -2.335   1.285  25.042  0.00  0.00    -0.266 OA
ENDROOT
BRANCH   8   7
ATOM      5  C   UNL     1      -2.620  -1.072  24.927  0.00  0.00    +0.262 C 
ATOM      6  O   UNL     1      -2.151  -1.433  24.352  0.00  0.00    -0.271 OA
ATOM      7  N   UNL     1      -2.390  -0.350  25.254  0.00  0.00    -0.173 NA
BRANCH   5   4
ATOM      4  C   UNL     1      -3.318  -1.434  25.175  0.00  0.00    +0.161 C 
BRANCH   4   2
ATOM      1  C   UNL     1      -4.222  -1.734  24.110  0.00  0.00    +0.090 C 
ATOM      2  N   UNL     1      -3.693  -1.986  24.690  0.00  0.00    -0.263 NA
ATOM      3  C   UNL     1      -3.538  -2.791  24.784  0.00  0.00    +0.090 C 
ENDBRANCH   4   2
ENDBRANCH   5   4
ENDBRANCH   8   7
BRANCH  16  17
ATOM     17  C   UNL     1      -1.808   1.989  24.803  0.00  0.00    +0.101 C 
BRANCH  17  18
ATOM     18  C   UNL     1      -2.336   2.587  25.013  0.00  0.00    +0.012 A 
ATOM     19  C   UNL     1      -2.321   3.024  25.714  0.00  0.00    +0.073 A 
ATOM     20  N   UNL     1      -2.947   3.560  25.694  0.00  0.00    -0.324 N 
ATOM     21  C   UNL     1      -3.137   4.105  26.283  0.00  0.00    +0.130 C 
ATOM     22  C   UNL     1      -3.349   3.455  24.982  0.00  0.00    +0.060 A 
ATOM     23  C   UNL     1      -2.972   2.854  24.561  0.00  0.00    +0.015 A 
ATOM     24  C   UNL     1      -3.256   2.628  23.820  0.00  0.00    +0.001 A 
ATOM     25  C   UNL     1      -3.918   3.002  23.500  0.00  0.00    +0.000 A 
ATOM     26  C   UNL     1      -4.295   3.604  23.921  0.00  0.00    +0.001 A 
ATOM     27  C   UNL     1      -4.011   3.830  24.661  0.00  0.00    +0.017 A 
ENDBRANCH  17  18
ENDBRANCH  16  17
TORSDOF 5
ENDMDL
MODEL 8
REMARK VINA RESULT:     -11.3      1.087      3.152
REMARK  Name = 
REMARK  5 active torsions:
REMARK  status: ('A' for Active; 'I' for Inactive)
REMARK    1  A    between atoms: N_2  and  C_4
REMARK    2  A    between atoms: C_4  and  C_5
REMARK    3  A    between atoms: N_7  and  C_8
REMARK    4  A    between atoms: N_16  and  C_17
REMARK    5  A    between atoms: C_17  and  C_18
REMARK                            x       y       z     vdW  Elec       q    Type
REMARK                         _______ _______ _______ _____ _____    ______ ____
ROOT
ATOM      8  C   UNL     1      -3.012   1.907  24.097  0.00  0.00    +0.129 A 
ATOM      9  C   UNL     1      -2.515   2.525  23.871  0.00  0.00    +0.023 A 
ATOM     10  C   UNL     1      -1.701   2.402  23.815  0.00  0.00    +0.014 A 
ATOM     11  C   UNL     1      -1.384   1.659  23.985  0.00  0.00    +0.041 A 
ATOM     12  C   UNL     1      -0.579   1.218  24.018  0.00  0.00    +0.054 C 
ATOM     13  C   UNL     1       0.108   1.317  23.915  0.00  0.00    +0.011 C 
ATOM     14  C   UNL     1      -0.386   0.708  24.138  0.00  0.00    +0.039 C 
ATOM     15  C   UNL     1      -0.810  -0.139  24.419  0.00  0.00    +0.074 C 
ATOM     16  N   UNL     1      -1.608   0.105  24.440  0.00  0.00    -0.269 NA
ATOM     28  C   UNL     1      -0.974   0.392  24.290  0.00  0.00    +0.078 C 
ATOM     29  C   UNL     1      -1.231   1.162  24.106  0.00  0.00    +0.110 C 
ATOM     30  N   UNL     1      -1.881   1.041  24.211  0.00  0.00    -0.298 N 
ATOM     31  C   UNL     1      -2.695   1.164  24.267  0.00  0.00    +0.276 A 
ATOM     32  O   UNL     1      -3.192   0.546  24.494  0.00  0.00    -0.266 OA
ENDROOT
BRANCH   8   7
ATOM      5  C   UNL     1      -4.114   2.694  24.551  0.00  0.00    +0.262 C 
ATOM      6  O   UNL     1      -3.590   3.231  24.893  0.00  0.00    -0.271 OA
ATOM      7  N   UNL     1      -3.825   2.031  24.153  0.00  0.00    -0.173 NA
BRANCH   5   4
ATOM      4  C   UNL     1      -4.927   2.819  24.607  0.00  0.00    +0.161 C 
BRANCH   4   2
ATOM      1  C   UNL     1      -5.624   2.503  25.814  0.00  0.00    +0.090 C 
ATOM      2  N   UNL     1      -5.260   3.057  25.324  0.00  0.00    -0.263 NA
ATOM      3  C   UNL     1      -5.228   3.850  25.550  0.00  0.00    +0.090 C 
ENDBRANCH   4   2
ENDBRANCH   5   4
ENDBRANCH   8   7
BRANCH  16  17
ATOM     17  C   UNL     1      -2.426   0.055  24.544  0.00  0.00    +0.101 C 
BRANCH  17  18
ATOM     18  C   UNL     1      -2.753  -0.593  24.935  0.00  0.00    +0.012 A 
ATOM     19  C   UNL     1      -2.727  -0.734  25.749  0.00  0.00    +0.073 A 
ATOM     20  N   UNL     1      -3.122  -1.442  25.897  0.00  0.00    -0.324 N 
ATOM     21  C   UNL     1      -3.228  -1.792  26.637  0.00  0.00    +0.130 C 
ATOM     22  C   UNL     1      -3.391  -1.740  25.177  0.00  0.00    +0.060 A 
ATOM     23  C   UNL     1      -3.163  -1.216  24.582  0.00  0.00    +0.015 A 
ATOM     24  C   UNL     1      -3.359  -1.373  23.796  0.00  0.00    +0.001 A 
ATOM     25  C   UNL     1      -3.783  -2.054  23.605  0.00  0.00    +0.000 A 
ATOM     26  C   UNL     1      -4.011  -2.579  24.200  0.00  0.00    +0.001 A 
ATOM     27  C   UNL     1      -3.815  -2.422  24.985  0.00  0.00    +0.017 A 
ENDBRANCH  17  18
ENDBRANCH  16  17
TORSDOF 5
ENDMDL
