MODEL 1
REMARK VINA RESULT:     -12.7      0.000      0.000
REMARK  Name = 
REMARK  4 active torsions:
REMARK  status: ('A' for Active; 'I' for Inactive)
REMARK    1  A    between atoms: C_2  and  C_5
REMARK    2  A    between atoms: C_8  and  O_9
REMARK    3  A    between atoms: O_9  and  C_10
REMARK    4  A    between atoms: N_19  and  C_20
REMARK                            x       y       z     vdW  Elec       q    Type
REMARK                         _______ _______ _______ _____ _____    ______ ____
ROOT
ATOM     10  C   UNL     1      -3.981   0.977  24.265  0.00  0.00    +0.215 C 
ATOM     11  C   UNL     1      -4.726   0.930  24.617  0.00  0.00    +0.187 C 
ATOM     12  O   UNL     1      -5.082   1.460  25.139  0.00  0.00    -0.348 OA
ATOM     13  C   UNL     1      -4.782   2.168  25.438  0.00  0.00    +0.164 C 
ATOM     14  C   UNL     1      -4.051   2.520  25.289  0.00  0.00    +0.127 C 
ATOM     15  N   UNL     1      -3.440   2.252  24.803  0.00  0.00    -0.256 N 
ATOM     16  C   UNL     1      -3.410   1.565  24.348  0.00  0.00    +0.141 C 
ATOM     17  C   UNL     1      -2.771   2.735  24.769  0.00  0.00    +0.328 C 
ATOM     18  O   UNL     1      -2.129   2.516  24.300  0.00  0.00    -0.250 OA
ATOM     19  N   UNL     1      -2.746   3.434  25.204  0.00  0.00    -0.161 NA
ENDROOT
BRANCH  19  20
ATOM     20  C   UNL     1      -2.077   3.917  25.171  0.00  0.00    +0.094 A 
ATOM     21  C   UNL     1      -1.330   3.600  25.319  0.00  0.00    +0.115 A 
ATOM     22  N   UNL     1      -0.662   4.082  25.285  0.00  0.00    -0.241 NA
ATOM     23  C   UNL     1      -0.742   4.883  25.103  0.00  0.00    +0.099 A 
ATOM     24  C   UNL     1      -1.487   5.200  24.954  0.00  0.00    +0.022 A 
ATOM     25  C   UNL     1      -2.156   4.718  24.988  0.00  0.00    +0.020 A 
ENDBRANCH  19  20
BRANCH  10   9
ATOM      9  O   UNL     1      -3.783   0.352  23.764  0.00  0.00    -0.475 OA
BRANCH   9   8
ATOM      5  C   UNL     1      -3.600  -1.947  24.661  0.00  0.00    +0.072 A 
ATOM      6  C   UNL     1      -3.015  -1.390  24.829  0.00  0.00    +0.007 A 
ATOM      7  C   UNL     1      -3.076  -0.625  24.530  0.00  0.00    +0.037 A 
ATOM      8  C   UNL     1      -3.722  -0.414  24.063  0.00  0.00    +0.139 A 
ATOM     26  C   UNL     1      -4.308  -0.971  23.895  0.00  0.00    +0.037 A 
ATOM     27  C   UNL     1      -4.247  -1.736  24.193  0.00  0.00    +0.007 A 
BRANCH   5   2
ATOM      1  F   UNL     1      -3.479  -3.480  25.260  0.00  0.00    -0.166 F 
ATOM      2  C   UNL     1      -3.540  -2.713  24.960  0.00  0.00    +0.419 C 
ATOM      3  F   UNL     1      -3.651  -2.424  25.725  0.00  0.00    -0.166 F 
ATOM      4  F   UNL     1      -3.429  -3.003  24.196  0.00  0.00    -0.166 F 
ENDBRANCH   5   2
ENDBRANCH   9   8
ENDBRANCH  10   9
TORSDOF 4
ENDMDL
MODEL 2
REMARK VINA RESULT:     -12.6      1.754      2.513
REMARK  Name = 
REMARK  4 active torsions:
REMARK  status: ('A' for Active; 'I' for Inactive)
REMARK    1  A    between atoms: C_2  and  C_5
REMARK    2  A    between atoms: C_8  and  O_9
REMARK    3  A    between atoms: O_9  and  C_10
REMARK    4  A    between atoms: N_19  and  C_20
REMARK                            x       y       z     vdW  Elec       q    Type
REMARK                         _______ _______ _______ _____ _____    ______ ____
ROOT
ATOM     10  C   UNL     1      -1.136  -0.332  24.969  0.00  0.00    +0.215 C 
ATOM     11  C   UNL     1      -0.577  -0.680  24.471  0.00  0.00    +0.187 C 
ATOM     12  O   UNL     1      -0.058  -0.314  23.945  0.00  0.00    -0.348 OA
ATOM     13  C   UNL     1       0.031   0.491  23.786  0.00  0.00    +0.164 C 
ATOM     14  C   UNL     1      -0.378   1.127  24.114  0.00  0.00    +0.127 C 
ATOM     15  N   UNL     1      -0.977   1.117  24.682  0.00  0.00    -0.256 N 
ATOM     16  C   UNL     1      -1.313   0.468  25.062  0.00  0.00    +0.141 C 
ATOM     17  C   UNL     1      -1.277   1.855  24.898  0.00  0.00    +0.328 C 
ATOM     18  O   UNL     1      -1.877   1.906  25.461  0.00  0.00    -0.250 OA
ATOM     19  N   UNL     1      -0.978   2.540  24.550  0.00  0.00    -0.161 NA
ENDROOT
BRANCH  19  20
ATOM     20  C   UNL     1      -1.279   3.278  24.766  0.00  0.00    +0.094 A 
ATOM     21  C   UNL     1      -2.075   3.454  24.635  0.00  0.00    +0.115 A 
ATOM     22  N   UNL     1      -2.375   4.191  24.851  0.00  0.00    -0.241 NA
ATOM     23  C   UNL     1      -1.880   4.752  25.197  0.00  0.00    +0.099 A 
ATOM     24  C   UNL     1      -1.085   4.577  25.328  0.00  0.00    +0.022 A 
ATOM     25  C   UNL     1      -0.784   3.839  25.112  0.00  0.00    +0.020 A 
ENDBRANCH  19  20
BRANCH  10   9
ATOM      9  O   UNL     1      -1.575  -0.853  25.434  0.00  0.00    -0.475 OA
BRANCH   9   8
ATOM      5  C   UNL     1      -3.434  -2.143  24.431  0.00  0.00    +0.072 A 
ATOM      6  C   UNL     1      -2.660  -2.425  24.379  0.00  0.00    +0.007 A 
ATOM      7  C   UNL     1      -2.041  -1.995  24.713  0.00  0.00    +0.037 A 
ATOM      8  C   UNL     1      -2.194  -1.283  25.100  0.00  0.00    +0.139 A 
ATOM     26  C   UNL     1      -2.968  -1.000  25.152  0.00  0.00    +0.037 A 
ATOM     27  C   UNL     1      -3.587  -1.430  24.818  0.00  0.00    +0.007 A 
BRANCH   5   2
ATOM      1  F   UNL     1      -4.673  -3.003  23.763  0.00  0.00    -0.166 F 
ATOM      2  C   UNL     1      -4.054  -2.573  24.097  0.00  0.00    +0.419 C 
ATOM      3  F   UNL     1      -4.265  -1.916  23.644  0.00  0.00    -0.166 F 
ATOM      4  F   UNL     1      -3.843  -3.229  24.550  0.00  0.00    -0.166 F 
ENDBRANCH   5   2
ENDBRANCH   9   8
ENDBRANCH  10   9
TORSDOF 4
ENDMDL
MODEL 3
REMARK VINA RESULT:     -12.4      2.838      5.276
REMARK  Name = 
REMARK  4 active torsions:
REMARK  status: ('A' for Active; 'I' for Inactive)
REMARK    1  A    between atoms: C_2  and  C_5
REMARK    2  A    between atoms: C_8  and  O_9
REMARK    3  A    between atoms: O_9  and  C_10
REMARK    4  A    between atoms: N_19  and  C_20
REMARK                            x       y       z     vdW  Elec       q    Type
REMARK                         _______ _______ _______ _____ _____    ______ ____
ROOT
ATOM     10  C   UNL     1      -4.108   2.350  24.321  0.00  0.00    +0.215 C 
ATOM     11  C   UNL     1      -4.695   2.731  24.758  0.00  0.00    +0.187 C 
ATOM     12  O   UNL     1      -5.256   2.399  25.264  0.00  0.00    -0.348 OA
ATOM     13  C   UNL     1      -5.369   1.605  25.458  0.00  0.00    +0.164 C 
ATOM     14  C   UNL     1      -4.948   0.947  25.193  0.00  0.00    +0.127 C 
ATOM     15  N   UNL     1      -4.311   0.920  24.669  0.00  0.00    -0.256 N 
ATOM     16  C   UNL     1      -3.938   1.544  24.282  0.00  0.00    +0.141 C 
ATOM     17  C   UNL     1      -4.008   0.168  24.514  0.00  0.00    +0.328 C 
ATOM     18  O   UNL     1      -3.370   0.080  23.998  0.00  0.00    -0.250 OA
ATOM     19  N   UNL     1      -4.342  -0.494  24.874  0.00  0.00    -0.161 NA
ENDROOT
BRANCH  19  20
ATOM     20  C   UNL     1      -4.039  -1.246  24.718  0.00  0.00    +0.094 A 
ATOM     21  C   UNL     1      -3.491  -1.585  25.233  0.00  0.00    +0.115 A 
ATOM     22  N   UNL     1      -3.188  -2.336  25.077  0.00  0.00    -0.241 NA
ATOM     23  C   UNL     1      -3.433  -2.748  24.406  0.00  0.00    +0.099 A 
ATOM     24  C   UNL     1      -3.981  -2.410  23.891  0.00  0.00    +0.022 A 
ATOM     25  C   UNL     1      -4.284  -1.658  24.047  0.00  0.00    +0.020 A 
ENDBRANCH  19  20
BRANCH  10   9
ATOM      9  O   UNL     1      -3.628   2.840  23.863  0.00  0.00    -0.475 OA
BRANCH   9   8
ATOM      5  C   UNL     1      -1.722   4.030  24.900  0.00  0.00    +0.072 A 
ATOM      6  C   UNL     1      -2.487   4.331  24.975  0.00  0.00    +0.007 A 
ATOM      7  C   UNL     1      -3.121   3.935  24.630  0.00  0.00    +0.037 A 
ATOM      8  C   UNL     1      -2.993   3.237  24.209  0.00  0.00    +0.139 A 
ATOM     26  C   UNL     1      -2.228   2.936  24.134  0.00  0.00    +0.037 A 
ATOM     27  C   UNL     1      -1.593   3.332  24.479  0.00  0.00    +0.007 A 
BRANCH   5   2
ATOM      1  F   UNL     1      -0.451   4.823  25.592  0.00  0.00    -0.166 F 
ATOM      2  C   UNL     1      -1.087   4.427  25.246  0.00  0.00    +0.419 C 
ATOM      3  F   UNL     1      -0.849   3.726  25.612  0.00  0.00    -0.166 F 
ATOM      4  F   UNL     1      -1.325   5.127  24.881  0.00  0.00    -0.166 F 
ENDBRANCH   5   2
ENDBRANCH   9   8
ENDBRANCH  10   9
TORSDOF 4
ENDMDL
MODEL 4
REMARK VINA RESULT:     -12.3      3.350      5.897
REMARK  Name = 
REMARK  4 active torsions:
REMARK  status: ('A' for Active; 'I' for Inactive)
REMARK    1  A    between atoms: C_2  and  C_5
REMARK    2  A    between atoms: C_8  and  O_9
REMARK    3  A    between atoms: O_9  and  C_10
REMARK    4  A    between atoms: N_19  and  C_20
REMARK                            x       y       z     vdW  Elec       q    Type
REMARK                         _______ _______ _______ _____ _____    ______ ____
ROOT
ATOM     10  C   UNL     1      -0.701   1.384  25.293  0.00  0.00    +0.215 C 
ATOM     11  C   UNL     1      -0.032   1.498  24.824  0.00  0.00    +0.187 C 
ATOM     12  O   UNL     1       0.232   1.047  24.186  0.00  0.00    -0.348 OA
ATOM     13  C   UNL     1      -0.109   0.370  23.858  0.00  0.00    +0.164 C 
ATOM     14  C   UNL     1      -0.797  -0.021  24.089  0.00  0.00    +0.127 C 
ATOM     15  N   UNL     1      -1.315   0.166  24.704  0.00  0.00    -0.256 N 
ATOM     16  C   UNL     1      -1.272   0.791  25.239  0.00  0.00    +0.141 C 
ATOM     17  C   UNL     1      -1.961  -0.340  24.794  0.00  0.00    +0.328 C 
ATOM     18  O   UNL     1      -2.511  -0.201  25.392  0.00  0.00    -0.250 OA
ATOM     19  N   UNL     1      -2.055  -0.983  24.287  0.00  0.00    -0.161 NA
ENDROOT
BRANCH  19  20
ATOM     20  C   UNL     1      -2.701  -1.489  24.377  0.00  0.00    +0.094 A 
ATOM     21  C   UNL     1      -2.629  -2.174  24.831  0.00  0.00    +0.115 A 
ATOM     22  N   UNL     1      -3.275  -2.679  24.921  0.00  0.00    -0.241 NA
ATOM     23  C   UNL     1      -3.993  -2.499  24.557  0.00  0.00    +0.099 A 
ATOM     24  C   UNL     1      -4.065  -1.814  24.103  0.00  0.00    +0.022 A 
ATOM     25  C   UNL     1      -3.419  -1.309  24.013  0.00  0.00    +0.020 A 
ENDBRANCH  19  20
BRANCH  10   9
ATOM      9  O   UNL     1      -0.814   1.937  25.895  0.00  0.00    -0.475 OA
BRANCH   9   8
ATOM      5  C   UNL     1      -1.275   4.303  25.335  0.00  0.00    +0.072 A 
ATOM      6  C   UNL     1      -0.497   4.031  25.371  0.00  0.00    +0.007 A 
ATOM      7  C   UNL     1      -0.344   3.243  25.558  0.00  0.00    +0.037 A 
ATOM      8  C   UNL     1      -0.968   2.725  25.708  0.00  0.00    +0.139 A 
ATOM     26  C   UNL     1      -1.747   2.997  25.672  0.00  0.00    +0.037 A 
ATOM     27  C   UNL     1      -1.900   3.785  25.485  0.00  0.00    +0.007 A 
BRANCH   5   2
ATOM      1  F   UNL     1      -1.583   5.880  24.961  0.00  0.00    -0.166 F 
ATOM      2  C   UNL     1      -1.429   5.092  25.148  0.00  0.00    +0.419 C 
ATOM      3  F   UNL     1      -0.795   5.090  24.621  0.00  0.00    -0.166 F 
ATOM      4  F   UNL     1      -2.063   5.093  25.676  0.00  0.00    -0.166 F 
ENDBRANCH   5   2
ENDBRANCH   9   8
ENDBRANCH  10   9
TORSDOF 4
ENDMDL
MODEL 5
REMARK VINA RESULT:     -11.3      2.825      4.209
REMARK  Name = 
REMARK  4 active torsions:
REMARK  status: ('A' for Active; 'I' for Inactive)
REMARK    1  A    between atoms: C_2  and  C_5
REMARK    2  A    between atoms: C_8  and  O_9
REMARK    3  A    between atoms: O_9  and  C_10
REMARK    4  A    between atoms: N_19  and  C_20
REMARK                            x       y       z     vdW  Elec       q    Type
REMARK                         _______ _______ _______ _____ _____    ______ ____
ROOT
ATOM     10  C   UNL     1      -2.805   3.336  24.697  0.00  0.00    +0.215 C 
ATOM     11  C   UNL     1      -2.603   3.924  25.240  0.00  0.00    +0.187 C 
ATOM     12  O   UNL     1      -1.919   3.991  25.695  0.00  0.00    -0.348 OA
ATOM     13  C   UNL     1      -1.266   3.487  25.720  0.00  0.00    +0.164 C 
ATOM     14  C   UNL     1      -1.138   2.791  25.295  0.00  0.00    +0.127 C 
ATOM     15  N   UNL     1      -1.629   2.428  24.741  0.00  0.00    -0.256 N 
ATOM     16  C   UNL     1      -2.371   2.671  24.475  0.00  0.00    +0.141 C 
ATOM     17  C   UNL     1      -1.340   1.729  24.410  0.00  0.00    +0.328 C 
ATOM     18  O   UNL     1      -1.789   1.323  23.850  0.00  0.00    -0.250 OA
ATOM     19  N   UNL     1      -0.604   1.439  24.638  0.00  0.00    -0.161 NA
ENDROOT
BRANCH  19  20
ATOM     20  C   UNL     1      -0.314   0.740  24.307  0.00  0.00    +0.094 A 
ATOM     21  C   UNL     1       0.189   0.770  23.654  0.00  0.00    +0.115 A 
ATOM     22  N   UNL     1       0.477   0.072  23.323  0.00  0.00    -0.241 NA
ATOM     23  C   UNL     1       0.263  -0.656  23.645  0.00  0.00    +0.099 A 
ATOM     24  C   UNL     1      -0.240  -0.687  24.298  0.00  0.00    +0.022 A 
ATOM     25  C   UNL     1      -0.529   0.012  24.629  0.00  0.00    +0.020 A 
ENDBRANCH  19  20
BRANCH  10   9
ATOM      9  O   UNL     1      -3.537   3.426  24.327  0.00  0.00    -0.475 OA
BRANCH   9   8
ATOM      5  C   UNL     1      -5.562   2.409  25.322  0.00  0.00    +0.072 A 
ATOM      6  C   UNL     1      -5.284   3.133  25.602  0.00  0.00    +0.007 A 
ATOM      7  C   UNL     1      -4.609   3.472  25.270  0.00  0.00    +0.037 A 
ATOM      8  C   UNL     1      -4.212   3.087  24.659  0.00  0.00    +0.139 A 
ATOM     26  C   UNL     1      -4.490   2.362  24.378  0.00  0.00    +0.037 A 
ATOM     27  C   UNL     1      -5.164   2.023  24.710  0.00  0.00    +0.007 A 
BRANCH   5   2
ATOM      1  F   UNL     1      -6.912   1.731  25.985  0.00  0.00    -0.166 F 
ATOM      2  C   UNL     1      -6.237   2.070  25.653  0.00  0.00    +0.419 C 
ATOM      3  F   UNL     1      -6.543   1.941  24.898  0.00  0.00    -0.166 F 
ATOM      4  F   UNL     1      -5.931   2.199  26.409  0.00  0.00    -0.166 F 
ENDBRANCH   5   2
ENDBRANCH   9   8
ENDBRANCH  10   9
TORSDOF 4
ENDMDL
MODEL 6
REMARK VINA RESULT:     -11.3      2.769      5.204
REMARK  Name = 
REMARK  4 active torsions:
REMARK  status: ('A' for Active; 'I' for Inactive)
REMARK    1  A    between atoms: C_2  and  C_5
REMARK    2  A    between atoms: C_8  and  O_9
REMARK    3  A    between atoms: O_9  and  C_10
REMARK    4  A    between atoms: N_19  and  C_20
REMARK                            x       y       z     vdW  Elec       q    Type
REMARK                         _______ _______ _______ _____ _____    ______ ____
ROOT
ATOM     10  C   UNL     1      -2.031   2.019  24.651  0.00  0.00    +0.215 C 
ATOM     11  C   UNL     1      -1.403   2.333  25.084  0.00  0.00    +0.187 C 
ATOM     12  O   UNL     1      -0.857   1.937  25.559  0.00  0.00    -0.348 OA
ATOM     13  C   UNL     1      -0.804   1.129  25.719  0.00  0.00    +0.164 C 
ATOM     14  C   UNL     1      -1.285   0.519  25.442  0.00  0.00    +0.127 C 
ATOM     15  N   UNL     1      -1.936   0.564  24.938  0.00  0.00    -0.256 N 
ATOM     16  C   UNL     1      -2.268   1.232  24.587  0.00  0.00    +0.141 C 
ATOM     17  C   UNL     1      -2.305  -0.154  24.764  0.00  0.00    +0.328 C 
ATOM     18  O   UNL     1      -2.961  -0.169  24.265  0.00  0.00    -0.250 OA
ATOM     19  N   UNL     1      -2.016  -0.855  25.087  0.00  0.00    -0.161 NA
ENDROOT
BRANCH  19  20
ATOM     20  C   UNL     1      -2.384  -1.573  24.913  0.00  0.00    +0.094 A 
ATOM     21  C   UNL     1      -2.036  -2.096  24.379  0.00  0.00    +0.115 A 
ATOM     22  N   UNL     1      -2.404  -2.813  24.204  0.00  0.00    -0.241 NA
ATOM     23  C   UNL     1      -3.120  -3.007  24.564  0.00  0.00    +0.099 A 
ATOM     24  C   UNL     1      -3.469  -2.484  25.098  0.00  0.00    +0.022 A 
ATOM     25  C   UNL     1      -3.100  -1.766  25.273  0.00  0.00    +0.020 A 
ENDBRANCH  19  20
BRANCH  10   9
ATOM      9  O   UNL     1      -2.481   2.565  24.227  0.00  0.00    -0.475 OA
BRANCH   9   8
ATOM      5  C   UNL     1      -4.590   3.441  25.182  0.00  0.00    +0.072 A 
ATOM      6  C   UNL     1      -4.610   2.927  24.537  0.00  0.00    +0.007 A 
ATOM      7  C   UNL     1      -3.908   2.636  24.219  0.00  0.00    +0.037 A 
ATOM      8  C   UNL     1      -3.184   2.857  24.545  0.00  0.00    +0.139 A 
ATOM     26  C   UNL     1      -3.163   3.371  25.191  0.00  0.00    +0.037 A 
ATOM     27  C   UNL     1      -3.865   3.663  25.509  0.00  0.00    +0.007 A 
BRANCH   5   2
ATOM      1  F   UNL     1      -5.995   4.025  25.819  0.00  0.00    -0.166 F 
ATOM      2  C   UNL     1      -5.292   3.733  25.500  0.00  0.00    +0.419 C 
ATOM      3  F   UNL     1      -5.396   3.029  25.917  0.00  0.00    -0.166 F 
ATOM      4  F   UNL     1      -5.189   4.438  25.084  0.00  0.00    -0.166 F 
ENDBRANCH   5   2
ENDBRANCH   9   8
ENDBRANCH  10   9
TORSDOF 4
ENDMDL
MODEL 7
REMARK VINA RESULT:     -10.8      3.116      4.274
REMARK  Name = 
REMARK  4 active torsions:
REMARK  status: ('A' for Active; 'I' for Inactive)
REMARK    1  A    between atoms: C_2  and  C_5
REMARK    2  A    between atoms: C_8  and  O_9
REMARK    3  A    between atoms: O_9  and  C_10
REMARK    4  A    between atoms: N_19  and  C_20
REMARK                            x       y       z     vdW  Elec       q    Type
REMARK                         _______ _______ _______ _____ _____    ______ ____
ROOT
ATOM     10  C   UNL     1      -3.826   0.162  24.728  0.00  0.00    +0.215 C 
ATOM     11  C   UNL     1      -4.070  -0.328  25.346  0.00  0.00    +0.187 C 
ATOM     12  O   UNL     1      -3.611  -0.815  25.828  0.00  0.00    -0.348 OA
ATOM     13  C   UNL     1      -2.795  -0.932  25.813  0.00  0.00    +0.164 C 
ATOM     14  C   UNL     1      -2.236  -0.591  25.311  0.00  0.00    +0.127 C 
ATOM     15  N   UNL     1      -2.356  -0.049  24.700  0.00  0.00    -0.256 N 
ATOM     16  C   UNL     1      -3.063   0.286  24.442  0.00  0.00    +0.141 C 
ATOM     17  C   UNL     1      -1.677   0.189  24.295  0.00  0.00    +0.328 C 
ATOM     18  O   UNL     1      -1.736   0.730  23.675  0.00  0.00    -0.250 OA
ATOM     19  N   UNL     1      -0.941  -0.114  24.511  0.00  0.00    -0.161 NA
ENDROOT
BRANCH  19  20
ATOM     20  C   UNL     1      -0.262   0.125  24.106  0.00  0.00    +0.094 A 
ATOM     21  C   UNL     1       0.056   0.874  24.238  0.00  0.00    +0.115 A 
ATOM     22  N   UNL     1       0.734   1.112  23.833  0.00  0.00    -0.241 NA
ATOM     23  C   UNL     1       1.094   0.600  23.297  0.00  0.00    +0.099 A 
ATOM     24  C   UNL     1       0.777  -0.149  23.164  0.00  0.00    +0.022 A 
ATOM     25  C   UNL     1       0.098  -0.387  23.569  0.00  0.00    +0.020 A 
ENDBRANCH  19  20
BRANCH  10   9
ATOM      9  O   UNL     1      -4.425   0.583  24.349  0.00  0.00    -0.475 OA
BRANCH   9   8
ATOM      5  C   UNL     1      -5.166   2.767  25.248  0.00  0.00    +0.072 A 
ATOM      6  C   UNL     1      -5.472   2.067  25.559  0.00  0.00    +0.007 A 
ATOM      7  C   UNL     1      -5.225   1.340  25.259  0.00  0.00    +0.037 A 
ATOM      8  C   UNL     1      -4.672   1.311  24.648  0.00  0.00    +0.139 A 
ATOM     26  C   UNL     1      -4.365   2.012  24.337  0.00  0.00    +0.037 A 
ATOM     27  C   UNL     1      -4.611   2.739  24.636  0.00  0.00    +0.007 A 
BRANCH   5   2
ATOM      1  F   UNL     1      -5.659   4.223  25.847  0.00  0.00    -0.166 F 
ATOM      2  C   UNL     1      -5.413   3.495  25.547  0.00  0.00    +0.419 C 
ATOM      3  F   UNL     1      -6.191   3.317  25.340  0.00  0.00    -0.166 F 
ATOM      4  F   UNL     1      -4.634   3.673  25.755  0.00  0.00    -0.166 F 
ENDBRANCH   5   2
ENDBRANCH   9   8
ENDBRANCH  10   9
TORSDOF 4
ENDMDL
