MODEL 1
REMARK VINA RESULT:     -10.9      0.000      0.000
REMARK  Name = 
REMARK  4 active torsions:
REMARK  status: ('A' for Active; 'I' for Inactive)
REMARK    1  A    between atoms: C_2  and  C_4
REMARK    2  A    between atoms: C_6  and  C_7
REMARK    3  A    between atoms: C_7  and  C_8
REMARK    4  A    between atoms: C_18  and  C_19
REMARK                            x       y       z     vdW  Elec       q    Type
REMARK                         _______ _______ _______ _____ _____    ______ ____
ROOT
ATOM      4  C   UNL     1      -3.277   1.788  23.791  0.00  0.00    +0.007 C 
ATOM      5  C   UNL     1      -3.478   0.998  23.914  0.00  0.00    +0.005 C 
ATOM      6  C   UNL     1      -4.138   0.806  24.370  0.00  0.00    +0.027 C 
ATOM     15  C   UNL     1      -4.596   1.406  24.705  0.00  0.00    -0.048 C 
ATOM     16  C   UNL     1      -5.255   1.214  25.162  0.00  0.00    +0.026 C 
ATOM     17  C   UNL     1      -4.394   2.196  24.582  0.00  0.00    -0.032 C 
ATOM     18  C   UNL     1      -3.734   2.387  24.125  0.00  0.00    +0.054 C 
ENDROOT
BRANCH   4   2
ATOM      1  C   UNL     1      -2.677   1.996  22.511  0.00  0.00    +0.000 C 
ATOM      2  C   UNL     1      -2.617   1.979  23.333  0.00  0.00    +0.000 C 
ATOM      3  C   UNL     1      -1.898   2.152  23.698  0.00  0.00    +0.000 C 
ENDBRANCH   4   2
BRANCH  18  19
ATOM     19  C   UNL     1      -3.533   3.178  24.002  0.00  0.00    +0.186 C 
ATOM     20  O   UNL     1      -3.998   3.778  24.326  0.00  0.00    -0.220 OA
ENDBRANCH  18  19
BRANCH   6   7
ATOM      7  C   UNL     1      -4.339   0.015  24.493  0.00  0.00    +0.089 C 
BRANCH   7   8
ATOM      8  C   UNL     1      -3.792  -0.501  24.831  0.00  0.00    +0.226 C 
ATOM      9  O   UNL     1      -3.258  -0.226  25.396  0.00  0.00    -0.275 OA
ATOM     10  N   UNL     1      -3.780  -1.294  24.604  0.00  0.00    -0.280 N 
ATOM     11  C   UNL     1      -4.278  -1.648  24.049  0.00  0.00    +0.093 C 
ATOM     12  C   UNL     1      -4.073  -2.445  23.994  0.00  0.00    +0.023 C 
ATOM     13  C   UNL     1      -3.449  -2.585  24.515  0.00  0.00    +0.023 C 
ATOM     14  C   UNL     1      -3.268  -1.873  24.892  0.00  0.00    +0.093 C 
ENDBRANCH   7   8
ENDBRANCH   6   7
TORSDOF 4
ENDMDL
MODEL 2
REMARK VINA RESULT:     -10.7      0.628      1.848
REMARK  Name = 
REMARK  4 active torsions:
REMARK  status: ('A' for Active; 'I' for Inactive)
REMARK    1  A    between atoms: C_2  and  C_4
REMARK    2  A    between atoms: C_6  and  C_7
REMARK    3  A    between atoms: C_7  and  C_8
REMARK    4  A    between atoms: C_18  and  C_19
REMARK                            x       y       z     vdW  Elec       q    Type
REMARK                         _______ _______ _______ _____ _____    ______ ____
ROOT
ATOM      4  C   UNL     1      -4.824   1.852  24.783  0.00  0.00    +0.007 C 
ATOM      5  C   UNL     1      -4.613   1.065  24.652  0.00  0.00    +0.005 C 
ATOM      6  C   UNL     1      -3.933   0.886  24.222  0.00  0.00    +0.027 C 
ATOM     15  C   UNL     1      -3.463   1.495  23.922  0.00  0.00    -0.048 C 
ATOM     16  C   UNL     1      -2.782   1.316  23.491  0.00  0.00    +0.026 C 
ATOM     17  C   UNL     1      -3.674   2.282  24.052  0.00  0.00    -0.032 C 
ATOM     18  C   UNL     1      -4.355   2.460  24.483  0.00  0.00    +0.054 C 
ENDROOT
BRANCH   4   2
ATOM      1  C   UNL     1      -6.249   1.910  24.877  0.00  0.00    +0.000 C 
ATOM      2  C   UNL     1      -5.505   2.030  25.214  0.00  0.00    +0.000 C 
ATOM      3  C   UNL     1      -5.443   2.327  25.980  0.00  0.00    +0.000 C 
ENDBRANCH   4   2
BRANCH  18  19
ATOM     19  C   UNL     1      -4.566   3.247  24.613  0.00  0.00    +0.186 C 
ATOM     20  O   UNL     1      -4.083   3.856  24.335  0.00  0.00    -0.220 OA
ENDBRANCH  18  19
BRANCH   6   7
ATOM      7  C   UNL     1      -3.721   0.099  24.092  0.00  0.00    +0.089 C 
BRANCH   7   8
ATOM      8  C   UNL     1      -3.533  -0.388  24.730  0.00  0.00    +0.226 C 
ATOM      9  O   UNL     1      -3.269  -0.058  25.438  0.00  0.00    -0.275 OA
ATOM     10  N   UNL     1      -3.610  -1.206  24.661  0.00  0.00    -0.280 N 
ATOM     11  C   UNL     1      -3.867  -1.614  23.990  0.00  0.00    +0.093 C 
ATOM     12  C   UNL     1      -3.859  -2.421  24.164  0.00  0.00    +0.023 C 
ATOM     13  C   UNL     1      -3.598  -2.512  24.941  0.00  0.00    +0.023 C 
ATOM     14  C   UNL     1      -3.444  -1.761  25.248  0.00  0.00    +0.093 C 
ENDBRANCH   7   8
ENDBRANCH   6   7
TORSDOF 4
ENDMDL
MODEL 3
REMARK VINA RESULT:     -10.4      1.584      3.801
REMARK  Name = 
REMARK  4 active torsions:
REMARK  status: ('A' for Active; 'I' for Inactive)
REMARK    1  A    between atoms: C_2  and  C_4
REMARK    2  A    between atoms: C_6  and  C_7
REMARK    3  A    between atoms: C_7  and  C_8
REMARK    4  A    between atoms: C_18  and  C_19
REMARK                            x       y       z     vdW  Elec       q    Type
REMARK                         _______ _______ _______ _____ _____    ______ ____
ROOT
ATOM      4  C   UNL     1      -2.261  -0.866  25.003  0.00  0.00    +0.007 C 
ATOM      5  C   UNL     1      -2.898  -0.342  25.020  0.00  0.00    +0.005 C 
ATOM      6  C   UNL     1      -3.622  -0.561  24.690  0.00  0.00    +0.027 C 
ATOM     15  C   UNL     1      -3.707  -1.305  24.342  0.00  0.00    -0.048 C 
ATOM     16  C   UNL     1      -4.431  -1.524  24.011  0.00  0.00    +0.026 C 
ATOM     17  C   UNL     1      -3.070  -1.828  24.325  0.00  0.00    -0.032 C 
ATOM     18  C   UNL     1      -2.347  -1.608  24.655  0.00  0.00    +0.054 C 
ENDROOT
BRANCH   4   2
ATOM      1  C   UNL     1      -1.421  -0.708  26.148  0.00  0.00    +0.000 C 
ATOM      2  C   UNL     1      -1.538  -0.646  25.334  0.00  0.00    +0.000 C 
ATOM      3  C   UNL     1      -0.932  -0.363  24.852  0.00  0.00    +0.000 C 
ENDBRANCH   4   2
BRANCH  18  19
ATOM     19  C   UNL     1      -1.710  -2.132  24.638  0.00  0.00    +0.186 C 
ATOM     20  O   UNL     1      -1.786  -2.864  24.263  0.00  0.00    -0.220 OA
ENDBRANCH  18  19
BRANCH   6   7
ATOM      7  C   UNL     1      -4.259  -0.037  24.707  0.00  0.00    +0.089 C 
BRANCH   7   8
ATOM      8  C   UNL     1      -4.173   0.726  24.407  0.00  0.00    +0.226 C 
ATOM      9  O   UNL     1      -3.639   0.872  23.795  0.00  0.00    -0.275 OA
ATOM     10  N   UNL     1      -4.621   1.345  24.718  0.00  0.00    -0.280 N 
ATOM     11  C   UNL     1      -5.175   1.283  25.328  0.00  0.00    +0.093 C 
ATOM     12  C   UNL     1      -5.491   2.034  25.462  0.00  0.00    +0.023 C 
ATOM     13  C   UNL     1      -5.133   2.559  24.935  0.00  0.00    +0.023 C 
ATOM     14  C   UNL     1      -4.596   2.132  24.476  0.00  0.00    +0.093 C 
ENDBRANCH   7   8
ENDBRANCH   6   7
TORSDOF 4
ENDMDL
MODEL 4
REMARK VINA RESULT:      -9.9      1.753      2.560
REMARK  Name = 
REMARK  4 active torsions:
REMARK  status: ('A' for Active; 'I' for Inactive)
REMARK    1  A    between atoms: C_2  and  C_4
REMARK    2  A    between atoms: C_6  and  C_7
REMARK    3  A    between atoms: C_7  and  C_8
REMARK    4  A    between atoms: C_18  and  C_19
REMARK                            x       y       z     vdW  Elec       q    Type
REMARK                         _______ _______ _______ _____ _____    ______ ____
ROOT
ATOM      4  C   UNL     1      -1.668   3.100  25.185  0.00  0.00    +0.007 C 
ATOM      5  C   UNL     1      -2.222   2.499  25.083  0.00  0.00    +0.005 C 
ATOM      6  C   UNL     1      -3.017   2.685  24.966  0.00  0.00    +0.027 C 
ATOM     15  C   UNL     1      -3.258   3.475  24.952  0.00  0.00    -0.048 C 
ATOM     16  C   UNL     1      -4.052   3.662  24.835  0.00  0.00    +0.026 C 
ATOM     17  C   UNL     1      -2.703   4.077  25.054  0.00  0.00    -0.032 C 
ATOM     18  C   UNL     1      -1.908   3.889  25.170  0.00  0.00    +0.054 C 
ENDROOT
BRANCH   4   2
ATOM      1  C   UNL     1      -0.604   2.704  26.053  0.00  0.00    +0.000 C 
ATOM      2  C   UNL     1      -0.873   2.912  25.301  0.00  0.00    +0.000 C 
ATOM      3  C   UNL     1      -0.346   2.932  24.667  0.00  0.00    +0.000 C 
ENDBRANCH   4   2
BRANCH  18  19
ATOM     19  C   UNL     1      -1.353   4.491  25.272  0.00  0.00    +0.186 C 
ATOM     20  O   UNL     1      -1.592   5.281  25.252  0.00  0.00    -0.220 OA
ENDBRANCH  18  19
BRANCH   6   7
ATOM      7  C   UNL     1      -3.572   2.083  24.864  0.00  0.00    +0.089 C 
BRANCH   7   8
ATOM      8  C   UNL     1      -3.466   1.521  24.270  0.00  0.00    +0.226 C 
ATOM      9  O   UNL     1      -3.117   1.737  23.554  0.00  0.00    -0.275 OA
ATOM     10  N   UNL     1      -3.708   0.742  24.391  0.00  0.00    -0.280 N 
ATOM     11  C   UNL     1      -4.063   0.445  25.075  0.00  0.00    +0.093 C 
ATOM     12  C   UNL     1      -4.212  -0.358  24.957  0.00  0.00    +0.023 C 
ATOM     13  C   UNL     1      -3.949  -0.558  24.201  0.00  0.00    +0.023 C 
ATOM     14  C   UNL     1      -3.638   0.122  23.852  0.00  0.00    +0.093 C 
ENDBRANCH   7   8
ENDBRANCH   6   7
TORSDOF 4
ENDMDL
MODEL 5
REMARK VINA RESULT:      -9.6      2.314      4.396
REMARK  Name = 
REMARK  4 active torsions:
REMARK  status: ('A' for Active; 'I' for Inactive)
REMARK    1  A    between atoms: C_2  and  C_4
REMARK    2  A    between atoms: C_6  and  C_7
REMARK    3  A    between atoms: C_7  and  C_8
REMARK    4  A    between atoms: C_18  and  C_19
REMARK                            x       y       z     vdW  Elec       q    Type
REMARK                         _______ _______ _______ _____ _____    ______ ____
ROOT
ATOM      4  C   UNL     1      -3.093  -0.730  24.867  0.00  0.00    +0.007 C 
ATOM      5  C   UNL     1      -2.481  -0.200  25.024  0.00  0.00    +0.005 C 
ATOM      6  C   UNL     1      -1.719  -0.480  25.170  0.00  0.00    +0.027 C 
ATOM     15  C   UNL     1      -1.570  -1.292  25.159  0.00  0.00    -0.048 C 
ATOM     16  C   UNL     1      -0.808  -1.572  25.306  0.00  0.00    +0.026 C 
ATOM     17  C   UNL     1      -2.182  -1.822  25.003  0.00  0.00    -0.032 C 
ATOM     18  C   UNL     1      -2.944  -1.540  24.857  0.00  0.00    +0.054 C 
ENDROOT
BRANCH   4   2
ATOM      1  C   UNL     1      -4.317  -0.167  25.344  0.00  0.00    +0.000 C 
ATOM      2  C   UNL     1      -3.855  -0.448  24.721  0.00  0.00    +0.000 C 
ATOM      3  C   UNL     1      -4.154  -0.447  23.953  0.00  0.00    +0.000 C 
ENDBRANCH   4   2
BRANCH  18  19
ATOM     19  C   UNL     1      -3.556  -2.071  24.700  0.00  0.00    +0.186 C 
ATOM     20  O   UNL     1      -3.423  -2.884  24.757  0.00  0.00    -0.220 OA
ENDBRANCH  18  19
BRANCH   6   7
ATOM      7  C   UNL     1      -1.107   0.050  25.326  0.00  0.00    +0.089 C 
BRANCH   7   8
ATOM      8  C   UNL     1      -0.928   0.645  24.784  0.00  0.00    +0.226 C 
ATOM      9  O   UNL     1      -1.028   0.511  23.976  0.00  0.00    -0.275 OA
ATOM     10  N   UNL     1      -0.650   1.375  25.049  0.00  0.00    -0.280 N 
ATOM     11  C   UNL     1      -0.523   1.589  25.837  0.00  0.00    +0.093 C 
ATOM     12  C   UNL     1      -0.244   2.365  25.848  0.00  0.00    +0.023 C 
ATOM     13  C   UNL     1      -0.199   2.632  25.069  0.00  0.00    +0.023 C 
ATOM     14  C   UNL     1      -0.449   2.020  24.575  0.00  0.00    +0.093 C 
ENDBRANCH   7   8
ENDBRANCH   6   7
TORSDOF 4
ENDMDL
MODEL 6
REMARK VINA RESULT:      -9.6      1.687      2.829
REMARK  Name = 
REMARK  4 active torsions:
REMARK  status: ('A' for Active; 'I' for Inactive)
REMARK    1  A    between atoms: C_2  and  C_4
REMARK    2  A    between atoms: C_6  and  C_7
REMARK    3  A    between atoms: C_7  and  C_8
REMARK    4  A    between atoms: C_18  and  C_19
REMARK                            x       y       z     vdW  Elec       q    Type
REMARK                         _______ _______ _______ _____ _____    ______ ____
ROOT
ATOM      4  C   UNL     1      -4.292   2.259  24.908  0.00  0.00    +0.007 C 
ATOM      5  C   UNL     1      -3.576   1.859  24.822  0.00  0.00    +0.005 C 
ATOM      6  C   UNL     1      -3.567   1.036  24.758  0.00  0.00    +0.027 C 
ATOM     15  C   UNL     1      -4.276   0.614  24.779  0.00  0.00    -0.048 C 
ATOM     16  C   UNL     1      -4.267  -0.209  24.715  0.00  0.00    +0.026 C 
ATOM     17  C   UNL     1      -4.992   1.014  24.865  0.00  0.00    -0.032 C 
ATOM     18  C   UNL     1      -5.000   1.837  24.929  0.00  0.00    +0.054 C 
ENDROOT
BRANCH   4   2
ATOM      1  C   UNL     1      -4.231   3.437  25.713  0.00  0.00    +0.000 C 
ATOM      2  C   UNL     1      -4.299   3.081  24.972  0.00  0.00    +0.000 C 
ATOM      3  C   UNL     1      -4.376   3.548  24.296  0.00  0.00    +0.000 C 
ENDBRANCH   4   2
BRANCH  18  19
ATOM     19  C   UNL     1      -5.716   2.237  25.014  0.00  0.00    +0.186 C 
ATOM     20  O   UNL     1      -6.427   1.817  25.003  0.00  0.00    -0.220 OA
ENDBRANCH  18  19
BRANCH   6   7
ATOM      7  C   UNL     1      -2.851   0.636  24.673  0.00  0.00    +0.089 C 
BRANCH   7   8
ATOM      8  C   UNL     1      -2.322   0.860  24.080  0.00  0.00    +0.226 C 
ATOM      9  O   UNL     1      -2.605   1.140  23.359  0.00  0.00    -0.275 OA
ATOM     10  N   UNL     1      -1.509   0.802  24.210  0.00  0.00    -0.280 N 
ATOM     11  C   UNL     1      -1.146   0.532  24.901  0.00  0.00    +0.093 C 
ATOM     12  C   UNL     1      -0.329   0.567  24.789  0.00  0.00    +0.023 C 
ATOM     13  C   UNL     1      -0.187   0.858  24.031  0.00  0.00    +0.023 C 
ATOM     14  C   UNL     1      -0.917   1.003  23.673  0.00  0.00    +0.093 C 
ENDBRANCH   7   8
ENDBRANCH   6   7
TORSDOF 4
ENDMDL
MODEL 7
REMARK VINA RESULT:      -9.5      1.760      3.948
REMARK  Name = 
REMARK  4 active torsions:
REMARK  status: ('A' for Active; 'I' for Inactive)
REMARK    1  A    between atoms: C_2  and  C_4
REMARK    2  A    between atoms: C_6  and  C_7
REMARK    3  A    between atoms: C_7  and  C_8
REMARK    4  A    between atoms: C_18  and  C_19
REMARK                            x       y       z     vdW  Elec       q    Type
REMARK                         _______ _______ _______ _____ _____    ______ ____
ROOT
ATOM      4  C   UNL     1      -3.056   0.015  24.917  0.00  0.00    +0.007 C 
ATOM      5  C   UNL     1      -3.024   0.830  25.042  0.00  0.00    +0.005 C 
ATOM      6  C   UNL     1      -3.699   1.291  24.930  0.00  0.00    +0.027 C 
ATOM     15  C   UNL     1      -4.406   0.937  24.693  0.00  0.00    -0.048 C 
ATOM     16  C   UNL     1      -5.080   1.399  24.582  0.00  0.00    +0.026 C 
ATOM     17  C   UNL     1      -4.438   0.122  24.568  0.00  0.00    -0.032 C 
ATOM     18  C   UNL     1      -3.762  -0.338  24.680  0.00  0.00    +0.054 C 
ENDROOT
BRANCH   4   2
ATOM      1  C   UNL     1      -2.198  -0.733  25.780  0.00  0.00    +0.000 C 
ATOM      2  C   UNL     1      -2.381  -0.446  25.029  0.00  0.00    +0.000 C 
ATOM      3  C   UNL     1      -1.889  -0.619  24.390  0.00  0.00    +0.000 C 
ENDBRANCH   4   2
BRANCH  18  19
ATOM     19  C   UNL     1      -3.794  -1.153  24.555  0.00  0.00    +0.186 C 
ATOM     20  O   UNL     1      -4.454  -1.489  24.190  0.00  0.00    -0.220 OA
ENDBRANCH  18  19
BRANCH   6   7
ATOM      7  C   UNL     1      -3.667   2.106  25.055  0.00  0.00    +0.089 C 
BRANCH   7   8
ATOM      8  C   UNL     1      -3.073   2.555  24.698  0.00  0.00    +0.226 C 
ATOM      9  O   UNL     1      -2.774   2.333  23.963  0.00  0.00    -0.275 OA
ATOM     10  N   UNL     1      -2.780   3.227  25.078  0.00  0.00    -0.280 N 
ATOM     11  C   UNL     1      -3.025   3.515  25.811  0.00  0.00    +0.093 C 
ATOM     12  C   UNL     1      -2.587   4.195  25.977  0.00  0.00    +0.023 C 
ATOM     13  C   UNL     1      -2.071   4.326  25.347  0.00  0.00    +0.023 C 
ATOM     14  C   UNL     1      -2.191   3.727  24.791  0.00  0.00    +0.093 C 
ENDBRANCH   7   8
ENDBRANCH   6   7
TORSDOF 4
ENDMDL
MODEL 8
REMARK VINA RESULT:      -9.5      1.697      4.210
REMARK  Name = 
REMARK  4 active torsions:
REMARK  status: ('A' for Active; 'I' for Inactive)
REMARK    1  A    between atoms: C_2  and  C_4
REMARK    2  A    between atoms: C_6  and  C_7
REMARK    3  A    between atoms: C_7  and  C_8
REMARK    4  A    between atoms: C_18  and  C_19
REMARK                            x       y       z     vdW  Elec       q    Type
REMARK                         _______ _______ _______ _____ _____    ______ ____
ROOT
ATOM      4  C   UNL     1      -2.842  -0.805  24.823  0.00  0.00    +0.007 C 
ATOM      5  C   UNL     1      -2.919   0.017  24.803  0.00  0.00    +0.005 C 
ATOM      6  C   UNL     1      -2.255   0.491  24.682  0.00  0.00    +0.027 C 
ATOM     15  C   UNL     1      -1.513   0.143  24.581  0.00  0.00    -0.048 C 
ATOM     16  C   UNL     1      -0.849   0.617  24.460  0.00  0.00    +0.026 C 
ATOM     17  C   UNL     1      -1.436  -0.678  24.601  0.00  0.00    -0.032 C 
ATOM     18  C   UNL     1      -2.101  -1.151  24.722  0.00  0.00    +0.054 C 
ENDROOT
BRANCH   4   2
ATOM      1  C   UNL     1      -3.924  -1.576  24.298  0.00  0.00    +0.000 C 
ATOM      2  C   UNL     1      -3.507  -1.278  24.944  0.00  0.00    +0.000 C 
ATOM      3  C   UNL     1      -3.755  -1.453  25.711  0.00  0.00    +0.000 C 
ENDBRANCH   4   2
BRANCH  18  19
ATOM     19  C   UNL     1      -2.024  -1.973  24.742  0.00  0.00    +0.186 C 
ATOM     20  O   UNL     1      -1.278  -2.319  24.674  0.00  0.00    -0.220 OA
ENDBRANCH  18  19
BRANCH   6   7
ATOM      7  C   UNL     1      -2.332   1.312  24.662  0.00  0.00    +0.089 C 
BRANCH   7   8
ATOM      8  C   UNL     1      -2.843   1.665  24.118  0.00  0.00    +0.226 C 
ATOM      9  O   UNL     1      -2.985   1.304  23.391  0.00  0.00    -0.275 OA
ATOM     10  N   UNL     1      -3.212   2.379  24.303  0.00  0.00    -0.280 N 
ATOM     11  C   UNL     1      -3.124   2.803  25.006  0.00  0.00    +0.093 C 
ATOM     12  C   UNL     1      -3.592   3.481  24.955  0.00  0.00    +0.023 C 
ATOM     13  C   UNL     1      -3.969   3.476  24.221  0.00  0.00    +0.023 C 
ATOM     14  C   UNL     1      -3.734   2.795  23.819  0.00  0.00    +0.093 C 
ENDBRANCH   7   8
ENDBRANCH   6   7
TORSDOF 4
ENDMDL
