MODEL 1
REMARK VINA RESULT:     -12.3      0.000      0.000
REMARK  Name = 
REMARK  6 active torsions:
REMARK  status: ('A' for Active; 'I' for Inactive)
REMARK    1  A    between atoms: C_2  and  C_4
REMARK    2  A    between atoms: C_4  and  C_5
REMARK    3  A    between atoms: C_10  and  C_11
REMARK    4  A    between atoms: C_11  and  C_12
REMARK    5  A    between atoms: C_12  and  N_13
REMARK    6  A    between atoms: C_25  and  C_27
REMARK                            x       y       z     vdW  Elec       q    Type
REMARK                         _______ _______ _______ _____ _____    ______ ____
ROOT
ATOM      5  C   UNL     1      -4.065   3.386  25.251  0.00  0.00    +0.015 C 
ATOM      6  C   UNL     1      -3.887   4.188  25.330  0.00  0.00    +0.022 C 
ATOM      7  C   UNL     1      -3.100   4.435  25.353  0.00  0.00    +0.094 C 
ATOM      8  N   UNL     1      -2.491   3.879  25.298  0.00  0.00    -0.276 N 
ATOM      9  C   UNL     1      -2.671   3.078  25.220  0.00  0.00    +0.094 C 
ATOM     10  C   UNL     1      -3.458   2.832  25.196  0.00  0.00    +0.022 C 
ATOM     25  C   UNL     1      -1.705   4.125  25.322  0.00  0.00    +0.249 C 
ATOM     26  O   UNL     1      -1.526   4.928  25.400  0.00  0.00    -0.270 OA
ENDROOT
BRANCH  25  27
ATOM     27  C   UNL     1      -1.097   3.571  25.267  0.00  0.00    +0.054 A 
ATOM     28  C   UNL     1      -0.815   3.198  25.947  0.00  0.00    +0.005 A 
ATOM     29  C   UNL     1      -0.207   2.644  25.891  0.00  0.00    +0.000 A 
ATOM     30  C   UNL     1       0.120   2.462  25.156  0.00  0.00    +0.000 A 
ATOM     31  C   UNL     1      -0.162   2.835  24.476  0.00  0.00    +0.000 A 
ATOM     32  C   UNL     1      -0.771   3.390  24.531  0.00  0.00    +0.005 A 
ENDBRANCH  25  27
BRANCH   5   4
ATOM      4  C   UNL     1      -4.853   3.140  25.227  0.00  0.00    +0.114 C 
BRANCH   4   2
ATOM      1  O   UNL     1      -5.800   4.184  25.458  0.00  0.00    -0.246 OA
ATOM      2  C   UNL     1      -5.413   3.502  25.713  0.00  0.00    +0.365 C 
ATOM      3  O   UNL     1      -5.585   3.183  26.454  0.00  0.00    -0.246 OA
ENDBRANCH   4   2
ENDBRANCH   5   4
BRANCH  10  11
ATOM     11  C   UNL     1      -3.636   2.031  25.118  0.00  0.00    +0.019 C 
BRANCH  11  12
ATOM     12  C   UNL     1      -3.331   1.600  24.483  0.00  0.00    +0.072 C 
BRANCH  12  13
ATOM     13  N   UNL     1      -3.392   0.777  24.476  0.00  0.00    -0.270 NA
ATOM     14  C   UNL     1      -2.972   0.326  25.025  0.00  0.00    +0.094 C 
ATOM     15  C   UNL     1      -3.034  -0.496  25.017  0.00  0.00    +0.109 C 
ATOM     16  N   UNL     1      -3.516  -0.868  24.461  0.00  0.00    -0.290 N 
ATOM     17  C   UNL     1      -3.936  -0.419  23.911  0.00  0.00    +0.109 C 
ATOM     18  C   UNL     1      -3.874   0.405  23.919  0.00  0.00    +0.094 C 
ATOM     19  C   UNL     1      -3.578  -1.691  24.453  0.00  0.00    +0.132 A 
ATOM     20  N   UNL     1      -3.157  -2.141  25.002  0.00  0.00    -0.229 NA
ATOM     21  C   UNL     1      -3.220  -2.964  24.994  0.00  0.00    +0.100 A 
ATOM     22  C   UNL     1      -3.701  -3.336  24.438  0.00  0.00    +0.021 A 
ATOM     23  C   UNL     1      -4.121  -2.886  23.889  0.00  0.00    +0.004 A 
ATOM     24  C   UNL     1      -4.059  -2.063  23.897  0.00  0.00    +0.034 A 
ENDBRANCH  12  13
ENDBRANCH  11  12
ENDBRANCH  10  11
TORSDOF 6
ENDMDL
MODEL 2
REMARK VINA RESULT:     -11.3      2.377      4.545
REMARK  Name = 
REMARK  6 active torsions:
REMARK  status: ('A' for Active; 'I' for Inactive)
REMARK    1  A    between atoms: C_2  and  C_4
REMARK    2  A    between atoms: C_4  and  C_5
REMARK    3  A    between atoms: C_10  and  C_11
REMARK    4  A    between atoms: C_11  and  C_12
REMARK    5  A    between atoms: C_12  and  N_13
REMARK    6  A    between atoms: C_25  and  C_27
REMARK                            x       y       z     vdW  Elec       q    Type
REMARK                         _______ _______ _______ _____ _____    ______ ____
ROOT
ATOM      5  C   UNL     1      -3.194   2.399  24.680  0.00  0.00    +0.015 C 
ATOM      6  C   UNL     1      -3.960   2.446  24.983  0.00  0.00    +0.022 C 
ATOM      7  C   UNL     1      -4.387   1.755  25.134  0.00  0.00    +0.094 C 
ATOM      8  N   UNL     1      -4.047   1.019  24.981  0.00  0.00    -0.276 N 
ATOM      9  C   UNL     1      -3.281   0.973  24.678  0.00  0.00    +0.094 C 
ATOM     10  C   UNL     1      -2.855   1.663  24.527  0.00  0.00    +0.022 C 
ATOM     25  C   UNL     1      -4.473   0.329  25.131  0.00  0.00    +0.249 C 
ATOM     26  O   UNL     1      -5.239   0.375  25.435  0.00  0.00    -0.270 OA
ENDROOT
BRANCH  25  27
ATOM     27  C   UNL     1      -4.134  -0.407  24.979  0.00  0.00    +0.054 A 
ATOM     28  C   UNL     1      -4.208  -0.749  24.232  0.00  0.00    +0.005 A 
ATOM     29  C   UNL     1      -3.869  -1.485  24.081  0.00  0.00    +0.000 A 
ATOM     30  C   UNL     1      -3.455  -1.880  24.676  0.00  0.00    +0.000 A 
ATOM     31  C   UNL     1      -3.381  -1.538  25.423  0.00  0.00    +0.000 A 
ATOM     32  C   UNL     1      -3.720  -0.801  25.575  0.00  0.00    +0.005 A 
ENDBRANCH  25  27
BRANCH   5   4
ATOM      4  C   UNL     1      -2.768   3.090  24.529  0.00  0.00    +0.114 C 
BRANCH   4   2
ATOM      1  O   UNL     1      -2.912   4.194  25.424  0.00  0.00    -0.246 OA
ATOM      2  C   UNL     1      -3.096   3.825  24.709  0.00  0.00    +0.365 C 
ATOM      3  O   UNL     1      -3.609   4.190  24.177  0.00  0.00    -0.246 OA
ENDBRANCH   4   2
ENDBRANCH   5   4
BRANCH  10  11
ATOM     11  C   UNL     1      -2.090   1.617  24.224  0.00  0.00    +0.019 C 
BRANCH  11  12
ATOM     12  C   UNL     1      -1.500   1.225  24.649  0.00  0.00    +0.072 C 
BRANCH  12  13
ATOM     13  N   UNL     1      -0.769   1.073  24.297  0.00  0.00    -0.270 NA
ATOM     14  C   UNL     1      -0.129   1.572  24.443  0.00  0.00    +0.094 C 
ATOM     15  C   UNL     1       0.601   1.421  24.091  0.00  0.00    +0.109 C 
ATOM     16  N   UNL     1       0.691   0.770  23.592  0.00  0.00    -0.290 N 
ATOM     17  C   UNL     1       0.051   0.270  23.446  0.00  0.00    +0.109 C 
ATOM     18  C   UNL     1      -0.679   0.422  23.799  0.00  0.00    +0.094 C 
ATOM     19  C   UNL     1       1.421   0.617  23.240  0.00  0.00    +0.132 A 
ATOM     20  N   UNL     1       2.062   1.117  23.386  0.00  0.00    -0.229 NA
ATOM     21  C   UNL     1       2.792   0.964  23.033  0.00  0.00    +0.100 A 
ATOM     22  C   UNL     1       2.882   0.314  22.536  0.00  0.00    +0.021 A 
ATOM     23  C   UNL     1       2.242  -0.186  22.389  0.00  0.00    +0.004 A 
ATOM     24  C   UNL     1       1.511  -0.033  22.742  0.00  0.00    +0.034 A 
ENDBRANCH  12  13
ENDBRANCH  11  12
ENDBRANCH  10  11
TORSDOF 6
ENDMDL
MODEL 3
REMARK VINA RESULT:     -11.1      1.167      3.054
REMARK  Name = 
REMARK  6 active torsions:
REMARK  status: ('A' for Active; 'I' for Inactive)
REMARK    1  A    between atoms: C_2  and  C_4
REMARK    2  A    between atoms: C_4  and  C_5
REMARK    3  A    between atoms: C_10  and  C_11
REMARK    4  A    between atoms: C_11  and  C_12
REMARK    5  A    between atoms: C_12  and  N_13
REMARK    6  A    between atoms: C_25  and  C_27
REMARK                            x       y       z     vdW  Elec       q    Type
REMARK                         _______ _______ _______ _____ _____    ______ ____
ROOT
ATOM      5  C   UNL     1      -0.860   2.509  25.044  0.00  0.00    +0.015 C 
ATOM      6  C   UNL     1      -0.652   3.286  25.229  0.00  0.00    +0.022 C 
ATOM      7  C   UNL     1      -1.240   3.851  25.351  0.00  0.00    +0.094 C 
ATOM      8  N   UNL     1      -2.036   3.640  25.289  0.00  0.00    -0.276 N 
ATOM      9  C   UNL     1      -2.242   2.863  25.104  0.00  0.00    +0.094 C 
ATOM     10  C   UNL     1      -1.655   2.298  24.982  0.00  0.00    +0.022 C 
ATOM     25  C   UNL     1      -2.623   4.206  25.411  0.00  0.00    +0.249 C 
ATOM     26  O   UNL     1      -2.415   4.983  25.596  0.00  0.00    -0.270 OA
ENDROOT
BRANCH  25  27
ATOM     27  C   UNL     1      -3.418   3.995  25.349  0.00  0.00    +0.054 A 
ATOM     28  C   UNL     1      -3.789   3.995  24.612  0.00  0.00    +0.005 A 
ATOM     29  C   UNL     1      -4.583   3.784  24.551  0.00  0.00    +0.000 A 
ATOM     30  C   UNL     1      -5.009   3.574  25.226  0.00  0.00    +0.000 A 
ATOM     31  C   UNL     1      -4.638   3.575  25.963  0.00  0.00    +0.000 A 
ATOM     32  C   UNL     1      -3.842   3.785  26.025  0.00  0.00    +0.005 A 
ENDBRANCH  25  27
BRANCH   5   4
ATOM      4  C   UNL     1      -0.272   1.942  24.922  0.00  0.00    +0.114 C 
BRANCH   4   2
ATOM      1  O   UNL     1       0.953   2.262  24.259  0.00  0.00    -0.246 OA
ATOM      2  C   UNL     1       0.523   2.160  24.956  0.00  0.00    +0.365 C 
ATOM      3  O   UNL     1       0.889   2.276  25.686  0.00  0.00    -0.246 OA
ENDBRANCH   4   2
ENDBRANCH   5   4
BRANCH  10  11
ATOM     11  C   UNL     1      -1.862   1.521  24.797  0.00  0.00    +0.019 C 
BRANCH  11  12
ATOM     12  C   UNL     1      -2.306   1.075  25.332  0.00  0.00    +0.072 C 
BRANCH  12  13
ATOM     13  N   UNL     1      -2.611   0.343  25.103  0.00  0.00    -0.270 NA
ATOM     14  C   UNL     1      -2.288  -0.353  25.407  0.00  0.00    +0.094 C 
ATOM     15  C   UNL     1      -2.593  -1.084  25.178  0.00  0.00    +0.109 C 
ATOM     16  N   UNL     1      -3.222  -1.120  24.645  0.00  0.00    -0.290 N 
ATOM     17  C   UNL     1      -3.546  -0.425  24.341  0.00  0.00    +0.109 C 
ATOM     18  C   UNL     1      -3.240   0.307  24.570  0.00  0.00    +0.094 C 
ATOM     19  C   UNL     1      -3.527  -1.851  24.416  0.00  0.00    +0.132 A 
ATOM     20  N   UNL     1      -3.203  -2.547  24.721  0.00  0.00    -0.229 NA
ATOM     21  C   UNL     1      -3.509  -3.278  24.491  0.00  0.00    +0.100 A 
ATOM     22  C   UNL     1      -4.137  -3.314  23.959  0.00  0.00    +0.021 A 
ATOM     23  C   UNL     1      -4.461  -2.619  23.655  0.00  0.00    +0.004 A 
ATOM     24  C   UNL     1      -4.156  -1.887  23.884  0.00  0.00    +0.034 A 
ENDBRANCH  12  13
ENDBRANCH  11  12
ENDBRANCH  10  11
TORSDOF 6
ENDMDL
MODEL 4
REMARK VINA RESULT:     -10.8      0.837      3.037
REMARK  Name = 
REMARK  6 active torsions:
REMARK  status: ('A' for Active; 'I' for Inactive)
REMARK    1  A    between atoms: C_2  and  C_4
REMARK    2  A    between atoms: C_4  and  C_5
REMARK    3  A    between atoms: C_10  and  C_11
REMARK    4  A    between atoms: C_11  and  C_12
REMARK    5  A    between atoms: C_12  and  N_13
REMARK    6  A    between atoms: C_25  and  C_27
REMARK                            x       y       z     vdW  Elec       q    Type
REMARK                         _______ _______ _______ _____ _____    ______ ____
ROOT
ATOM      5  C   UNL     1      -2.231   3.359  25.019  0.00  0.00    +0.015 C 
ATOM      6  C   UNL     1      -2.519   4.128  25.108  0.00  0.00    +0.022 C 
ATOM      7  C   UNL     1      -3.324   4.254  25.233  0.00  0.00    +0.094 C 
ATOM      8  N   UNL     1      -3.843   3.613  25.268  0.00  0.00    -0.276 N 
ATOM      9  C   UNL     1      -3.554   2.845  25.179  0.00  0.00    +0.094 C 
ATOM     10  C   UNL     1      -2.749   2.718  25.055  0.00  0.00    +0.022 C 
ATOM     25  C   UNL     1      -4.647   3.739  25.392  0.00  0.00    +0.249 C 
ATOM     26  O   UNL     1      -4.936   4.508  25.481  0.00  0.00    -0.270 OA
ENDROOT
BRANCH  25  27
ATOM     27  C   UNL     1      -5.166   3.099  25.428  0.00  0.00    +0.054 A 
ATOM     28  C   UNL     1      -5.547   2.837  24.745  0.00  0.00    +0.005 A 
ATOM     29  C   UNL     1      -6.065   2.197  24.781  0.00  0.00    +0.000 A 
ATOM     30  C   UNL     1      -6.202   1.817  25.501  0.00  0.00    +0.000 A 
ATOM     31  C   UNL     1      -5.821   2.078  26.184  0.00  0.00    +0.000 A 
ATOM     32  C   UNL     1      -5.302   2.720  26.148  0.00  0.00    +0.005 A 
ENDBRANCH  25  27
BRANCH   5   4
ATOM      4  C   UNL     1      -1.425   3.232  24.895  0.00  0.00    +0.114 C 
BRANCH   4   2
ATOM      1  O   UNL     1      -0.674   4.410  24.596  0.00  0.00    -0.246 OA
ATOM      2  C   UNL     1      -0.878   3.807  25.121  0.00  0.00    +0.365 C 
ATOM      3  O   UNL     1      -0.534   3.779  25.870  0.00  0.00    -0.246 OA
ENDBRANCH   4   2
ENDBRANCH   5   4
BRANCH  10  11
ATOM     11  C   UNL     1      -2.461   1.951  24.966  0.00  0.00    +0.019 C 
BRANCH  11  12
ATOM     12  C   UNL     1      -2.620   1.528  24.274  0.00  0.00    +0.072 C 
BRANCH  12  13
ATOM     13  N   UNL     1      -2.801   0.724  24.315  0.00  0.00    -0.270 NA
ATOM     14  C   UNL     1      -2.434   0.245  24.878  0.00  0.00    +0.094 C 
ATOM     15  C   UNL     1      -2.616  -0.558  24.918  0.00  0.00    +0.109 C 
ATOM     16  N   UNL     1      -3.165  -0.883  24.396  0.00  0.00    -0.290 N 
ATOM     17  C   UNL     1      -3.533  -0.406  23.833  0.00  0.00    +0.109 C 
ATOM     18  C   UNL     1      -3.351   0.399  23.793  0.00  0.00    +0.094 C 
ATOM     19  C   UNL     1      -3.348  -1.687  24.436  0.00  0.00    +0.132 A 
ATOM     20  N   UNL     1      -2.979  -2.166  24.999  0.00  0.00    -0.229 NA
ATOM     21  C   UNL     1      -3.162  -2.969  25.039  0.00  0.00    +0.100 A 
ATOM     22  C   UNL     1      -3.711  -3.294  24.518  0.00  0.00    +0.021 A 
ATOM     23  C   UNL     1      -4.079  -2.816  23.955  0.00  0.00    +0.004 A 
ATOM     24  C   UNL     1      -3.896  -2.012  23.914  0.00  0.00    +0.034 A 
ENDBRANCH  12  13
ENDBRANCH  11  12
ENDBRANCH  10  11
TORSDOF 6
ENDMDL
MODEL 5
REMARK VINA RESULT:     -10.7      2.764      4.705
REMARK  Name = 
REMARK  6 active torsions:
REMARK  status: ('A' for Active; 'I' for Inactive)
REMARK    1  A    between atoms: C_2  and  C_4
REMARK    2  A    between atoms: C_4  and  C_5
REMARK    3  A    between atoms: C_10  and  C_11
REMARK    4  A    between atoms: C_11  and  C_12
REMARK    5  A    between atoms: C_12  and  N_13
REMARK    6  A    between atoms: C_25  and  C_27
REMARK                            x       y       z     vdW  Elec       q    Type
REMARK                         _______ _______ _______ _____ _____    ______ ____
ROOT
ATOM      5  C   UNL     1      -3.468  -0.678  24.661  0.00  0.00    +0.015 C 
ATOM      6  C   UNL     1      -4.241  -0.620  24.944  0.00  0.00    +0.022 C 
ATOM      7  C   UNL     1      -4.592   0.121  25.036  0.00  0.00    +0.094 C 
ATOM      8  N   UNL     1      -4.169   0.805  24.847  0.00  0.00    -0.276 N 
ATOM      9  C   UNL     1      -3.396   0.746  24.565  0.00  0.00    +0.094 C 
ATOM     10  C   UNL     1      -3.046   0.004  24.472  0.00  0.00    +0.022 C 
ATOM     25  C   UNL     1      -4.519   1.545  24.939  0.00  0.00    +0.249 C 
ATOM     26  O   UNL     1      -5.292   1.604  25.221  0.00  0.00    -0.270 OA
ENDROOT
BRANCH  25  27
ATOM     27  C   UNL     1      -4.096   2.228  24.750  0.00  0.00    +0.054 A 
ATOM     28  C   UNL     1      -3.689   2.638  25.338  0.00  0.00    +0.005 A 
ATOM     29  C   UNL     1      -3.267   3.320  25.148  0.00  0.00    +0.000 A 
ATOM     30  C   UNL     1      -3.252   3.594  24.370  0.00  0.00    +0.000 A 
ATOM     31  C   UNL     1      -3.660   3.184  23.781  0.00  0.00    +0.000 A 
ATOM     32  C   UNL     1      -4.083   2.500  23.971  0.00  0.00    +0.005 A 
ENDBRANCH  25  27
BRANCH   5   4
ATOM      4  C   UNL     1      -3.117  -1.420  24.569  0.00  0.00    +0.114 C 
BRANCH   4   2
ATOM      1  O   UNL     1      -3.581  -2.518  25.356  0.00  0.00    -0.246 OA
ATOM      2  C   UNL     1      -3.574  -2.103  24.643  0.00  0.00    +0.365 C 
ATOM      3  O   UNL     1      -4.022  -2.372  24.005  0.00  0.00    -0.246 OA
ENDBRANCH   4   2
ENDBRANCH   5   4
BRANCH  10  11
ATOM     11  C   UNL     1      -2.273  -0.054  24.190  0.00  0.00    +0.019 C 
BRANCH  11  12
ATOM     12  C   UNL     1      -1.650   0.271  24.624  0.00  0.00    +0.072 C 
BRANCH  12  13
ATOM     13  N   UNL     1      -0.897   0.321  24.289  0.00  0.00    -0.270 NA
ATOM     14  C   UNL     1      -0.424   0.982  24.432  0.00  0.00    +0.094 C 
ATOM     15  C   UNL     1       0.328   1.032  24.097  0.00  0.00    +0.109 C 
ATOM     16  N   UNL     1       0.608   0.420  23.620  0.00  0.00    -0.290 N 
ATOM     17  C   UNL     1       0.136  -0.241  23.477  0.00  0.00    +0.109 C 
ATOM     18  C   UNL     1      -0.617  -0.291  23.812  0.00  0.00    +0.094 C 
ATOM     19  C   UNL     1       1.360   0.469  23.285  0.00  0.00    +0.132 A 
ATOM     20  N   UNL     1       1.833   1.131  23.428  0.00  0.00    -0.229 NA
ATOM     21  C   UNL     1       2.585   1.180  23.093  0.00  0.00    +0.100 A 
ATOM     22  C   UNL     1       2.864   0.569  22.616  0.00  0.00    +0.021 A 
ATOM     23  C   UNL     1       2.393  -0.092  22.472  0.00  0.00    +0.004 A 
ATOM     24  C   UNL     1       1.640  -0.142  22.808  0.00  0.00    +0.034 A 
ENDBRANCH  12  13
ENDBRANCH  11  12
ENDBRANCH  10  11
TORSDOF 6
ENDMDL
MODEL 6
REMARK VINA RESULT:     -10.2      2.530      4.875
REMARK  Name = 
REMARK  6 active torsions:
REMARK  status: ('A' for Active; 'I' for Inactive)
REMARK    1  A    between atoms: C_2  and  C_4
REMARK    2  A    between atoms: C_4  and  C_5
REMARK    3  A    between atoms: C_10  and  C_11
REMARK    4  A    between atoms: C_11  and  C_12
REMARK    5  A    between atoms: C_12  and  N_13
REMARK    6  A    between atoms: C_25  and  C_27
REMARK                            x       y       z     vdW  Elec       q    Type
REMARK                         _______ _______ _______ _____ _____    ______ ____
ROOT
ATOM      5  C   UNL     1      -2.825  -1.716  24.591  0.00  0.00    +0.015 C 
ATOM      6  C   UNL     1      -2.164  -2.191  24.459  0.00  0.00    +0.022 C 
ATOM      7  C   UNL     1      -1.410  -1.855  24.450  0.00  0.00    +0.094 C 
ATOM      8  N   UNL     1      -1.318  -1.044  24.574  0.00  0.00    -0.276 N 
ATOM      9  C   UNL     1      -1.980  -0.570  24.706  0.00  0.00    +0.094 C 
ATOM     10  C   UNL     1      -2.734  -0.906  24.715  0.00  0.00    +0.022 C 
ATOM     25  C   UNL     1      -0.566  -0.709  24.566  0.00  0.00    +0.249 C 
ATOM     26  O   UNL     1       0.097  -1.183  24.433  0.00  0.00    -0.270 OA
ENDROOT
BRANCH  25  27
ATOM     27  C   UNL     1      -0.473   0.102  24.689  0.00  0.00    +0.054 A 
ATOM     28  C   UNL     1      -0.526   0.412  25.452  0.00  0.00    +0.005 A 
ATOM     29  C   UNL     1      -0.434   1.222  25.575  0.00  0.00    +0.000 A 
ATOM     30  C   UNL     1      -0.288   1.723  24.935  0.00  0.00    +0.000 A 
ATOM     31  C   UNL     1      -0.235   1.413  24.173  0.00  0.00    +0.000 A 
ATOM     32  C   UNL     1      -0.327   0.601  24.049  0.00  0.00    +0.005 A 
ENDBRANCH  25  27
BRANCH   5   4
ATOM      4  C   UNL     1      -3.579  -2.052  24.599  0.00  0.00    +0.114 C 
BRANCH   4   2
ATOM      1  O   UNL     1      -3.592  -3.298  25.299  0.00  0.00    -0.246 OA
ATOM      2  C   UNL     1      -3.665  -2.873  24.596  0.00  0.00    +0.365 C 
ATOM      3  O   UNL     1      -3.822  -3.268  23.890  0.00  0.00    -0.246 OA
ENDBRANCH   4   2
ENDBRANCH   5   4
BRANCH  10  11
ATOM     11  C   UNL     1      -3.395  -0.431  24.847  0.00  0.00    +0.019 C 
BRANCH  11  12
ATOM     12  C   UNL     1      -3.641   0.103  24.267  0.00  0.00    +0.072 C 
BRANCH  12  13
ATOM     13  N   UNL     1      -3.998   0.814  24.488  0.00  0.00    -0.270 NA
ATOM     14  C   UNL     1      -4.627   0.813  25.022  0.00  0.00    +0.094 C 
ATOM     15  C   UNL     1      -4.983   1.524  25.242  0.00  0.00    +0.109 C 
ATOM     16  N   UNL     1      -4.710   2.236  24.928  0.00  0.00    -0.290 N 
ATOM     17  C   UNL     1      -4.080   2.238  24.395  0.00  0.00    +0.109 C 
ATOM     18  C   UNL     1      -3.724   1.527  24.174  0.00  0.00    +0.094 C 
ATOM     19  C   UNL     1      -5.065   2.947  25.148  0.00  0.00    +0.132 A 
ATOM     20  N   UNL     1      -5.695   2.946  25.682  0.00  0.00    -0.229 NA
ATOM     21  C   UNL     1      -6.050   3.657  25.901  0.00  0.00    +0.100 A 
ATOM     22  C   UNL     1      -5.777   4.369  25.588  0.00  0.00    +0.021 A 
ATOM     23  C   UNL     1      -5.148   4.371  25.055  0.00  0.00    +0.004 A 
ATOM     24  C   UNL     1      -4.792   3.659  24.835  0.00  0.00    +0.034 A 
ENDBRANCH  12  13
ENDBRANCH  11  12
ENDBRANCH  10  11
TORSDOF 6
ENDMDL
