MODEL 1
REMARK VINA RESULT:     -14.9      0.000      0.000
REMARK  Name = 
REMARK  3 active torsions:
REMARK  status: ('A' for Active; 'I' for Inactive)
REMARK    1  A    between atoms: N_3  and  C_4
REMARK    2  A    between atoms: C_6  and  C_10
REMARK    3  A    between atoms: C_21  and  C_22
REMARK                            x       y       z     vdW  Elec       q    Type
REMARK                         _______ _______ _______ _____ _____    ______ ____
ROOT
ATOM      1  O   UNL     1      -2.688  -0.003  24.415  0.00  0.00    -0.250 OA
ATOM      2  C   UNL     1      -3.460  -0.141  24.158  0.00  0.00    +0.327 C 
ATOM      3  N   UNL     1      -3.929   0.488  23.903  0.00  0.00    -0.162 NA
ATOM     12  N   UNL     1      -3.764  -0.909  24.157  0.00  0.00    -0.262 N 
ATOM     13  C   UNL     1      -4.312  -1.530  24.047  0.00  0.00    +0.097 C 
ATOM     14  C   UNL     1      -3.761  -2.292  24.350  0.00  0.00    +0.043 C 
ATOM     15  C   UNL     1      -3.445  -3.012  24.563  0.00  0.00    +0.011 C 
ATOM     16  C   UNL     1      -3.240  -2.341  24.543  0.00  0.00    +0.058 C 
ATOM     17  C   UNL     1      -3.785  -1.615  24.247  0.00  0.00    +0.101 C 
ATOM     18  C   UNL     1      -2.518  -1.802  24.726  0.00  0.00    +0.041 A 
ATOM     19  C   UNL     1      -1.744  -1.843  25.008  0.00  0.00    +0.013 A 
ATOM     20  C   UNL     1      -1.293  -1.155  25.073  0.00  0.00    +0.006 A 
ATOM     21  C   UNL     1      -1.616  -0.427  24.857  0.00  0.00    +0.062 A 
ATOM     27  C   UNL     1      -2.390  -0.387  24.575  0.00  0.00    +0.261 A 
ATOM     28  O   UNL     1      -2.479   0.420  24.431  0.00  0.00    -0.267 OA
ATOM     29  N   UNL     1      -2.841  -1.075  24.509  0.00  0.00    -0.299 N 
ATOM     30  C   UNL     1      -3.012  -1.721  24.538  0.00  0.00    +0.110 C 
ENDROOT
BRANCH   3   4
ATOM      4  C   UNL     1      -3.626   1.255  23.905  0.00  0.00    +0.076 A 
ATOM      5  C   UNL     1      -3.789   1.762  24.536  0.00  0.00    +0.027 A 
ATOM      6  C   UNL     1      -3.486   2.529  24.536  0.00  0.00    +0.070 A 
ATOM      7  C   UNL     1      -3.019   2.790  23.907  0.00  0.00    +0.010 A 
ATOM      8  C   UNL     1      -2.857   2.283  23.278  0.00  0.00    +0.002 A 
ATOM      9  C   UNL     1      -3.159   1.516  23.276  0.00  0.00    +0.017 A 
BRANCH   6  10
ATOM     10  C   UNL     1      -3.649   3.036  25.167  0.00  0.00    +0.100 C 
ATOM     11  N   UNL     1      -3.812   3.543  25.797  0.00  0.00    -0.191 NA
ENDBRANCH   6  10
ENDBRANCH   3   4
BRANCH  21  22
ATOM     22  C   UNL     1      -1.165   0.260  24.922  0.00  0.00    +0.034 A 
ATOM     23  C   UNL     1      -1.134   0.759  25.579  0.00  0.00    +0.007 A 
ATOM     24  C   UNL     1      -0.616   1.376  25.407  0.00  0.00    +0.007 A 
ATOM     25  C   UNL     1      -0.324   1.259  24.643  0.00  0.00    +0.035 A 
ATOM     26  S   UNL     1      -0.664   0.569  24.344  0.00  0.00    -0.086 S 
ENDBRANCH  21  22
TORSDOF 3
ENDMDL
MODEL 2
REMARK VINA RESULT:     -14.7      1.086      2.467
REMARK  Name = 
REMARK  3 active torsions:
REMARK  status: ('A' for Active; 'I' for Inactive)
REMARK    1  A    between atoms: N_3  and  C_4
REMARK    2  A    between atoms: C_6  and  C_10
REMARK    3  A    between atoms: C_21  and  C_22
REMARK                            x       y       z     vdW  Elec       q    Type
REMARK                         _______ _______ _______ _____ _____    ______ ____
ROOT
ATOM      1  O   UNL     1      -2.311  -0.060  24.426  0.00  0.00    -0.250 OA
ATOM      2  C   UNL     1      -1.756  -0.647  24.596  0.00  0.00    +0.327 C 
ATOM      3  N   UNL     1      -0.962  -0.449  24.692  0.00  0.00    -0.162 NA
ATOM     12  N   UNL     1      -1.997  -1.433  24.670  0.00  0.00    -0.262 N 
ATOM     13  C   UNL     1      -1.940  -2.257  24.796  0.00  0.00    +0.097 C 
ATOM     14  C   UNL     1      -2.889  -2.508  24.683  0.00  0.00    +0.043 C 
ATOM     15  C   UNL     1      -3.616  -2.872  24.622  0.00  0.00    +0.011 C 
ATOM     16  C   UNL     1      -3.355  -2.222  24.570  0.00  0.00    +0.058 C 
ATOM     17  C   UNL     1      -2.434  -1.996  24.682  0.00  0.00    +0.101 C 
ATOM     18  C   UNL     1      -3.609  -1.355  24.407  0.00  0.00    +0.041 A 
ATOM     19  C   UNL     1      -4.280  -0.905  24.239  0.00  0.00    +0.013 A 
ATOM     20  C   UNL     1      -4.213  -0.089  24.133  0.00  0.00    +0.006 A 
ATOM     21  C   UNL     1      -3.476   0.276  24.197  0.00  0.00    +0.062 A 
ATOM     27  C   UNL     1      -2.806  -0.174  24.365  0.00  0.00    +0.261 A 
ATOM     28  O   UNL     1      -2.213   0.399  24.377  0.00  0.00    -0.267 OA
ATOM     29  N   UNL     1      -2.872  -0.989  24.471  0.00  0.00    -0.299 N 
ATOM     30  C   UNL     1      -3.146  -1.598  24.514  0.00  0.00    +0.110 C 
ENDROOT
BRANCH   3   4
ATOM      4  C   UNL     1      -0.720   0.337  24.618  0.00  0.00    +0.076 A 
ATOM      5  C   UNL     1      -0.643   0.810  25.291  0.00  0.00    +0.027 A 
ATOM      6  C   UNL     1      -0.402   1.595  25.216  0.00  0.00    +0.070 A 
ATOM      7  C   UNL     1      -0.238   1.908  24.470  0.00  0.00    +0.010 A 
ATOM      8  C   UNL     1      -0.315   1.435  23.799  0.00  0.00    +0.002 A 
ATOM      9  C   UNL     1      -0.556   0.650  23.872  0.00  0.00    +0.017 A 
BRANCH   6  10
ATOM     10  C   UNL     1      -0.325   2.068  25.888  0.00  0.00    +0.100 C 
ATOM     11  N   UNL     1      -0.248   2.541  26.559  0.00  0.00    -0.191 NA
ENDBRANCH   6  10
ENDBRANCH   3   4
BRANCH  21  22
ATOM     22  C   UNL     1      -3.410   1.091  24.091  0.00  0.00    +0.034 A 
ATOM     23  C   UNL     1      -3.202   1.475  23.391  0.00  0.00    +0.007 A 
ATOM     24  C   UNL     1      -3.204   2.287  23.533  0.00  0.00    +0.007 A 
ATOM     25  C   UNL     1      -3.414   2.406  24.323  0.00  0.00    +0.035 A 
ATOM     26  S   UNL     1      -3.541   1.668  24.667  0.00  0.00    -0.086 S 
ENDBRANCH  21  22
TORSDOF 3
ENDMDL
MODEL 3
REMARK VINA RESULT:     -14.3      1.848      4.619
REMARK  Name = 
REMARK  3 active torsions:
REMARK  status: ('A' for Active; 'I' for Inactive)
REMARK    1  A    between atoms: N_3  and  C_4
REMARK    2  A    between atoms: C_6  and  C_10
REMARK    3  A    between atoms: C_21  and  C_22
REMARK                            x       y       z     vdW  Elec       q    Type
REMARK                         _______ _______ _______ _____ _____    ______ ____
ROOT
ATOM      1  O   UNL     1      -3.113   2.309  24.888  0.00  0.00    -0.250 OA
ATOM      2  C   UNL     1      -2.319   2.150  24.724  0.00  0.00    +0.327 C 
ATOM      3  N   UNL     1      -2.091   1.395  24.483  0.00  0.00    -0.162 NA
ATOM     12  N   UNL     1      -1.754   2.746  24.801  0.00  0.00    -0.262 N 
ATOM     13  C   UNL     1      -1.005   3.117  24.788  0.00  0.00    +0.097 C 
ATOM     14  C   UNL     1      -1.265   4.026  25.075  0.00  0.00    +0.043 C 
ATOM     15  C   UNL     1      -1.314   4.808  25.296  0.00  0.00    +0.011 C 
ATOM     16  C   UNL     1      -1.750   4.265  25.214  0.00  0.00    +0.058 C 
ATOM     17  C   UNL     1      -1.483   3.391  24.935  0.00  0.00    +0.101 C 
ATOM     18  C   UNL     1      -2.637   4.035  25.286  0.00  0.00    +0.041 A 
ATOM     19  C   UNL     1      -3.368   4.359  25.486  0.00  0.00    +0.013 A 
ATOM     20  C   UNL     1      -4.047   3.891  25.461  0.00  0.00    +0.006 A 
ATOM     21  C   UNL     1      -3.994   3.099  25.237  0.00  0.00    +0.062 A 
ATOM     27  C   UNL     1      -3.263   2.774  25.037  0.00  0.00    +0.261 A 
ATOM     28  O   UNL     1      -3.464   1.996  24.856  0.00  0.00    -0.267 OA
ATOM     29  N   UNL     1      -2.584   3.242  25.062  0.00  0.00    -0.299 N 
ATOM     30  C   UNL     1      -2.190   3.776  25.148  0.00  0.00    +0.110 C 
ENDROOT
BRANCH   3   4
ATOM      4  C   UNL     1      -2.656   0.798  24.406  0.00  0.00    +0.076 A 
ATOM      5  C   UNL     1      -2.771   0.256  25.019  0.00  0.00    +0.027 A 
ATOM      6  C   UNL     1      -3.336  -0.340  24.941  0.00  0.00    +0.070 A 
ATOM      7  C   UNL     1      -3.786  -0.395  24.252  0.00  0.00    +0.010 A 
ATOM      8  C   UNL     1      -3.671   0.146  23.641  0.00  0.00    +0.002 A 
ATOM      9  C   UNL     1      -3.107   0.743  23.717  0.00  0.00    +0.017 A 
BRANCH   6  10
ATOM     10  C   UNL     1      -3.450  -0.881  25.554  0.00  0.00    +0.100 C 
ATOM     11  N   UNL     1      -3.563  -1.422  26.166  0.00  0.00    -0.191 NA
ENDBRANCH   6  10
ENDBRANCH   3   4
BRANCH  21  22
ATOM     22  C   UNL     1      -4.674   2.632  25.213  0.00  0.00    +0.034 A 
ATOM     23  C   UNL     1      -5.118   2.457  24.540  0.00  0.00    +0.007 A 
ATOM     24  C   UNL     1      -5.747   1.975  24.767  0.00  0.00    +0.007 A 
ATOM     25  C   UNL     1      -5.692   1.851  25.582  0.00  0.00    +0.035 A 
ATOM     26  S   UNL     1      -5.028   2.257  25.856  0.00  0.00    -0.086 S 
ENDBRANCH  21  22
TORSDOF 3
ENDMDL
MODEL 4
REMARK VINA RESULT:     -14.2      1.434      3.991
REMARK  Name = 
REMARK  3 active torsions:
REMARK  status: ('A' for Active; 'I' for Inactive)
REMARK    1  A    between atoms: N_3  and  C_4
REMARK    2  A    between atoms: C_6  and  C_10
REMARK    3  A    between atoms: C_21  and  C_22
REMARK                            x       y       z     vdW  Elec       q    Type
REMARK                         _______ _______ _______ _____ _____    ______ ____
ROOT
ATOM      1  O   UNL     1      -3.996   1.547  24.635  0.00  0.00    -0.250 OA
ATOM      2  C   UNL     1      -4.617   1.280  25.109  0.00  0.00    +0.327 C 
ATOM      3  N   UNL     1      -4.706   0.474  25.257  0.00  0.00    -0.162 NA
ATOM     12  N   UNL     1      -5.148   1.821  25.436  0.00  0.00    -0.262 N 
ATOM     13  C   UNL     1      -5.799   2.104  25.876  0.00  0.00    +0.097 C 
ATOM     14  C   UNL     1      -5.704   3.073  25.707  0.00  0.00    +0.043 C 
ATOM     15  C   UNL     1      -5.763   3.885  25.666  0.00  0.00    +0.011 C 
ATOM     16  C   UNL     1      -5.343   3.382  25.415  0.00  0.00    +0.058 C 
ATOM     17  C   UNL     1      -5.448   2.449  25.588  0.00  0.00    +0.101 C 
ATOM     18  C   UNL     1      -4.598   3.261  24.891  0.00  0.00    +0.041 A 
ATOM     19  C   UNL     1      -4.048   3.690  24.450  0.00  0.00    +0.013 A 
ATOM     20  C   UNL     1      -3.441   3.297  24.053  0.00  0.00    +0.006 A 
ATOM     21  C   UNL     1      -3.384   2.475  24.097  0.00  0.00    +0.062 A 
ATOM     27  C   UNL     1      -3.933   2.046  24.538  0.00  0.00    +0.261 A 
ATOM     28  O   UNL     1      -3.673   1.271  24.430  0.00  0.00    -0.267 OA
ATOM     29  N   UNL     1      -4.540   2.439  24.935  0.00  0.00    -0.299 N 
ATOM     30  C   UNL     1      -4.926   2.937  25.161  0.00  0.00    +0.110 C 
ENDROOT
BRANCH   3   4
ATOM      4  C   UNL     1      -4.174  -0.066  24.930  0.00  0.00    +0.076 A 
ATOM      5  C   UNL     1      -3.512  -0.306  25.360  0.00  0.00    +0.027 A 
ATOM      6  C   UNL     1      -2.981  -0.846  25.033  0.00  0.00    +0.070 A 
ATOM      7  C   UNL     1      -3.113  -1.147  24.276  0.00  0.00    +0.010 A 
ATOM      8  C   UNL     1      -3.775  -0.907  23.846  0.00  0.00    +0.002 A 
ATOM      9  C   UNL     1      -4.306  -0.368  24.173  0.00  0.00    +0.017 A 
BRANCH   6  10
ATOM     10  C   UNL     1      -2.319  -1.085  25.463  0.00  0.00    +0.100 C 
ATOM     11  N   UNL     1      -1.656  -1.324  25.893  0.00  0.00    -0.191 NA
ENDBRANCH   6  10
ENDBRANCH   3   4
BRANCH  21  22
ATOM     22  C   UNL     1      -2.777   2.082  23.700  0.00  0.00    +0.034 A 
ATOM     23  C   UNL     1      -2.826   1.748  22.947  0.00  0.00    +0.007 A 
ATOM     24  C   UNL     1      -2.095   1.414  22.767  0.00  0.00    +0.007 A 
ATOM     25  C   UNL     1      -1.591   1.543  23.409  0.00  0.00    +0.035 A 
ATOM     26  S   UNL     1      -2.013   1.956  23.985  0.00  0.00    -0.086 S 
ENDBRANCH  21  22
TORSDOF 3
ENDMDL
MODEL 5
REMARK VINA RESULT:     -14.1      1.098      3.669
REMARK  Name = 
REMARK  3 active torsions:
REMARK  status: ('A' for Active; 'I' for Inactive)
REMARK    1  A    between atoms: N_3  and  C_4
REMARK    2  A    between atoms: C_6  and  C_10
REMARK    3  A    between atoms: C_21  and  C_22
REMARK                            x       y       z     vdW  Elec       q    Type
REMARK                         _______ _______ _______ _____ _____    ______ ____
ROOT
ATOM      1  O   UNL     1      -3.072   0.836  24.755  0.00  0.00    -0.250 OA
ATOM      2  C   UNL     1      -3.889   0.951  24.788  0.00  0.00    +0.327 C 
ATOM      3  N   UNL     1      -4.387   0.323  24.981  0.00  0.00    -0.162 NA
ATOM     12  N   UNL     1      -4.207   1.696  24.628  0.00  0.00    -0.262 N 
ATOM     13  C   UNL     1      -4.785   2.290  24.524  0.00  0.00    +0.097 C 
ATOM     14  C   UNL     1      -4.200   3.051  24.292  0.00  0.00    +0.043 C 
ATOM     15  C   UNL     1      -3.863   3.765  24.090  0.00  0.00    +0.011 C 
ATOM     16  C   UNL     1      -3.648   3.113  24.235  0.00  0.00    +0.058 C 
ATOM     17  C   UNL     1      -4.227   2.387  24.458  0.00  0.00    +0.101 C 
ATOM     18  C   UNL     1      -2.886   2.604  24.303  0.00  0.00    +0.041 A 
ATOM     19  C   UNL     1      -2.067   2.663  24.227  0.00  0.00    +0.013 A 
ATOM     20  C   UNL     1      -1.592   2.001  24.355  0.00  0.00    +0.006 A 
ATOM     21  C   UNL     1      -1.937   1.279  24.559  0.00  0.00    +0.062 A 
ATOM     27  C   UNL     1      -2.756   1.220  24.636  0.00  0.00    +0.261 A 
ATOM     28  O   UNL     1      -2.852   0.427  24.839  0.00  0.00    -0.267 OA
ATOM     29  N   UNL     1      -3.231   1.882  24.508  0.00  0.00    -0.299 N 
ATOM     30  C   UNL     1      -3.409   2.511  24.366  0.00  0.00    +0.110 C 
ENDROOT
BRANCH   3   4
ATOM      4  C   UNL     1      -4.068  -0.422  25.141  0.00  0.00    +0.076 A 
ATOM      5  C   UNL     1      -4.066  -1.004  24.556  0.00  0.00    +0.027 A 
ATOM      6  C   UNL     1      -3.747  -1.748  24.717  0.00  0.00    +0.070 A 
ATOM      7  C   UNL     1      -3.431  -1.910  25.462  0.00  0.00    +0.010 A 
ATOM      8  C   UNL     1      -3.434  -1.328  26.046  0.00  0.00    +0.002 A 
ATOM      9  C   UNL     1      -3.752  -0.584  25.886  0.00  0.00    +0.017 A 
BRANCH   6  10
ATOM     10  C   UNL     1      -3.745  -2.330  24.132  0.00  0.00    +0.100 C 
ATOM     11  N   UNL     1      -3.743  -2.912  23.548  0.00  0.00    -0.191 NA
ENDBRANCH   6  10
ENDBRANCH   3   4
BRANCH  21  22
ATOM     22  C   UNL     1      -1.461   0.618  24.687  0.00  0.00    +0.034 A 
ATOM     23  C   UNL     1      -1.193   0.347  25.419  0.00  0.00    +0.007 A 
ATOM     24  C   UNL     1      -0.737  -0.327  25.291  0.00  0.00    +0.007 A 
ATOM     25  C   UNL     1      -0.721  -0.474  24.479  0.00  0.00    +0.035 A 
ATOM     26  S   UNL     1      -1.169   0.110  24.106  0.00  0.00    -0.086 S 
ENDBRANCH  21  22
TORSDOF 3
ENDMDL
MODEL 6
REMARK VINA RESULT:     -14.0      1.549      3.115
REMARK  Name = 
REMARK  3 active torsions:
REMARK  status: ('A' for Active; 'I' for Inactive)
REMARK    1  A    between atoms: N_3  and  C_4
REMARK    2  A    between atoms: C_6  and  C_10
REMARK    3  A    between atoms: C_21  and  C_22
REMARK                            x       y       z     vdW  Elec       q    Type
REMARK                         _______ _______ _______ _____ _____    ______ ____
ROOT
ATOM      1  O   UNL     1      -2.841   1.445  24.874  0.00  0.00    -0.250 OA
ATOM      2  C   UNL     1      -3.068   2.235  24.802  0.00  0.00    +0.327 C 
ATOM      3  N   UNL     1      -2.496   2.823  24.716  0.00  0.00    -0.162 NA
ATOM     12  N   UNL     1      -3.868   2.437  24.818  0.00  0.00    -0.262 N 
ATOM     13  C   UNL     1      -4.551   2.919  24.799  0.00  0.00    +0.097 C 
ATOM     14  C   UNL     1      -5.246   2.224  24.901  0.00  0.00    +0.043 C 
ATOM     15  C   UNL     1      -5.927   1.783  24.977  0.00  0.00    +0.011 C 
ATOM     16  C   UNL     1      -5.234   1.669  24.958  0.00  0.00    +0.058 C 
ATOM     17  C   UNL     1      -4.574   2.352  24.858  0.00  0.00    +0.101 C 
ATOM     18  C   UNL     1      -4.614   0.993  25.000  0.00  0.00    +0.041 A 
ATOM     19  C   UNL     1      -4.563   0.174  25.082  0.00  0.00    +0.013 A 
ATOM     20  C   UNL     1      -3.826  -0.195  25.087  0.00  0.00    +0.006 A 
ATOM     21  C   UNL     1      -3.138   0.255  25.009  0.00  0.00    +0.062 A 
ATOM     27  C   UNL     1      -3.189   1.074  24.927  0.00  0.00    +0.261 A 
ATOM     28  O   UNL     1      -2.395   1.290  24.870  0.00  0.00    -0.267 OA
ATOM     29  N   UNL     1      -3.926   1.443  24.922  0.00  0.00    -0.299 N 
ATOM     30  C   UNL     1      -4.590   1.524  24.944  0.00  0.00    +0.110 C 
ENDROOT
BRANCH   3   4
ATOM      4  C   UNL     1      -1.696   2.621  24.701  0.00  0.00    +0.076 A 
ATOM      5  C   UNL     1      -1.247   2.661  25.393  0.00  0.00    +0.027 A 
ATOM      6  C   UNL     1      -0.448   2.459  25.377  0.00  0.00    +0.070 A 
ATOM      7  C   UNL     1      -0.096   2.218  24.670  0.00  0.00    +0.010 A 
ATOM      8  C   UNL     1      -0.545   2.178  23.980  0.00  0.00    +0.002 A 
ATOM      9  C   UNL     1      -1.345   2.380  23.994  0.00  0.00    +0.017 A 
BRANCH   6  10
ATOM     10  C   UNL     1       0.001   2.499  26.069  0.00  0.00    +0.100 C 
ATOM     11  N   UNL     1       0.450   2.538  26.759  0.00  0.00    -0.191 NA
ENDBRANCH   6  10
ENDBRANCH   3   4
BRANCH  21  22
ATOM     22  C   UNL     1      -2.401  -0.115  25.015  0.00  0.00    +0.034 A 
ATOM     23  C   UNL     1      -1.935  -0.258  25.680  0.00  0.00    +0.007 A 
ATOM     24  C   UNL     1      -1.246  -0.638  25.433  0.00  0.00    +0.007 A 
ATOM     25  C   UNL     1      -1.287  -0.731  24.614  0.00  0.00    +0.035 A 
ATOM     26  S   UNL     1      -2.000  -0.408  24.356  0.00  0.00    -0.086 S 
ENDBRANCH  21  22
TORSDOF 3
ENDMDL
MODEL 7
REMARK VINA RESULT:     -13.5      1.880      3.924
REMARK  Name = 
REMARK  3 active torsions:
REMARK  status: ('A' for Active; 'I' for Inactive)
REMARK    1  A    between atoms: N_3  and  C_4
REMARK    2  A    between atoms: C_6  and  C_10
REMARK    3  A    between atoms: C_21  and  C_22
REMARK                            x       y       z     vdW  Elec       q    Type
REMARK                         _______ _______ _______ _____ _____    ______ ____
ROOT
ATOM      1  O   UNL     1      -2.709   2.370  24.988  0.00  0.00    -0.250 OA
ATOM      2  C   UNL     1      -3.342   1.934  24.686  0.00  0.00    +0.327 C 
ATOM      3  N   UNL     1      -3.203   1.226  24.287  0.00  0.00    -0.162 NA
ATOM     12  N   UNL     1      -4.115   2.208  24.784  0.00  0.00    -0.262 N 
ATOM     13  C   UNL     1      -4.948   2.225  24.729  0.00  0.00    +0.097 C 
ATOM     14  C   UNL     1      -5.129   3.071  25.205  0.00  0.00    +0.043 C 
ATOM     15  C   UNL     1      -5.440   3.733  25.564  0.00  0.00    +0.011 C 
ATOM     16  C   UNL     1      -4.806   3.453  25.452  0.00  0.00    +0.058 C 
ATOM     17  C   UNL     1      -4.648   2.633  24.989  0.00  0.00    +0.101 C 
ATOM     18  C   UNL     1      -3.914   3.605  25.610  0.00  0.00    +0.041 A 
ATOM     19  C   UNL     1      -3.410   4.153  25.966  0.00  0.00    +0.013 A 
ATOM     20  C   UNL     1      -2.595   4.029  25.958  0.00  0.00    +0.006 A 
ATOM     21  C   UNL     1      -2.283   3.357  25.594  0.00  0.00    +0.062 A 
ATOM     27  C   UNL     1      -2.786   2.810  25.237  0.00  0.00    +0.261 A 
ATOM     28  O   UNL     1      -2.254   2.247  24.953  0.00  0.00    -0.267 OA
ATOM     29  N   UNL     1      -3.602   2.934  25.245  0.00  0.00    -0.299 N 
ATOM     30  C   UNL     1      -4.194   3.221  25.365  0.00  0.00    +0.110 C 
ENDROOT
BRANCH   3   4
ATOM      4  C   UNL     1      -2.430   0.953  24.189  0.00  0.00    +0.076 A 
ATOM      5  C   UNL     1      -2.126   0.383  24.703  0.00  0.00    +0.027 A 
ATOM      6  C   UNL     1      -1.354   0.110  24.604  0.00  0.00    +0.070 A 
ATOM      7  C   UNL     1      -0.886   0.407  23.993  0.00  0.00    +0.010 A 
ATOM      8  C   UNL     1      -1.190   0.976  23.480  0.00  0.00    +0.002 A 
ATOM      9  C   UNL     1      -1.962   1.250  23.577  0.00  0.00    +0.017 A 
BRANCH   6  10
ATOM     10  C   UNL     1      -1.049  -0.460  25.118  0.00  0.00    +0.100 C 
ATOM     11  N   UNL     1      -0.746  -1.029  25.632  0.00  0.00    -0.191 NA
ENDBRANCH   6  10
ENDBRANCH   3   4
BRANCH  21  22
ATOM     22  C   UNL     1      -1.467   3.234  25.586  0.00  0.00    +0.034 A 
ATOM     23  C   UNL     1      -1.036   2.810  26.147  0.00  0.00    +0.007 A 
ATOM     24  C   UNL     1      -0.242   2.826  25.925  0.00  0.00    +0.007 A 
ATOM     25  C   UNL     1      -0.182   3.262  25.226  0.00  0.00    +0.035 A 
ATOM     26  S   UNL     1      -0.939   3.514  25.017  0.00  0.00    -0.086 S 
ENDBRANCH  21  22
TORSDOF 3
ENDMDL
