MODEL 1
REMARK VINA RESULT:      -9.1      0.000      0.000
REMARK  Name = 
REMARK  9 active torsions:
REMARK  status: ('A' for Active; 'I' for Inactive)
REMARK    1  A    between atoms: C_2  and  N_3
REMARK    2  A    between atoms: N_6  and  C_7
REMARK    3  A    between atoms: C_7  and  C_8
REMARK    4  A    between atoms: C_12  and  C_13
REMARK    5  A    between atoms: C_13  and  C_14
REMARK    6  A    between atoms: N_16  and  C_17
REMARK    7  A    between atoms: C_17  and  C_18
REMARK    8  A    between atoms: C_21  and  C_24
REMARK    9  A    between atoms: C_27  and  C_28
REMARK                            x       y       z     vdW  Elec       q    Type
REMARK                         _______ _______ _______ _____ _____    ______ ____
ROOT
ATOM      8  C   UNL     1      -0.513   0.391  24.266  0.00  0.00    +0.043 C 
ATOM      9  C   UNL     1      -0.644  -0.423  24.269  0.00  0.00    -0.033 C 
ATOM     10  C   UNL     1      -1.367  -0.723  24.532  0.00  0.00    -0.048 C 
ATOM     11  C   UNL     1      -1.498  -1.538  24.536  0.00  0.00    +0.026 C 
ATOM     12  C   UNL     1      -1.958  -0.209  24.790  0.00  0.00    +0.027 C 
ATOM     26  C   UNL     1      -1.826   0.606  24.786  0.00  0.00    +0.005 C 
ATOM     27  C   UNL     1      -1.104   0.906  24.524  0.00  0.00    +0.006 C 
ENDROOT
BRANCH  27  28
ATOM     28  C   UNL     1      -0.972   1.720  24.520  0.00  0.00    +0.000 C 
ATOM     29  C   UNL     1      -1.141   2.163  23.845  0.00  0.00    +0.000 C 
ATOM     30  C   UNL     1      -0.669   2.092  25.191  0.00  0.00    +0.000 C 
ENDBRANCH  27  28
BRANCH   8   7
ATOM      7  C   UNL     1       0.210   0.691  24.003  0.00  0.00    +0.121 C 
BRANCH   7   6
ATOM      3  N   UNL     1       1.898   0.061  22.772  0.00  0.00    -0.187 NA
ATOM      4  C   UNL     1       1.439   0.498  23.300  0.00  0.00    +0.339 C 
ATOM      5  O   UNL     1       1.747   1.176  23.651  0.00  0.00    -0.249 OA
ATOM      6  N   UNL     1       0.669   0.254  23.475  0.00  0.00    -0.187 NA
BRANCH   3   2
ATOM      1  C   UNL     1       3.049   0.012  21.926  0.00  0.00    +0.025 C 
ATOM      2  C   UNL     1       2.667   0.305  22.596  0.00  0.00    +0.117 C 
ENDBRANCH   3   2
ENDBRANCH   7   6
ENDBRANCH   8   7
BRANCH  12  13
ATOM     13  C   UNL     1      -2.680  -0.508  25.052  0.00  0.00    +0.091 C 
BRANCH  13  14
ATOM     14  C   UNL     1      -3.385  -0.246  24.712  0.00  0.00    +0.242 C 
ATOM     15  O   UNL     1      -3.636  -0.559  23.991  0.00  0.00    -0.273 OA
ATOM     16  N   UNL     1      -3.837   0.329  25.092  0.00  0.00    -0.201 NA
BRANCH  16  17
ATOM     17  C   UNL     1      -4.541   0.591  24.752  0.00  0.00    +0.141 C 
BRANCH  17  18
ATOM     18  C   UNL     1      -4.848   1.329  24.955  0.00  0.00    -0.001 A 
ATOM     19  C   UNL     1      -4.673   1.991  24.494  0.00  0.00    -0.002 A 
ATOM     20  C   UNL     1      -4.980   2.729  24.697  0.00  0.00    +0.010 A 
ATOM     21  C   UNL     1      -5.463   2.806  25.361  0.00  0.00    +0.068 A 
ATOM     22  C   UNL     1      -5.639   2.145  25.823  0.00  0.00    +0.010 A 
ATOM     23  C   UNL     1      -5.331   1.407  25.619  0.00  0.00    -0.002 A 
BRANCH  21  24
ATOM     24  C   UNL     1      -5.771   3.544  25.565  0.00  0.00    +0.100 C 
ATOM     25  N   UNL     1      -6.079   4.282  25.768  0.00  0.00    -0.191 NA
ENDBRANCH  21  24
ENDBRANCH  17  18
ENDBRANCH  16  17
ENDBRANCH  13  14
ENDBRANCH  12  13
TORSDOF 9
ENDMDL
MODEL 2
REMARK VINA RESULT:      -9.0      1.717      3.069
REMARK  Name = 
REMARK  9 active torsions:
REMARK  status: ('A' for Active; 'I' for Inactive)
REMARK    1  A    between atoms: C_2  and  N_3
REMARK    2  A    between atoms: N_6  and  C_7
REMARK    3  A    between atoms: C_7  and  C_8
REMARK    4  A    between atoms: C_12  and  C_13
REMARK    5  A    between atoms: C_13  and  C_14
REMARK    6  A    between atoms: N_16  and  C_17
REMARK    7  A    between atoms: C_17  and  C_18
REMARK    8  A    between atoms: C_21  and  C_24
REMARK    9  A    between atoms: C_27  and  C_28
REMARK                            x       y       z     vdW  Elec       q    Type
REMARK                         _______ _______ _______ _____ _____    ______ ____
ROOT
ATOM      8  C   UNL     1      -0.749   1.923  24.190  0.00  0.00    +0.043 C 
ATOM      9  C   UNL     1      -1.154   1.942  23.472  0.00  0.00    -0.033 C 
ATOM     10  C   UNL     1      -1.971   2.062  23.462  0.00  0.00    -0.048 C 
ATOM     11  C   UNL     1      -2.376   2.081  22.744  0.00  0.00    +0.026 C 
ATOM     12  C   UNL     1      -2.381   2.164  24.171  0.00  0.00    +0.027 C 
ATOM     26  C   UNL     1      -1.974   2.145  24.889  0.00  0.00    +0.005 C 
ATOM     27  C   UNL     1      -1.159   2.024  24.898  0.00  0.00    +0.006 C 
ENDROOT
BRANCH  27  28
ATOM     28  C   UNL     1      -0.752   2.005  25.616  0.00  0.00    +0.000 C 
ATOM     29  C   UNL     1      -0.641   1.289  26.009  0.00  0.00    +0.000 C 
ATOM     30  C   UNL     1      -0.457   2.703  25.941  0.00  0.00    +0.000 C 
ENDBRANCH  27  28
BRANCH   8   7
ATOM      7  C   UNL     1       0.068   1.802  24.199  0.00  0.00    +0.121 C 
BRANCH   7   6
ATOM      3  N   UNL     1       1.541   0.600  23.127  0.00  0.00    -0.187 NA
ATOM      4  C   UNL     1       1.209   1.204  23.580  0.00  0.00    +0.339 C 
ATOM      5  O   UNL     1       1.684   1.814  23.867  0.00  0.00    -0.249 OA
ATOM      6  N   UNL     1       0.400   1.198  23.746  0.00  0.00    -0.187 NA
BRANCH   3   2
ATOM      1  C   UNL     1       2.663   0.071  22.418  0.00  0.00    +0.025 C 
ATOM      2  C   UNL     1       2.350   0.607  22.961  0.00  0.00    +0.117 C 
ENDBRANCH   3   2
ENDBRANCH   7   6
ENDBRANCH   8   7
BRANCH  12  13
ATOM     13  C   UNL     1      -3.196   2.284  24.161  0.00  0.00    +0.091 C 
BRANCH  13  14
ATOM     14  C   UNL     1      -3.696   1.765  24.564  0.00  0.00    +0.242 C 
ATOM     15  O   UNL     1      -4.134   2.032  25.209  0.00  0.00    -0.273 OA
ATOM     16  N   UNL     1      -3.757   0.980  24.321  0.00  0.00    -0.201 NA
BRANCH  16  17
ATOM     17  C   UNL     1      -4.256   0.461  24.723  0.00  0.00    +0.141 C 
BRANCH  17  18
ATOM     18  C   UNL     1      -4.120  -0.352  24.691  0.00  0.00    -0.001 A 
ATOM     19  C   UNL     1      -3.789  -0.742  25.339  0.00  0.00    -0.002 A 
ATOM     20  C   UNL     1      -3.653  -1.555  25.306  0.00  0.00    +0.010 A 
ATOM     21  C   UNL     1      -3.848  -1.978  24.626  0.00  0.00    +0.068 A 
ATOM     22  C   UNL     1      -4.179  -1.590  23.978  0.00  0.00    +0.010 A 
ATOM     23  C   UNL     1      -4.315  -0.776  24.011  0.00  0.00    -0.002 A 
BRANCH  21  24
ATOM     24  C   UNL     1      -3.713  -2.791  24.592  0.00  0.00    +0.100 C 
ATOM     25  N   UNL     1      -3.578  -3.605  24.559  0.00  0.00    -0.191 NA
ENDBRANCH  21  24
ENDBRANCH  17  18
ENDBRANCH  16  17
ENDBRANCH  13  14
ENDBRANCH  12  13
TORSDOF 9
ENDMDL
MODEL 3
REMARK VINA RESULT:      -8.7      1.579      2.533
REMARK  Name = 
REMARK  9 active torsions:
REMARK  status: ('A' for Active; 'I' for Inactive)
REMARK    1  A    between atoms: C_2  and  N_3
REMARK    2  A    between atoms: N_6  and  C_7
REMARK    3  A    between atoms: C_7  and  C_8
REMARK    4  A    between atoms: C_12  and  C_13
REMARK    5  A    between atoms: C_13  and  C_14
REMARK    6  A    between atoms: N_16  and  C_17
REMARK    7  A    between atoms: C_17  and  C_18
REMARK    8  A    between atoms: C_21  and  C_24
REMARK    9  A    between atoms: C_27  and  C_28
REMARK                            x       y       z     vdW  Elec       q    Type
REMARK                         _______ _______ _______ _____ _____    ______ ____
ROOT
ATOM      8  C   UNL     1      -0.278   1.557  24.536  0.00  0.00    +0.043 C 
ATOM      9  C   UNL     1       0.059   2.310  24.559  0.00  0.00    -0.033 C 
ATOM     10  C   UNL     1      -0.315   2.916  24.977  0.00  0.00    -0.048 C 
ATOM     11  C   UNL     1       0.022   3.668  25.000  0.00  0.00    +0.026 C 
ATOM     12  C   UNL     1      -1.024   2.768  25.371  0.00  0.00    +0.027 C 
ATOM     26  C   UNL     1      -1.360   2.015  25.347  0.00  0.00    +0.005 C 
ATOM     27  C   UNL     1      -0.987   1.410  24.930  0.00  0.00    +0.006 C 
ENDROOT
BRANCH  27  28
ATOM     28  C   UNL     1      -1.323   0.656  24.906  0.00  0.00    +0.000 C 
ATOM     29  C   UNL     1      -1.171   0.117  25.510  0.00  0.00    +0.000 C 
ATOM     30  C   UNL     1      -1.811   0.443  24.276  0.00  0.00    +0.000 C 
ENDBRANCH  27  28
BRANCH   8   7
ATOM      7  C   UNL     1       0.096   0.951  24.118  0.00  0.00    +0.121 C 
BRANCH   7   6
ATOM      3  N   UNL     1       1.969   0.606  23.050  0.00  0.00    -0.187 NA
ATOM      4  C   UNL     1       1.199   0.501  23.327  0.00  0.00    +0.339 C 
ATOM      5  O   UNL     1       0.762  -0.156  23.092  0.00  0.00    -0.249 OA
ATOM      6  N   UNL     1       0.866   1.056  23.841  0.00  0.00    -0.187 NA
BRANCH   3   2
ATOM      1  C   UNL     1       3.081   0.141  22.283  0.00  0.00    +0.025 C 
ATOM      2  C   UNL     1       2.301   0.052  22.537  0.00  0.00    +0.117 C 
ENDBRANCH   3   2
ENDBRANCH   7   6
ENDBRANCH   8   7
BRANCH  12  13
ATOM     13  C   UNL     1      -1.397   3.374  25.788  0.00  0.00    +0.091 C 
BRANCH  13  14
ATOM     14  C   UNL     1      -2.081   3.723  25.486  0.00  0.00    +0.242 C 
ATOM     15  O   UNL     1      -2.024   4.386  24.997  0.00  0.00    -0.273 OA
ATOM     16  N   UNL     1      -2.821   3.412  25.672  0.00  0.00    -0.201 NA
BRANCH  16  17
ATOM     17  C   UNL     1      -3.504   3.761  25.370  0.00  0.00    +0.141 C 
BRANCH  17  18
ATOM     18  C   UNL     1      -4.194   3.316  25.285  0.00  0.00    -0.001 A 
ATOM     19  C   UNL     1      -4.370   2.960  24.562  0.00  0.00    -0.002 A 
ATOM     20  C   UNL     1      -5.059   2.515  24.478  0.00  0.00    +0.010 A 
ATOM     21  C   UNL     1      -5.573   2.427  25.118  0.00  0.00    +0.068 A 
ATOM     22  C   UNL     1      -5.398   2.782  25.841  0.00  0.00    +0.010 A 
ATOM     23  C   UNL     1      -4.708   3.227  25.925  0.00  0.00    -0.002 A 
BRANCH  21  24
ATOM     24  C   UNL     1      -6.263   1.982  25.034  0.00  0.00    +0.100 C 
ATOM     25  N   UNL     1      -6.953   1.537  24.951  0.00  0.00    -0.191 NA
ENDBRANCH  21  24
ENDBRANCH  17  18
ENDBRANCH  16  17
ENDBRANCH  13  14
ENDBRANCH  12  13
TORSDOF 9
ENDMDL
MODEL 4
REMARK VINA RESULT:      -8.3      1.598      6.450
REMARK  Name = 
REMARK  9 active torsions:
REMARK  status: ('A' for Active; 'I' for Inactive)
REMARK    1  A    between atoms: C_2  and  N_3
REMARK    2  A    between atoms: N_6  and  C_7
REMARK    3  A    between atoms: C_7  and  C_8
REMARK    4  A    between atoms: C_12  and  C_13
REMARK    5  A    between atoms: C_13  and  C_14
REMARK    6  A    between atoms: N_16  and  C_17
REMARK    7  A    between atoms: C_17  and  C_18
REMARK    8  A    between atoms: C_21  and  C_24
REMARK    9  A    between atoms: C_27  and  C_28
REMARK                            x       y       z     vdW  Elec       q    Type
REMARK                         _______ _______ _______ _____ _____    ______ ____
ROOT
ATOM      8  C   UNL     1      -1.564   1.705  24.761  0.00  0.00    +0.043 C 
ATOM      9  C   UNL     1      -1.858   0.952  24.594  0.00  0.00    -0.033 C 
ATOM     10  C   UNL     1      -1.346   0.359  24.333  0.00  0.00    -0.048 C 
ATOM     11  C   UNL     1      -1.639  -0.393  24.165  0.00  0.00    +0.026 C 
ATOM     12  C   UNL     1      -0.542   0.519  24.240  0.00  0.00    +0.027 C 
ATOM     26  C   UNL     1      -0.249   1.272  24.409  0.00  0.00    +0.005 C 
ATOM     27  C   UNL     1      -0.760   1.864  24.669  0.00  0.00    +0.006 C 
ENDROOT
BRANCH  27  28
ATOM     28  C   UNL     1      -0.468   2.617  24.837  0.00  0.00    +0.000 C 
ATOM     29  C   UNL     1      -0.461   3.198  24.252  0.00  0.00    +0.000 C 
ATOM     30  C   UNL     1      -0.182   2.789  25.592  0.00  0.00    +0.000 C 
ENDBRANCH  27  28
BRANCH   8   7
ATOM      7  C   UNL     1      -2.076   2.298  25.022  0.00  0.00    +0.121 C 
BRANCH   7   6
ATOM      3  N   UNL     1      -4.220   2.661  25.207  0.00  0.00    -0.187 NA
ATOM      4  C   UNL     1      -3.404   2.766  25.264  0.00  0.00    +0.339 C 
ATOM      5  O   UNL     1      -3.100   3.444  25.621  0.00  0.00    -0.249 OA
ATOM      6  N   UNL     1      -2.892   2.192  24.965  0.00  0.00    -0.187 NA
BRANCH   3   2
ATOM      1  C   UNL     1      -5.540   3.079  25.560  0.00  0.00    +0.025 C 
ATOM      2  C   UNL     1      -4.732   3.235  25.507  0.00  0.00    +0.117 C 
ENDBRANCH   3   2
ENDBRANCH   7   6
ENDBRANCH   8   7
BRANCH  12  13
ATOM     13  C   UNL     1      -0.031  -0.074  23.980  0.00  0.00    +0.091 C 
BRANCH  13  14
ATOM     14  C   UNL     1       0.464   0.062  23.334  0.00  0.00    +0.242 C 
ATOM     15  O   UNL     1       0.139   0.226  22.594  0.00  0.00    -0.273 OA
ATOM     16  N   UNL     1       1.282   0.032  23.428  0.00  0.00    -0.201 NA
BRANCH  16  17
ATOM     17  C   UNL     1       1.777   0.168  22.782  0.00  0.00    +0.141 C 
BRANCH  17  18
ATOM     18  C   UNL     1       2.596   0.172  22.882  0.00  0.00    -0.001 A 
ATOM     19  C   UNL     1       2.990  -0.521  23.093  0.00  0.00    -0.002 A 
ATOM     20  C   UNL     1       3.809  -0.517  23.193  0.00  0.00    +0.010 A 
ATOM     21  C   UNL     1       4.234   0.182  23.082  0.00  0.00    +0.068 A 
ATOM     22  C   UNL     1       3.840   0.875  22.871  0.00  0.00    +0.010 A 
ATOM     23  C   UNL     1       3.021   0.870  22.771  0.00  0.00    -0.002 A 
BRANCH  21  24
ATOM     24  C   UNL     1       5.052   0.187  23.181  0.00  0.00    +0.100 C 
ATOM     25  N   UNL     1       5.872   0.193  23.281  0.00  0.00    -0.191 NA
ENDBRANCH  21  24
ENDBRANCH  17  18
ENDBRANCH  16  17
ENDBRANCH  13  14
ENDBRANCH  12  13
TORSDOF 9
ENDMDL
MODEL 5
REMARK VINA RESULT:      -8.2      2.977      4.989
REMARK  Name = 
REMARK  9 active torsions:
REMARK  status: ('A' for Active; 'I' for Inactive)
REMARK    1  A    between atoms: C_2  and  N_3
REMARK    2  A    between atoms: N_6  and  C_7
REMARK    3  A    between atoms: C_7  and  C_8
REMARK    4  A    between atoms: C_12  and  C_13
REMARK    5  A    between atoms: C_13  and  C_14
REMARK    6  A    between atoms: N_16  and  C_17
REMARK    7  A    between atoms: C_17  and  C_18
REMARK    8  A    between atoms: C_21  and  C_24
REMARK    9  A    between atoms: C_27  and  C_28
REMARK                            x       y       z     vdW  Elec       q    Type
REMARK                         _______ _______ _______ _____ _____    ______ ____
ROOT
ATOM      8  C   UNL     1      -4.222   0.780  24.086  0.00  0.00    +0.043 C 
ATOM      9  C   UNL     1      -3.657   0.912  23.500  0.00  0.00    -0.033 C 
ATOM     10  C   UNL     1      -3.429   1.684  23.314  0.00  0.00    -0.048 C 
ATOM     11  C   UNL     1      -2.864   1.817  22.728  0.00  0.00    +0.026 C 
ATOM     12  C   UNL     1      -3.768   2.322  23.713  0.00  0.00    +0.027 C 
ATOM     26  C   UNL     1      -4.334   2.188  24.299  0.00  0.00    +0.005 C 
ATOM     27  C   UNL     1      -4.561   1.417  24.485  0.00  0.00    +0.006 C 
ENDROOT
BRANCH  27  28
ATOM     28  C   UNL     1      -5.127   1.283  25.070  0.00  0.00    +0.000 C 
ATOM     29  C   UNL     1      -4.891   1.103  25.839  0.00  0.00    +0.000 C 
ATOM     30  C   UNL     1      -5.930   1.330  24.886  0.00  0.00    +0.000 C 
ENDBRANCH  27  28
BRANCH   8   7
ATOM      7  C   UNL     1      -4.450   0.008  24.272  0.00  0.00    +0.121 C 
BRANCH   7   6
ATOM      3  N   UNL     1      -3.497  -1.954  24.354  0.00  0.00    -0.187 NA
ATOM      4  C   UNL     1      -4.070  -1.369  24.251  0.00  0.00    +0.339 C 
ATOM      5  O   UNL     1      -4.834  -1.577  24.024  0.00  0.00    -0.249 OA
ATOM      6  N   UNL     1      -3.877  -0.576  24.375  0.00  0.00    -0.187 NA
BRANCH   3   2
ATOM      1  C   UNL     1      -3.232  -3.341  24.573  0.00  0.00    +0.025 C 
ATOM      2  C   UNL     1      -3.690  -2.747  24.230  0.00  0.00    +0.117 C 
ENDBRANCH   3   2
ENDBRANCH   7   6
ENDBRANCH   8   7
BRANCH  12  13
ATOM     13  C   UNL     1      -3.541   3.092  23.527  0.00  0.00    +0.091 C 
BRANCH  13  14
ATOM     14  C   UNL     1      -3.193   3.571  24.102  0.00  0.00    +0.242 C 
ATOM     15  O   UNL     1      -3.624   4.187  24.441  0.00  0.00    -0.273 OA
ATOM     16  N   UNL     1      -2.415   3.433  24.337  0.00  0.00    -0.201 NA
BRANCH  16  17
ATOM     17  C   UNL     1      -2.067   3.912  24.912  0.00  0.00    +0.141 C 
BRANCH  17  18
ATOM     18  C   UNL     1      -1.436   3.627  25.360  0.00  0.00    -0.001 A 
ATOM     19  C   UNL     1      -1.569   3.328  26.118  0.00  0.00    -0.002 A 
ATOM     20  C   UNL     1      -0.938   3.044  26.566  0.00  0.00    +0.010 A 
ATOM     21  C   UNL     1      -0.173   3.057  26.257  0.00  0.00    +0.068 A 
ATOM     22  C   UNL     1      -0.039   3.355  25.500  0.00  0.00    +0.010 A 
ATOM     23  C   UNL     1      -0.671   3.640  25.051  0.00  0.00    -0.002 A 
BRANCH  21  24
ATOM     24  C   UNL     1       0.458   2.772  26.705  0.00  0.00    +0.100 C 
ATOM     25  N   UNL     1       1.091   2.488  27.153  0.00  0.00    -0.191 NA
ENDBRANCH  21  24
ENDBRANCH  17  18
ENDBRANCH  16  17
ENDBRANCH  13  14
ENDBRANCH  12  13
TORSDOF 9
ENDMDL
MODEL 6
REMARK VINA RESULT:      -8.1      2.840      4.718
REMARK  Name = 
REMARK  9 active torsions:
REMARK  status: ('A' for Active; 'I' for Inactive)
REMARK    1  A    between atoms: C_2  and  N_3
REMARK    2  A    between atoms: N_6  and  C_7
REMARK    3  A    between atoms: C_7  and  C_8
REMARK    4  A    between atoms: C_12  and  C_13
REMARK    5  A    between atoms: C_13  and  C_14
REMARK    6  A    between atoms: N_16  and  C_17
REMARK    7  A    between atoms: C_17  and  C_18
REMARK    8  A    between atoms: C_21  and  C_24
REMARK    9  A    between atoms: C_27  and  C_28
REMARK                            x       y       z     vdW  Elec       q    Type
REMARK                         _______ _______ _______ _____ _____    ______ ____
ROOT
ATOM      8  C   UNL     1      -4.297   0.625  24.313  0.00  0.00    +0.043 C 
ATOM      9  C   UNL     1      -4.968   0.643  24.791  0.00  0.00    -0.033 C 
ATOM     10  C   UNL     1      -5.245   1.364  25.085  0.00  0.00    -0.048 C 
ATOM     11  C   UNL     1      -5.917   1.382  25.564  0.00  0.00    +0.026 C 
ATOM     12  C   UNL     1      -4.851   2.064  24.899  0.00  0.00    +0.027 C 
ATOM     26  C   UNL     1      -4.179   2.044  24.420  0.00  0.00    +0.005 C 
ATOM     27  C   UNL     1      -3.903   1.325  24.127  0.00  0.00    +0.006 C 
ENDROOT
BRANCH  27  28
ATOM     28  C   UNL     1      -3.231   1.305  23.648  0.00  0.00    +0.000 C 
ATOM     29  C   UNL     1      -2.497   1.116  23.973  0.00  0.00    +0.000 C 
ATOM     30  C   UNL     1      -3.294   1.475  22.843  0.00  0.00    +0.000 C 
ENDBRANCH  27  28
BRANCH   8   7
ATOM      7  C   UNL     1      -4.020  -0.096  24.019  0.00  0.00    +0.121 C 
BRANCH   7   6
ATOM      3  N   UNL     1      -3.793  -2.145  24.735  0.00  0.00    -0.187 NA
ATOM      4  C   UNL     1      -3.894  -1.504  24.226  0.00  0.00    +0.339 C 
ATOM      5  O   UNL     1      -3.971  -1.630  23.415  0.00  0.00    -0.249 OA
ATOM      6  N   UNL     1      -3.919  -0.736  24.529  0.00  0.00    -0.187 NA
BRANCH   3   2
ATOM      1  C   UNL     1      -3.390  -3.510  24.856  0.00  0.00    +0.025 C 
ATOM      2  C   UNL     1      -3.769  -2.912  24.432  0.00  0.00    +0.117 C 
ENDBRANCH   3   2
ENDBRANCH   7   6
ENDBRANCH   8   7
BRANCH  12  13
ATOM     13  C   UNL     1      -5.128   2.783  25.193  0.00  0.00    +0.091 C 
BRANCH  13  14
ATOM     14  C   UNL     1      -4.653   3.236  25.692  0.00  0.00    +0.242 C 
ATOM     15  O   UNL     1      -4.771   3.210  26.508  0.00  0.00    -0.273 OA
ATOM     16  N   UNL     1      -4.060   3.715  25.377  0.00  0.00    -0.201 NA
BRANCH  16  17
ATOM     17  C   UNL     1      -3.586   4.167  25.876  0.00  0.00    +0.141 C 
BRANCH  17  18
ATOM     18  C   UNL     1      -2.840   4.416  25.625  0.00  0.00    -0.001 A 
ATOM     19  C   UNL     1      -2.162   4.033  25.899  0.00  0.00    -0.002 A 
ATOM     20  C   UNL     1      -1.418   4.282  25.648  0.00  0.00    +0.010 A 
ATOM     21  C   UNL     1      -1.349   4.914  25.122  0.00  0.00    +0.068 A 
ATOM     22  C   UNL     1      -2.026   5.297  24.848  0.00  0.00    +0.010 A 
ATOM     23  C   UNL     1      -2.772   5.048  25.099  0.00  0.00    -0.002 A 
BRANCH  21  24
ATOM     24  C   UNL     1      -0.605   5.163  24.870  0.00  0.00    +0.100 C 
ATOM     25  N   UNL     1       0.141   5.412  24.618  0.00  0.00    -0.191 NA
ENDBRANCH  21  24
ENDBRANCH  17  18
ENDBRANCH  16  17
ENDBRANCH  13  14
ENDBRANCH  12  13
TORSDOF 9
ENDMDL
MODEL 7
REMARK VINA RESULT:      -8.0      2.462      4.048
REMARK  Name = 
REMARK  9 active torsions:
REMARK  status: ('A' for Active; 'I' for Inactive)
REMARK    1  A    between atoms: C_2  and  N_3
REMARK    2  A    between atoms: N_6  and  C_7
REMARK    3  A    between atoms: C_7  and  C_8
REMARK    4  A    between atoms: C_12  and  C_13
REMARK    5  A    between atoms: C_13  and  C_14
REMARK    6  A    between atoms: N_16  and  C_17
REMARK    7  A    between atoms: C_17  and  C_18
REMARK    8  A    between atoms: C_21  and  C_24
REMARK    9  A    between atoms: C_27  and  C_28
REMARK                            x       y       z     vdW  Elec       q    Type
REMARK                         _______ _______ _______ _____ _____    ______ ____
ROOT
ATOM      8  C   UNL     1      -0.774   2.746  25.808  0.00  0.00    +0.043 C 
ATOM      9  C   UNL     1      -1.372   3.170  26.188  0.00  0.00    -0.033 C 
ATOM     10  C   UNL     1      -2.095   3.293  25.809  0.00  0.00    -0.048 C 
ATOM     11  C   UNL     1      -2.692   3.717  26.189  0.00  0.00    +0.026 C 
ATOM     12  C   UNL     1      -2.219   2.993  25.050  0.00  0.00    +0.027 C 
ATOM     26  C   UNL     1      -1.621   2.570  24.671  0.00  0.00    +0.005 C 
ATOM     27  C   UNL     1      -0.899   2.446  25.050  0.00  0.00    +0.006 C 
ENDROOT
BRANCH  27  28
ATOM     28  C   UNL     1      -0.301   2.023  24.671  0.00  0.00    +0.000 C 
ATOM     29  C   UNL     1       0.242   2.415  24.190  0.00  0.00    +0.000 C 
ATOM     30  C   UNL     1      -0.246   1.206  24.773  0.00  0.00    +0.000 C 
ENDBRANCH  27  28
BRANCH   8   7
ATOM      7  C   UNL     1      -0.051   2.623  26.187  0.00  0.00    +0.121 C 
BRANCH   7   6
ATOM      3  N   UNL     1       0.688   2.417  28.230  0.00  0.00    -0.187 NA
ATOM      4  C   UNL     1       0.670   2.571  27.420  0.00  0.00    +0.339 C 
ATOM      5  O   UNL     1       1.351   2.826  27.033  0.00  0.00    -0.249 OA
ATOM      6  N   UNL     1      -0.033   2.469  26.998  0.00  0.00    -0.187 NA
BRANCH   3   2
ATOM      1  C   UNL     1       1.398   2.409  29.470  0.00  0.00    +0.025 C 
ATOM      2  C   UNL     1       1.390   2.518  28.653  0.00  0.00    +0.117 C 
ENDBRANCH   3   2
ENDBRANCH   7   6
ENDBRANCH   8   7
BRANCH  12  13
ATOM     13  C   UNL     1      -2.941   3.117  24.672  0.00  0.00    +0.091 C 
BRANCH  13  14
ATOM     14  C   UNL     1      -3.263   2.527  24.192  0.00  0.00    +0.242 C 
ATOM     15  O   UNL     1      -3.246   2.609  23.372  0.00  0.00    -0.273 OA
ATOM     16  N   UNL     1      -3.601   1.857  24.533  0.00  0.00    -0.201 NA
BRANCH  16  17
ATOM     17  C   UNL     1      -3.922   1.268  24.053  0.00  0.00    +0.141 C 
BRANCH  17  18
ATOM     18  C   UNL     1      -3.864   0.476  24.277  0.00  0.00    -0.001 A 
ATOM     19  C   UNL     1      -4.084   0.243  25.038  0.00  0.00    -0.002 A 
ATOM     20  C   UNL     1      -4.026  -0.548  25.261  0.00  0.00    +0.010 A 
ATOM     21  C   UNL     1      -3.749  -1.109  24.723  0.00  0.00    +0.068 A 
ATOM     22  C   UNL     1      -3.529  -0.878  23.962  0.00  0.00    +0.010 A 
ATOM     23  C   UNL     1      -3.587  -0.085  23.739  0.00  0.00    -0.002 A 
BRANCH  21  24
ATOM     24  C   UNL     1      -3.691  -1.901  24.945  0.00  0.00    +0.100 C 
ATOM     25  N   UNL     1      -3.633  -2.694  25.167  0.00  0.00    -0.191 NA
ENDBRANCH  21  24
ENDBRANCH  17  18
ENDBRANCH  16  17
ENDBRANCH  13  14
ENDBRANCH  12  13
TORSDOF 9
ENDMDL
MODEL 8
REMARK VINA RESULT:      -7.9      1.957      5.231
REMARK  Name = 
REMARK  9 active torsions:
REMARK  status: ('A' for Active; 'I' for Inactive)
REMARK    1  A    between atoms: C_2  and  N_3
REMARK    2  A    between atoms: N_6  and  C_7
REMARK    3  A    between atoms: C_7  and  C_8
REMARK    4  A    between atoms: C_12  and  C_13
REMARK    5  A    between atoms: C_13  and  C_14
REMARK    6  A    between atoms: N_16  and  C_17
REMARK    7  A    between atoms: C_17  and  C_18
REMARK    8  A    between atoms: C_21  and  C_24
REMARK    9  A    between atoms: C_27  and  C_28
REMARK                            x       y       z     vdW  Elec       q    Type
REMARK                         _______ _______ _______ _____ _____    ______ ____
ROOT
ATOM      8  C   UNL     1      -2.337   2.549  24.295  0.00  0.00    +0.043 C 
ATOM      9  C   UNL     1      -1.890   2.668  24.978  0.00  0.00    -0.033 C 
ATOM     10  C   UNL     1      -1.184   2.254  25.087  0.00  0.00    -0.048 C 
ATOM     11  C   UNL     1      -0.738   2.374  25.770  0.00  0.00    +0.026 C 
ATOM     12  C   UNL     1      -0.926   1.721  24.513  0.00  0.00    +0.027 C 
ATOM     26  C   UNL     1      -1.373   1.603  23.830  0.00  0.00    +0.005 C 
ATOM     27  C   UNL     1      -2.078   2.016  23.721  0.00  0.00    +0.006 C 
ENDROOT
BRANCH  27  28
ATOM     28  C   UNL     1      -2.526   1.897  23.038  0.00  0.00    +0.000 C 
ATOM     29  C   UNL     1      -2.369   2.339  22.359  0.00  0.00    +0.000 C 
ATOM     30  C   UNL     1      -3.131   1.336  23.034  0.00  0.00    +0.000 C 
ENDBRANCH  27  28
BRANCH   8   7
ATOM      7  C   UNL     1      -3.043   2.963  24.186  0.00  0.00    +0.121 C 
BRANCH   7   6
ATOM      3  N   UNL     1      -4.728   3.640  25.396  0.00  0.00    -0.187 NA
ATOM      4  C   UNL     1      -4.182   3.588  24.780  0.00  0.00    +0.339 C 
ATOM      5  O   UNL     1      -4.227   4.110  24.144  0.00  0.00    -0.249 OA
ATOM      6  N   UNL     1      -3.589   3.014  24.802  0.00  0.00    -0.187 NA
BRANCH   3   2
ATOM      1  C   UNL     1      -6.029   4.091  25.781  0.00  0.00    +0.025 C 
ATOM      2  C   UNL     1      -5.321   4.214  25.374  0.00  0.00    +0.117 C 
ENDBRANCH   3   2
ENDBRANCH   7   6
ENDBRANCH   8   7
BRANCH  12  13
ATOM     13  C   UNL     1      -0.221   1.308  24.622  0.00  0.00    +0.091 C 
BRANCH  13  14
ATOM     14  C   UNL     1      -0.167   0.516  24.397  0.00  0.00    +0.242 C 
ATOM     15  O   UNL     1       0.264   0.307  23.725  0.00  0.00    -0.273 OA
ATOM     16  N   UNL     1      -0.544  -0.066  24.842  0.00  0.00    -0.201 NA
BRANCH  16  17
ATOM     17  C   UNL     1      -0.490  -0.857  24.617  0.00  0.00    +0.141 C 
BRANCH  17  18
ATOM     18  C   UNL     1      -1.149  -1.350  24.675  0.00  0.00    -0.001 A 
ATOM     19  C   UNL     1      -1.651  -1.294  25.328  0.00  0.00    -0.002 A 
ATOM     20  C   UNL     1      -2.310  -1.786  25.386  0.00  0.00    +0.010 A 
ATOM     21  C   UNL     1      -2.468  -2.335  24.791  0.00  0.00    +0.068 A 
ATOM     22  C   UNL     1      -1.967  -2.392  24.138  0.00  0.00    +0.010 A 
ATOM     23  C   UNL     1      -1.307  -1.899  24.080  0.00  0.00    -0.002 A 
BRANCH  21  24
ATOM     24  C   UNL     1      -3.127  -2.828  24.848  0.00  0.00    +0.100 C 
ATOM     25  N   UNL     1      -3.786  -3.322  24.904  0.00  0.00    -0.191 NA
ENDBRANCH  21  24
ENDBRANCH  17  18
ENDBRANCH  16  17
ENDBRANCH  13  14
ENDBRANCH  12  13
TORSDOF 9
ENDMDL
MODEL 9
REMARK VINA RESULT:      -7.7      1.295      6.172
REMARK  Name = 
REMARK  9 active torsions:
REMARK  status: ('A' for Active; 'I' for Inactive)
REMARK    1  A    between atoms: C_2  and  N_3
REMARK    2  A    between atoms: N_6  and  C_7
REMARK    3  A    between atoms: C_7  and  C_8
REMARK    4  A    between atoms: C_12  and  C_13
REMARK    5  A    between atoms: C_13  and  C_14
REMARK    6  A    between atoms: N_16  and  C_17
REMARK    7  A    between atoms: C_17  and  C_18
REMARK    8  A    between atoms: C_21  and  C_24
REMARK    9  A    between atoms: C_27  and  C_28
REMARK                            x       y       z     vdW  Elec       q    Type
REMARK                         _______ _______ _______ _____ _____    ______ ____
ROOT
ATOM      8  C   UNL     1      -3.127   0.433  24.950  0.00  0.00    +0.043 C 
ATOM      9  C   UNL     1      -2.518   0.895  25.259  0.00  0.00    -0.033 C 
ATOM     10  C   UNL     1      -1.744   0.608  25.261  0.00  0.00    -0.048 C 
ATOM     11  C   UNL     1      -1.134   1.069  25.570  0.00  0.00    +0.026 C 
ATOM     12  C   UNL     1      -1.580  -0.140  24.954  0.00  0.00    +0.027 C 
ATOM     26  C   UNL     1      -2.191  -0.601  24.644  0.00  0.00    +0.005 C 
ATOM     27  C   UNL     1      -2.964  -0.315  24.643  0.00  0.00    +0.006 C 
ENDROOT
BRANCH  27  28
ATOM     28  C   UNL     1      -3.574  -0.776  24.333  0.00  0.00    +0.000 C 
ATOM     29  C   UNL     1      -3.938  -1.348  24.802  0.00  0.00    +0.000 C 
ATOM     30  C   UNL     1      -3.821  -0.664  23.554  0.00  0.00    +0.000 C 
ENDBRANCH  27  28
BRANCH   8   7
ATOM      7  C   UNL     1      -3.902   0.720  24.949  0.00  0.00    +0.121 C 
BRANCH   7   6
ATOM      3  N   UNL     1      -4.887   2.652  25.187  0.00  0.00    -0.187 NA
ATOM      4  C   UNL     1      -4.749   1.840  25.212  0.00  0.00    +0.339 C 
ATOM      5  O   UNL     1      -5.320   1.334  25.525  0.00  0.00    -0.249 OA
ATOM      6  N   UNL     1      -4.039   1.533  24.923  0.00  0.00    -0.187 NA
BRANCH   3   2
ATOM      1  C   UNL     1      -5.674   3.771  25.601  0.00  0.00    +0.025 C 
ATOM      2  C   UNL     1      -5.597   2.959  25.475  0.00  0.00    +0.117 C 
ENDBRANCH   3   2
ENDBRANCH   7   6
ENDBRANCH   8   7
BRANCH  12  13
ATOM     13  C   UNL     1      -0.807  -0.426  24.955  0.00  0.00    +0.091 C 
BRANCH  13  14
ATOM     14  C   UNL     1      -0.439  -0.627  24.245  0.00  0.00    +0.242 C 
ATOM     15  O   UNL     1      -0.648  -1.324  23.855  0.00  0.00    -0.273 OA
ATOM     16  N   UNL     1       0.137  -0.133  23.924  0.00  0.00    -0.201 NA
BRANCH  16  17
ATOM     17  C   UNL     1       0.505  -0.334  23.214  0.00  0.00    +0.141 C 
BRANCH  17  18
ATOM     18  C   UNL     1       1.262  -0.052  23.046  0.00  0.00    -0.001 A 
ATOM     19  C   UNL     1       1.545   0.625  23.424  0.00  0.00    -0.002 A 
ATOM     20  C   UNL     1       2.302   0.906  23.256  0.00  0.00    +0.010 A 
ATOM     21  C   UNL     1       2.777   0.510  22.709  0.00  0.00    +0.068 A 
ATOM     22  C   UNL     1       2.495  -0.166  22.331  0.00  0.00    +0.010 A 
ATOM     23  C   UNL     1       1.737  -0.447  22.499  0.00  0.00    -0.002 A 
BRANCH  21  24
ATOM     24  C   UNL     1       3.534   0.791  22.541  0.00  0.00    +0.100 C 
ATOM     25  N   UNL     1       4.291   1.072  22.372  0.00  0.00    -0.191 NA
ENDBRANCH  21  24
ENDBRANCH  17  18
ENDBRANCH  16  17
ENDBRANCH  13  14
ENDBRANCH  12  13
TORSDOF 9
ENDMDL
MODEL 10
REMARK VINA RESULT:      -7.7      2.204      3.161
REMARK  Name = 
REMARK  9 active torsions:
REMARK  status: ('A' for Active; 'I' for Inactive)
REMARK    1  A    between atoms: C_2  and  N_3
REMARK    2  A    between atoms: N_6  and  C_7
REMARK    3  A    between atoms: C_7  and  C_8
REMARK    4  A    between atoms: C_12  and  C_13
REMARK    5  A    between atoms: C_13  and  C_14
REMARK    6  A    between atoms: N_16  and  C_17
REMARK    7  A    between atoms: C_17  and  C_18
REMARK    8  A    between atoms: C_21  and  C_24
REMARK    9  A    between atoms: C_27  and  C_28
REMARK                            x       y       z     vdW  Elec       q    Type
REMARK                         _______ _______ _______ _____ _____    ______ ____
ROOT
ATOM      8  C   UNL     1      -0.317   2.370  25.566  0.00  0.00    +0.043 C 
ATOM      9  C   UNL     1      -0.277   1.550  25.492  0.00  0.00    -0.033 C 
ATOM     10  C   UNL     1      -0.694   1.170  24.888  0.00  0.00    -0.048 C 
ATOM     11  C   UNL     1      -0.654   0.349  24.814  0.00  0.00    +0.026 C 
ATOM     12  C   UNL     1      -1.149   1.611  24.361  0.00  0.00    +0.027 C 
ATOM     26  C   UNL     1      -1.188   2.432  24.436  0.00  0.00    +0.005 C 
ATOM     27  C   UNL     1      -0.772   2.811  25.038  0.00  0.00    +0.006 C 
ENDROOT
BRANCH  27  28
ATOM     28  C   UNL     1      -0.811   3.632  25.113  0.00  0.00    +0.000 C 
ATOM     29  C   UNL     1      -1.379   3.976  25.602  0.00  0.00    +0.000 C 
ATOM     30  C   UNL     1      -0.281   4.109  24.698  0.00  0.00    +0.000 C 
ENDBRANCH  27  28
BRANCH   8   7
ATOM      7  C   UNL     1       0.100   2.750  26.169  0.00  0.00    +0.121 C 
BRANCH   7   6
ATOM      3  N   UNL     1       0.778   2.278  28.189  0.00  0.00    -0.187 NA
ATOM      4  C   UNL     1       0.747   2.614  27.436  0.00  0.00    +0.339 C 
ATOM      5  O   UNL     1       1.327   3.147  27.197  0.00  0.00    -0.249 OA
ATOM      6  N   UNL     1       0.132   2.415  26.922  0.00  0.00    -0.187 NA
BRANCH   3   2
ATOM      1  C   UNL     1       1.332   2.299  29.506  0.00  0.00    +0.025 C 
ATOM      2  C   UNL     1       1.393   2.478  28.703  0.00  0.00    +0.117 C 
ENDBRANCH   3   2
ENDBRANCH   7   6
ENDBRANCH   8   7
BRANCH  12  13
ATOM     13  C   UNL     1      -1.565   1.231  23.759  0.00  0.00    +0.091 C 
BRANCH  13  14
ATOM     14  C   UNL     1      -2.310   1.506  23.534  0.00  0.00    +0.242 C 
ATOM     15  O   UNL     1      -2.394   1.956  22.848  0.00  0.00    -0.273 OA
ATOM     16  N   UNL     1      -2.971   1.330  23.995  0.00  0.00    -0.201 NA
BRANCH  16  17
ATOM     17  C   UNL     1      -3.715   1.605  23.771  0.00  0.00    +0.141 C 
BRANCH  17  18
ATOM     18  C   UNL     1      -4.305   1.711  24.339  0.00  0.00    -0.001 A 
ATOM     19  C   UNL     1      -4.595   1.064  24.760  0.00  0.00    -0.002 A 
ATOM     20  C   UNL     1      -5.184   1.170  25.327  0.00  0.00    +0.010 A 
ATOM     21  C   UNL     1      -5.484   1.925  25.473  0.00  0.00    +0.068 A 
ATOM     22  C   UNL     1      -5.195   2.573  25.052  0.00  0.00    +0.010 A 
ATOM     23  C   UNL     1      -4.605   2.465  24.484  0.00  0.00    -0.002 A 
BRANCH  21  24
ATOM     24  C   UNL     1      -6.073   2.032  26.040  0.00  0.00    +0.100 C 
ATOM     25  N   UNL     1      -6.664   2.140  26.607  0.00  0.00    -0.191 NA
ENDBRANCH  21  24
ENDBRANCH  17  18
ENDBRANCH  16  17
ENDBRANCH  13  14
ENDBRANCH  12  13
TORSDOF 9
ENDMDL
