MODEL 1
REMARK VINA RESULT:      -9.0      0.000      0.000
REMARK  Name = 
REMARK  8 active torsions:
REMARK  status: ('A' for Active; 'I' for Inactive)
REMARK    1  A    between atoms: O_2  and  C_3
REMARK    2  A    between atoms: C_6  and  C_7
REMARK    3  A    between atoms: C_8  and  C_9
REMARK    4  A    between atoms: C_18  and  N_25
REMARK    5  A    between atoms: C_26  and  C_28
REMARK    6  A    between atoms: C_28  and  C_29
REMARK    7  A    between atoms: C_29  and  C_32
REMARK    8  A    between atoms: C_32  and  C_33
REMARK                            x       y       z     vdW  Elec       q    Type
REMARK                         _______ _______ _______ _____ _____    ______ ____
ROOT
ATOM      9  C   UNL     1      -2.838   0.943  24.700  0.00  0.00    +0.000 A 
ATOM     10  C   UNL     1      -2.950   0.257  25.144  0.00  0.00    +0.001 A 
ATOM     11  C   UNL     1      -2.375  -0.335  25.140  0.00  0.00    +0.017 A 
ATOM     12  C   UNL     1      -1.689  -0.241  24.692  0.00  0.00    +0.078 A 
ATOM     13  N   UNL     1      -1.190  -0.894  24.765  0.00  0.00    -0.178 NA
ATOM     14  C   UNL     1      -0.455  -1.022  24.412  0.00  0.00    +0.264 C 
ATOM     15  O   UNL     1      -0.089  -1.737  24.596  0.00  0.00    -0.271 OA
ATOM     16  C   UNL     1      -0.038  -0.528  23.899  0.00  0.00    +0.156 C 
ATOM     17  C   UNL     1       0.698  -0.721  23.581  0.00  0.00    +0.053 C 
ATOM     18  C   UNL     1       0.938  -0.097  23.098  0.00  0.00    +0.117 C 
ATOM     19  C   UNL     1       0.351   0.481  23.117  0.00  0.00    +0.116 C 
ATOM     20  N   UNL     1      -0.253   0.215  23.612  0.00  0.00    -0.268 N 
ATOM     21  C   UNL     1      -0.938   0.648  23.768  0.00  0.00    +0.251 C 
ATOM     22  O   UNL     1      -0.990   1.381  23.393  0.00  0.00    -0.270 OA
ATOM     23  C   UNL     1      -1.577   0.445  24.248  0.00  0.00    +0.069 A 
ATOM     24  C   UNL     1      -2.151   1.037  24.252  0.00  0.00    +0.006 A 
ENDROOT
BRANCH  18  25
ATOM     25  N   UNL     1       1.643  -0.058  22.670  0.00  0.00    -0.205 NA
ATOM     26  C   UNL     1       2.278   0.380  22.962  0.00  0.00    +0.241 C 
ATOM     27  O   UNL     1       2.209   0.779  23.681  0.00  0.00    -0.273 OA
BRANCH  26  28
ATOM     28  C   UNL     1       2.982   0.419  22.534  0.00  0.00    +0.087 C 
BRANCH  28  29
ATOM     29  C   UNL     1       3.697   0.548  22.928  0.00  0.00    +0.019 C 
ATOM     30  C   UNL     1       3.742  -0.255  23.110  0.00  0.00    +0.001 C 
ATOM     31  C   UNL     1       3.652   1.352  22.746  0.00  0.00    +0.001 C 
BRANCH  29  32
ATOM     32  C   UNL     1       4.410   0.677  23.321  0.00  0.00    +0.115 C 
BRANCH  32  33
ATOM     33  C   UNL     1       5.063   0.201  23.157  0.00  0.00    +0.365 C 
ATOM     34  O   UNL     1       5.383   0.184  22.397  0.00  0.00    -0.246 OA
ATOM     35  O   UNL     1       5.398  -0.260  23.755  0.00  0.00    -0.246 OA
ENDBRANCH  32  33
ENDBRANCH  29  32
ENDBRANCH  28  29
ENDBRANCH  26  28
ENDBRANCH  18  25
BRANCH   9   8
ATOM      7  C   UNL     1      -3.780   1.748  25.410  0.00  0.00    +0.000 C 
ATOM      8  C   UNL     1      -3.412   1.536  24.704  0.00  0.00    +0.000 C 
BRANCH   7   6
ATOM      3  C   UNL     1      -5.502   3.526  25.423  0.00  0.00    +0.139 A 
ATOM      4  C   UNL     1      -5.729   2.733  25.412  0.00  0.00    +0.037 A 
ATOM      5  C   UNL     1      -5.155   2.140  25.408  0.00  0.00    +0.003 A 
ATOM      6  C   UNL     1      -4.354   2.340  25.415  0.00  0.00    +0.000 A 
ATOM     36  C   UNL     1      -4.128   3.134  25.426  0.00  0.00    +0.003 A 
ATOM     37  C   UNL     1      -4.702   3.727  25.430  0.00  0.00    +0.037 A 
BRANCH   3   2
ATOM      1  C   UNL     1      -5.850   4.912  25.462  0.00  0.00    +0.252 C 
ATOM      2  O   UNL     1      -6.076   4.118  25.428  0.00  0.00    -0.471 OA
ENDBRANCH   3   2
ENDBRANCH   7   6
ENDBRANCH   9   8
TORSDOF 8
ENDMDL
MODEL 2
REMARK VINA RESULT:      -8.2      1.377      7.250
REMARK  Name = 
REMARK  8 active torsions:
REMARK  status: ('A' for Active; 'I' for Inactive)
REMARK    1  A    between atoms: O_2  and  C_3
REMARK    2  A    between atoms: C_6  and  C_7
REMARK    3  A    between atoms: C_8  and  C_9
REMARK    4  A    between atoms: C_18  and  N_25
REMARK    5  A    between atoms: C_26  and  C_28
REMARK    6  A    between atoms: C_28  and  C_29
REMARK    7  A    between atoms: C_29  and  C_32
REMARK    8  A    between atoms: C_32  and  C_33
REMARK                            x       y       z     vdW  Elec       q    Type
REMARK                         _______ _______ _______ _____ _____    ______ ____
ROOT
ATOM      9  C   UNL     1      -0.044  -0.712  24.121  0.00  0.00    +0.000 A 
ATOM     10  C   UNL     1      -0.166  -1.495  24.351  0.00  0.00    +0.001 A 
ATOM     11  C   UNL     1      -0.921  -1.750  24.561  0.00  0.00    +0.017 A 
ATOM     12  C   UNL     1      -1.555  -1.223  24.542  0.00  0.00    +0.078 A 
ATOM     13  N   UNL     1      -2.258  -1.588  24.772  0.00  0.00    -0.178 NA
ATOM     14  C   UNL     1      -3.013  -1.261  24.829  0.00  0.00    +0.264 C 
ATOM     15  O   UNL     1      -3.608  -1.775  25.078  0.00  0.00    -0.271 OA
ATOM     16  C   UNL     1      -3.252  -0.487  24.670  0.00  0.00    +0.156 C 
ATOM     17  C   UNL     1      -4.030  -0.226  24.750  0.00  0.00    +0.053 C 
ATOM     18  C   UNL     1      -4.054   0.572  24.544  0.00  0.00    +0.117 C 
ATOM     19  C   UNL     1      -3.290   0.805  24.337  0.00  0.00    +0.116 C 
ATOM     20  N   UNL     1      -2.794   0.150  24.416  0.00  0.00    -0.268 N 
ATOM     21  C   UNL     1      -1.985   0.171  24.257  0.00  0.00    +0.251 C 
ATOM     22  O   UNL     1      -1.688   0.899  24.008  0.00  0.00    -0.270 OA
ATOM     23  C   UNL     1      -1.434  -0.440  24.313  0.00  0.00    +0.069 A 
ATOM     24  C   UNL     1      -0.678  -0.185  24.102  0.00  0.00    +0.006 A 
ENDROOT
BRANCH  18  25
ATOM     25  N   UNL     1      -4.724   1.054  24.544  0.00  0.00    -0.205 NA
ATOM     26  C   UNL     1      -4.781   1.680  25.078  0.00  0.00    +0.241 C 
ATOM     27  O   UNL     1      -4.169   1.824  25.612  0.00  0.00    -0.273 OA
BRANCH  26  28
ATOM     28  C   UNL     1      -5.450   2.162  25.079  0.00  0.00    +0.087 C 
BRANCH  28  29
ATOM     29  C   UNL     1      -5.457   2.858  25.521  0.00  0.00    +0.019 C 
ATOM     30  C   UNL     1      -5.029   3.240  24.927  0.00  0.00    +0.001 C 
ATOM     31  C   UNL     1      -5.884   2.478  26.115  0.00  0.00    +0.001 C 
BRANCH  29  32
ATOM     32  C   UNL     1      -5.463   3.555  25.963  0.00  0.00    +0.115 C 
BRANCH  32  33
ATOM     33  C   UNL     1      -5.747   4.253  25.629  0.00  0.00    +0.365 C 
ATOM     34  O   UNL     1      -5.229   4.771  25.249  0.00  0.00    -0.246 OA
ATOM     35  O   UNL     1      -6.551   4.435  25.675  0.00  0.00    -0.246 OA
ENDBRANCH  32  33
ENDBRANCH  29  32
ENDBRANCH  28  29
ENDBRANCH  26  28
ENDBRANCH  18  25
BRANCH   9   8
ATOM      7  C   UNL     1       0.866  -0.224  23.134  0.00  0.00    +0.000 C 
ATOM      8  C   UNL     1       0.712  -0.456  23.910  0.00  0.00    +0.000 C 
BRANCH   7   6
ATOM      3  C   UNL     1       3.132   0.543  22.499  0.00  0.00    +0.139 A 
ATOM      4  C   UNL     1       2.758   0.865  23.160  0.00  0.00    +0.037 A 
ATOM      5  C   UNL     1       2.003   0.609  23.372  0.00  0.00    +0.003 A 
ATOM      6  C   UNL     1       1.621   0.032  22.923  0.00  0.00    +0.000 A 
ATOM     36  C   UNL     1       1.996  -0.290  22.261  0.00  0.00    +0.003 A 
ATOM     37  C   UNL     1       2.751  -0.034  22.050  0.00  0.00    +0.037 A 
BRANCH   3   2
ATOM      1  C   UNL     1       4.519   0.697  22.809  0.00  0.00    +0.252 C 
ATOM      2  O   UNL     1       3.887   0.799  22.288  0.00  0.00    -0.471 OA
ENDBRANCH   3   2
ENDBRANCH   7   6
ENDBRANCH   9   8
TORSDOF 8
ENDMDL
MODEL 3
REMARK VINA RESULT:      -6.2     15.768     17.865
REMARK  Name = 
REMARK  8 active torsions:
REMARK  status: ('A' for Active; 'I' for Inactive)
REMARK    1  A    between atoms: O_2  and  C_3
REMARK    2  A    between atoms: C_6  and  C_7
REMARK    3  A    between atoms: C_8  and  C_9
REMARK    4  A    between atoms: C_18  and  N_25
REMARK    5  A    between atoms: C_26  and  C_28
REMARK    6  A    between atoms: C_28  and  C_29
REMARK    7  A    between atoms: C_29  and  C_32
REMARK    8  A    between atoms: C_32  and  C_33
REMARK                            x       y       z     vdW  Elec       q    Type
REMARK                         _______ _______ _______ _____ _____    ______ ____
ROOT
ATOM      9  C   UNL     1      -5.506  -9.332  11.317  0.00  0.00    +0.000 A 
ATOM     10  C   UNL     1      -5.919  -9.321  10.604  0.00  0.00    +0.001 A 
ATOM     11  C   UNL     1      -6.740  -9.400  10.601  0.00  0.00    +0.017 A 
ATOM     12  C   UNL     1      -7.148  -9.491  11.312  0.00  0.00    +0.078 A 
ATOM     13  N   UNL     1      -7.960  -9.561  11.186  0.00  0.00    -0.178 NA
ATOM     14  C   UNL     1      -8.561  -9.659  11.744  0.00  0.00    +0.264 C 
ATOM     15  O   UNL     1      -9.326  -9.712  11.440  0.00  0.00    -0.271 OA
ATOM     16  C   UNL     1      -8.496  -9.712  12.565  0.00  0.00    +0.156 C 
ATOM     17  C   UNL     1      -9.144  -9.811  13.065  0.00  0.00    +0.053 C 
ATOM     18  C   UNL     1      -8.865  -9.840  13.841  0.00  0.00    +0.117 C 
ATOM     19  C   UNL     1      -8.044  -9.758  13.820  0.00  0.00    +0.116 C 
ATOM     20  N   UNL     1      -7.816  -9.679  13.030  0.00  0.00    -0.268 N 
ATOM     21  C   UNL     1      -7.033  -9.586  12.790  0.00  0.00    +0.251 C 
ATOM     22  O   UNL     1      -6.473  -9.575  13.396  0.00  0.00    -0.270 OA
ATOM     23  C   UNL     1      -6.735  -9.502  12.026  0.00  0.00    +0.069 A 
ATOM     24  C   UNL     1      -5.914  -9.423  12.029  0.00  0.00    +0.006 A 
ENDROOT
BRANCH  18  25
ATOM     25  N   UNL     1      -9.325  -9.933  14.519  0.00  0.00    -0.205 NA
ATOM     26  C   UNL     1      -9.601  -9.269  14.924  0.00  0.00    +0.241 C 
ATOM     27  O   UNL     1      -9.418  -8.513  14.651  0.00  0.00    -0.273 OA
BRANCH  26  28
ATOM     28  C   UNL     1     -10.061  -9.362  15.603  0.00  0.00    +0.087 C 
BRANCH  28  29
ATOM     29  C   UNL     1     -10.119  -8.747  16.149  0.00  0.00    +0.019 C 
ATOM     30  C   UNL     1      -9.518  -9.090  16.599  0.00  0.00    +0.001 C 
ATOM     31  C   UNL     1     -10.720  -8.403  15.701  0.00  0.00    +0.001 C 
BRANCH  29  32
ATOM     32  C   UNL     1     -10.176  -8.132  16.696  0.00  0.00    +0.115 C 
BRANCH  32  33
ATOM     33  C   UNL     1     -10.155  -8.294  17.504  0.00  0.00    +0.365 C 
ATOM     34  O   UNL     1      -9.570  -7.958  17.978  0.00  0.00    -0.246 OA
ATOM     35  O   UNL     1     -10.719  -8.794  17.840  0.00  0.00    -0.246 OA
ENDBRANCH  32  33
ENDBRANCH  29  32
ENDBRANCH  28  29
ENDBRANCH  26  28
ENDBRANCH  18  25
BRANCH   9   8
ATOM      7  C   UNL     1      -4.208  -9.892  11.111  0.00  0.00    +0.000 C 
ATOM      8  C   UNL     1      -4.684  -9.252  11.321  0.00  0.00    +0.000 C 
BRANCH   7   6
ATOM      3  C   UNL     1      -1.744  -9.656  11.121  0.00  0.00    +0.139 A 
ATOM      4  C   UNL     1      -2.194  -9.254  10.559  0.00  0.00    +0.037 A 
ATOM      5  C   UNL     1      -3.016  -9.332  10.555  0.00  0.00    +0.003 A 
ATOM      6  C   UNL     1      -3.387  -9.813  11.114  0.00  0.00    +0.000 A 
ATOM     36  C   UNL     1      -2.936 -10.215  11.677  0.00  0.00    +0.003 A 
ATOM     37  C   UNL     1      -2.115 -10.136  11.680  0.00  0.00    +0.037 A 
BRANCH   3   2
ATOM      1  C   UNL     1      -0.580  -8.831  11.210  0.00  0.00    +0.252 C 
ATOM      2  O   UNL     1      -0.923  -9.577  11.125  0.00  0.00    -0.471 OA
ENDBRANCH   3   2
ENDBRANCH   7   6
ENDBRANCH   9   8
TORSDOF 8
ENDMDL
MODEL 4
REMARK VINA RESULT:      -5.7     15.912     16.651
REMARK  Name = 
REMARK  8 active torsions:
REMARK  status: ('A' for Active; 'I' for Inactive)
REMARK    1  A    between atoms: O_2  and  C_3
REMARK    2  A    between atoms: C_6  and  C_7
REMARK    3  A    between atoms: C_8  and  C_9
REMARK    4  A    between atoms: C_18  and  N_25
REMARK    5  A    between atoms: C_26  and  C_28
REMARK    6  A    between atoms: C_28  and  C_29
REMARK    7  A    between atoms: C_29  and  C_32
REMARK    8  A    between atoms: C_32  and  C_33
REMARK                            x       y       z     vdW  Elec       q    Type
REMARK                         _______ _______ _______ _____ _____    ______ ____
ROOT
ATOM      9  C   UNL     1      -8.820  -9.901  13.872  0.00  0.00    +0.000 A 
ATOM     10  C   UNL     1      -9.350  -9.775  13.253  0.00  0.00    +0.001 A 
ATOM     11  C   UNL     1      -9.088  -9.814  12.472  0.00  0.00    +0.017 A 
ATOM     12  C   UNL     1      -8.297  -9.978  12.310  0.00  0.00    +0.078 A 
ATOM     13  N   UNL     1      -8.152  -9.991  11.498  0.00  0.00    -0.178 NA
ATOM     14  C   UNL     1      -7.441 -10.134  11.104  0.00  0.00    +0.264 C 
ATOM     15  O   UNL     1      -7.477 -10.108  10.280  0.00  0.00    -0.271 OA
ATOM     16  C   UNL     1      -6.699 -10.298  11.425  0.00  0.00    +0.156 C 
ATOM     17  C   UNL     1      -6.026 -10.431  10.968  0.00  0.00    +0.053 C 
ATOM     18  C   UNL     1      -5.395 -10.575  11.479  0.00  0.00    +0.117 C 
ATOM     19  C   UNL     1      -5.678 -10.532  12.253  0.00  0.00    +0.116 C 
ATOM     20  N   UNL     1      -6.485 -10.360  12.219  0.00  0.00    -0.268 N 
ATOM     21  C   UNL     1      -6.960 -10.274  12.888  0.00  0.00    +0.251 C 
ATOM     22  O   UNL     1      -6.578 -10.371  13.613  0.00  0.00    -0.270 OA
ATOM     23  C   UNL     1      -7.766 -10.104  12.928  0.00  0.00    +0.069 A 
ATOM     24  C   UNL     1      -8.027 -10.066  13.710  0.00  0.00    +0.006 A 
ENDROOT
BRANCH  18  25
ATOM     25  N   UNL     1      -4.617 -10.735  11.257  0.00  0.00    -0.205 NA
ATOM     26  C   UNL     1      -4.076 -10.117  11.175  0.00  0.00    +0.241 C 
ATOM     27  O   UNL     1      -4.314  -9.339  11.314  0.00  0.00    -0.273 OA
BRANCH  26  28
ATOM     28  C   UNL     1      -3.298 -10.277  10.953  0.00  0.00    +0.087 C 
BRANCH  28  29
ATOM     29  C   UNL     1      -2.698  -9.740  11.136  0.00  0.00    +0.019 C 
ATOM     30  C   UNL     1      -2.593 -10.108  11.868  0.00  0.00    +0.001 C 
ATOM     31  C   UNL     1      -2.803  -9.372  10.406  0.00  0.00    +0.001 C 
BRANCH  29  32
ATOM     32  C   UNL     1      -2.099  -9.204  11.321  0.00  0.00    +0.115 C 
BRANCH  32  33
ATOM     33  C   UNL     1      -1.312  -9.395  11.164  0.00  0.00    +0.365 C 
ATOM     34  O   UNL     1      -0.873  -8.937  10.638  0.00  0.00    -0.246 OA
ATOM     35  O   UNL     1      -0.963 -10.044  11.536  0.00  0.00    -0.246 OA
ENDBRANCH  32  33
ENDBRANCH  29  32
ENDBRANCH  28  29
ENDBRANCH  26  28
ENDBRANCH  18  25
BRANCH   9   8
ATOM      7  C   UNL     1      -9.317  -9.141  14.975  0.00  0.00    +0.000 C 
ATOM      8  C   UNL     1      -9.081  -9.863  14.655  0.00  0.00    +0.000 C 
BRANCH   7   6
ATOM      3  C   UNL     1     -10.099  -9.023  17.320  0.00  0.00    +0.139 A 
ATOM      4  C   UNL     1     -10.620  -9.250  16.723  0.00  0.00    +0.037 A 
ATOM      5  C   UNL     1     -10.360  -9.289  15.940  0.00  0.00    +0.003 A 
ATOM      6  C   UNL     1      -9.578  -9.102  15.756  0.00  0.00    +0.000 A 
ATOM     36  C   UNL     1      -9.056  -8.875  16.355  0.00  0.00    +0.003 A 
ATOM     37  C   UNL     1      -9.317  -8.836  17.136  0.00  0.00    +0.037 A 
BRANCH   3   2
ATOM      1  C   UNL     1     -10.252  -9.629  18.606  0.00  0.00    +0.252 C 
ATOM      2  O   UNL     1     -10.360  -8.984  18.101  0.00  0.00    -0.471 OA
ENDBRANCH   3   2
ENDBRANCH   7   6
ENDBRANCH   9   8
TORSDOF 8
ENDMDL
MODEL 5
REMARK VINA RESULT:      -5.4     15.771     16.859
REMARK  Name = 
REMARK  8 active torsions:
REMARK  status: ('A' for Active; 'I' for Inactive)
REMARK    1  A    between atoms: O_2  and  C_3
REMARK    2  A    between atoms: C_6  and  C_7
REMARK    3  A    between atoms: C_8  and  C_9
REMARK    4  A    between atoms: C_18  and  N_25
REMARK    5  A    between atoms: C_26  and  C_28
REMARK    6  A    between atoms: C_28  and  C_29
REMARK    7  A    between atoms: C_29  and  C_32
REMARK    8  A    between atoms: C_32  and  C_33
REMARK                            x       y       z     vdW  Elec       q    Type
REMARK                         _______ _______ _______ _____ _____    ______ ____
ROOT
ATOM      9  C   UNL     1      -8.220 -10.417  15.569  0.00  0.00    +0.000 A 
ATOM     10  C   UNL     1      -9.023 -10.237  15.524  0.00  0.00    +0.001 A 
ATOM     11  C   UNL     1      -9.363 -10.047  14.797  0.00  0.00    +0.017 A 
ATOM     12  C   UNL     1      -8.899 -10.036  14.115  0.00  0.00    +0.078 A 
ATOM     13  N   UNL     1      -9.344  -9.833  13.451  0.00  0.00    -0.178 NA
ATOM     14  C   UNL     1      -9.096  -9.759  12.668  0.00  0.00    +0.264 C 
ATOM     15  O   UNL     1      -9.679  -9.546  12.125  0.00  0.00    -0.271 OA
ATOM     16  C   UNL     1      -8.340  -9.870  12.355  0.00  0.00    +0.156 C 
ATOM     17  C   UNL     1      -8.161  -9.779  11.555  0.00  0.00    +0.053 C 
ATOM     18  C   UNL     1      -7.358  -9.934  11.454  0.00  0.00    +0.117 C 
ATOM     19  C   UNL     1      -7.040 -10.122  12.192  0.00  0.00    +0.116 C 
ATOM     20  N   UNL     1      -7.647 -10.082  12.749  0.00  0.00    -0.268 N 
ATOM     21  C   UNL     1      -7.538 -10.236  13.552  0.00  0.00    +0.251 C 
ATOM     22  O   UNL     1      -6.770 -10.437  13.777  0.00  0.00    -0.270 OA
ATOM     23  C   UNL     1      -8.095 -10.215  14.160  0.00  0.00    +0.069 A 
ATOM     24  C   UNL     1      -7.756 -10.406  14.887  0.00  0.00    +0.006 A 
ENDROOT
BRANCH  18  25
ATOM     25  N   UNL     1      -6.944  -9.907  10.741  0.00  0.00    -0.205 NA
ATOM     26  C   UNL     1      -6.553  -9.216  10.518  0.00  0.00    +0.241 C 
ATOM     27  O   UNL     1      -6.575  -8.552  11.007  0.00  0.00    -0.273 OA
BRANCH  26  28
ATOM     28  C   UNL     1      -6.139  -9.189   9.804  0.00  0.00    +0.087 C 
BRANCH  28  29
ATOM     29  C   UNL     1      -5.367  -8.898   9.787  0.00  0.00    +0.019 C 
ATOM     30  C   UNL     1      -5.640  -8.192   9.459  0.00  0.00    +0.001 C 
ATOM     31  C   UNL     1      -5.093  -9.604  10.115  0.00  0.00    +0.001 C 
BRANCH  29  32
ATOM     32  C   UNL     1      -4.595  -8.607   9.769  0.00  0.00    +0.115 C 
BRANCH  32  33
ATOM     33  C   UNL     1      -4.029  -8.967   9.290  0.00  0.00    +0.365 C 
ATOM     34  O   UNL     1      -4.107  -8.944   8.469  0.00  0.00    -0.246 OA
ATOM     35  O   UNL     1      -3.383  -9.351   9.631  0.00  0.00    -0.246 OA
ENDBRANCH  32  33
ENDBRANCH  29  32
ENDBRANCH  28  29
ENDBRANCH  26  28
ENDBRANCH  18  25
BRANCH   9   8
ATOM      7  C   UNL     1      -7.767 -10.021  16.865  0.00  0.00    +0.000 C 
ATOM      8  C   UNL     1      -7.879 -10.608  16.297  0.00  0.00    +0.000 C 
BRANCH   7   6
ATOM      3  C   UNL     1      -6.745 -10.591  19.046  0.00  0.00    +0.139 A 
ATOM      4  C   UNL     1      -7.565 -10.537  18.977  0.00  0.00    +0.037 A 
ATOM      5  C   UNL     1      -7.906 -10.347  18.250  0.00  0.00    +0.003 A 
ATOM      6  C   UNL     1      -7.427 -10.211  17.592  0.00  0.00    +0.000 A 
ATOM     36  C   UNL     1      -6.606 -10.265  17.662  0.00  0.00    +0.003 A 
ATOM     37  C   UNL     1      -6.266 -10.455  18.389  0.00  0.00    +0.037 A 
BRANCH   3   2
ATOM      1  C   UNL     1      -6.117 -10.183  20.263  0.00  0.00    +0.252 C 
ATOM      2  O   UNL     1      -6.405 -10.781  19.773  0.00  0.00    -0.471 OA
ENDBRANCH   3   2
ENDBRANCH   7   6
ENDBRANCH   9   8
TORSDOF 8
ENDMDL
