MODEL 1
REMARK VINA RESULT:      -8.1      0.000      0.000
REMARK  Name = 
REMARK  9 active torsions:
REMARK  status: ('A' for Active; 'I' for Inactive)
REMARK    1  A    between atoms: C_2  and  C_4
REMARK    2  A    between atoms: C_6  and  C_7
REMARK    3  A    between atoms: C_7  and  C_8
REMARK    4  A    between atoms: N_10  and  C_11
REMARK    5  A    between atoms: C_11  and  C_12
REMARK    6  A    between atoms: C_12  and  N_13
REMARK    7  A    between atoms: C_19  and  C_20
REMARK    8  A    between atoms: C_20  and  N_21
REMARK    9  A    between atoms: N_24  and  C_25
REMARK                            x       y       z     vdW  Elec       q    Type
REMARK                         _______ _______ _______ _____ _____    ______ ____
ROOT
ATOM      4  C   UNL     1      -0.437   1.405  24.391  0.00  0.00    +0.006 C 
ATOM      5  C   UNL     1       0.162   0.902  24.130  0.00  0.00    +0.005 C 
ATOM      6  C   UNL     1      -0.011   0.118  23.937  0.00  0.00    +0.027 C 
ATOM     16  C   UNL     1      -0.784  -0.162  24.006  0.00  0.00    -0.048 C 
ATOM     17  C   UNL     1      -0.958  -0.946  23.814  0.00  0.00    +0.026 C 
ATOM     18  C   UNL     1      -1.384   0.342  24.268  0.00  0.00    -0.033 C 
ATOM     19  C   UNL     1      -1.209   1.125  24.460  0.00  0.00    +0.043 C 
ENDROOT
BRANCH   4   2
ATOM      1  C   UNL     1      -0.342   2.780  24.014  0.00  0.00    +0.000 C 
ATOM      2  C   UNL     1      -0.263   2.187  24.583  0.00  0.00    +0.000 C 
ATOM      3  C   UNL     1      -0.011   2.379  25.346  0.00  0.00    +0.000 C 
ENDBRANCH   4   2
BRANCH   6   7
ATOM      7  C   UNL     1       0.588  -0.386  23.676  0.00  0.00    +0.091 C 
BRANCH   7   8
ATOM      8  C   UNL     1       1.134  -0.123  23.117  0.00  0.00    +0.242 C 
ATOM      9  O   UNL     1       0.881   0.089  22.361  0.00  0.00    -0.273 OA
ATOM     10  N   UNL     1       1.933  -0.071  23.313  0.00  0.00    -0.204 NA
BRANCH  10  11
ATOM     11  C   UNL     1       2.480   0.192  22.754  0.00  0.00    +0.132 C 
BRANCH  11  12
ATOM     12  C   UNL     1       3.258  -0.078  22.779  0.00  0.00    +0.096 C 
BRANCH  12  13
ATOM     13  N   UNL     1       3.883   0.461  22.771  0.00  0.00    -0.269 NA
ATOM     14  C   UNL     1       4.588   0.282  23.159  0.00  0.00    +0.090 C 
ATOM     15  C   UNL     1       3.802   1.180  22.374  0.00  0.00    +0.090 C 
ENDBRANCH  12  13
ENDBRANCH  11  12
ENDBRANCH  10  11
ENDBRANCH   7   8
ENDBRANCH   6   7
BRANCH  19  20
ATOM     20  C   UNL     1      -1.809   1.627  24.722  0.00  0.00    +0.121 C 
BRANCH  20  21
ATOM     21  N   UNL     1      -2.569   1.559  24.411  0.00  0.00    -0.187 NA
ATOM     22  C   UNL     1      -3.211   1.885  24.815  0.00  0.00    +0.339 C 
ATOM     23  O   UNL     1      -3.091   2.278  25.530  0.00  0.00    -0.249 OA
ATOM     24  N   UNL     1      -3.972   1.817  24.504  0.00  0.00    -0.189 NA
BRANCH  24  25
ATOM     25  C   UNL     1      -4.613   2.142  24.907  0.00  0.00    +0.097 C 
ATOM     26  C   UNL     1      -5.151   1.649  25.293  0.00  0.00    +0.022 C 
ATOM     27  C   UNL     1      -5.793   1.974  25.697  0.00  0.00    +0.002 C 
ATOM     28  C   UNL     1      -5.896   2.792  25.716  0.00  0.00    +0.000 C 
ATOM     29  C   UNL     1      -5.359   3.285  25.331  0.00  0.00    +0.002 C 
ATOM     30  C   UNL     1      -4.718   2.960  24.927  0.00  0.00    +0.022 C 
ENDBRANCH  24  25
ENDBRANCH  20  21
ENDBRANCH  19  20
TORSDOF 9
ENDMDL
MODEL 2
REMARK VINA RESULT:      -7.8      1.085      6.372
REMARK  Name = 
REMARK  9 active torsions:
REMARK  status: ('A' for Active; 'I' for Inactive)
REMARK    1  A    between atoms: C_2  and  C_4
REMARK    2  A    between atoms: C_6  and  C_7
REMARK    3  A    between atoms: C_7  and  C_8
REMARK    4  A    between atoms: N_10  and  C_11
REMARK    5  A    between atoms: C_11  and  C_12
REMARK    6  A    between atoms: C_12  and  N_13
REMARK    7  A    between atoms: C_19  and  C_20
REMARK    8  A    between atoms: C_20  and  N_21
REMARK    9  A    between atoms: N_24  and  C_25
REMARK                            x       y       z     vdW  Elec       q    Type
REMARK                         _______ _______ _______ _____ _____    ______ ____
ROOT
ATOM      4  C   UNL     1      -1.090   1.155  24.287  0.00  0.00    +0.006 C 
ATOM      5  C   UNL     1      -1.824   0.878  24.541  0.00  0.00    +0.005 C 
ATOM      6  C   UNL     1      -1.957   0.067  24.615  0.00  0.00    +0.027 C 
ATOM     16  C   UNL     1      -1.354  -0.467  24.436  0.00  0.00    -0.048 C 
ATOM     17  C   UNL     1      -1.486  -1.278  24.510  0.00  0.00    +0.026 C 
ATOM     18  C   UNL     1      -0.619  -0.190  24.182  0.00  0.00    -0.033 C 
ATOM     19  C   UNL     1      -0.488   0.621  24.108  0.00  0.00    +0.043 C 
ENDROOT
BRANCH   4   2
ATOM      1  C   UNL     1      -1.116   2.347  23.498  0.00  0.00    +0.000 C 
ATOM      2  C   UNL     1      -0.958   1.966  24.213  0.00  0.00    +0.000 C 
ATOM      3  C   UNL     1      -0.668   2.397  24.855  0.00  0.00    +0.000 C 
ENDBRANCH   4   2
BRANCH   6   7
ATOM      7  C   UNL     1      -2.691  -0.210  24.869  0.00  0.00    +0.091 C 
BRANCH   7   8
ATOM      8  C   UNL     1      -3.383   0.152  24.606  0.00  0.00    +0.242 C 
ATOM      9  O   UNL     1      -3.605   0.091  23.813  0.00  0.00    -0.273 OA
ATOM     10  N   UNL     1      -3.853   0.576  25.134  0.00  0.00    -0.204 NA
BRANCH  10  11
ATOM     11  C   UNL     1      -4.546   0.940  24.871  0.00  0.00    +0.132 C 
BRANCH  11  12
ATOM     12  C   UNL     1      -5.077   1.259  25.414  0.00  0.00    +0.096 C 
BRANCH  12  13
ATOM     13  N   UNL     1      -5.554   1.897  25.200  0.00  0.00    -0.269 NA
ATOM     14  C   UNL     1      -5.278   2.668  25.291  0.00  0.00    +0.090 C 
ATOM     15  C   UNL     1      -6.309   1.763  24.895  0.00  0.00    +0.090 C 
ENDBRANCH  12  13
ENDBRANCH  11  12
ENDBRANCH  10  11
ENDBRANCH   7   8
ENDBRANCH   6   7
BRANCH  19  20
ATOM     20  C   UNL     1       0.247   0.898  23.854  0.00  0.00    +0.121 C 
BRANCH  20  21
ATOM     21  N   UNL     1       0.728   0.420  23.386  0.00  0.00    -0.187 NA
ATOM     22  C   UNL     1       1.543   0.554  23.361  0.00  0.00    +0.339 C 
ATOM     23  O   UNL     1       1.874   1.166  23.804  0.00  0.00    -0.249 OA
ATOM     24  N   UNL     1       2.025   0.075  22.892  0.00  0.00    -0.189 NA
BRANCH  24  25
ATOM     25  C   UNL     1       2.838   0.209  22.867  0.00  0.00    +0.097 C 
ATOM     26  C   UNL     1       3.353  -0.307  23.254  0.00  0.00    +0.022 C 
ATOM     27  C   UNL     1       4.167  -0.173  23.229  0.00  0.00    +0.002 C 
ATOM     28  C   UNL     1       4.465   0.476  22.816  0.00  0.00    +0.000 C 
ATOM     29  C   UNL     1       3.951   0.992  22.429  0.00  0.00    +0.002 C 
ATOM     30  C   UNL     1       3.137   0.858  22.455  0.00  0.00    +0.022 C 
ENDBRANCH  24  25
ENDBRANCH  20  21
ENDBRANCH  19  20
TORSDOF 9
ENDMDL
MODEL 3
REMARK VINA RESULT:      -7.8      3.360      5.241
REMARK  Name = 
REMARK  9 active torsions:
REMARK  status: ('A' for Active; 'I' for Inactive)
REMARK    1  A    between atoms: C_2  and  C_4
REMARK    2  A    between atoms: C_6  and  C_7
REMARK    3  A    between atoms: C_7  and  C_8
REMARK    4  A    between atoms: N_10  and  C_11
REMARK    5  A    between atoms: C_11  and  C_12
REMARK    6  A    between atoms: C_12  and  N_13
REMARK    7  A    between atoms: C_19  and  C_20
REMARK    8  A    between atoms: C_20  and  N_21
REMARK    9  A    between atoms: N_24  and  C_25
REMARK                            x       y       z     vdW  Elec       q    Type
REMARK                         _______ _______ _______ _____ _____    ______ ____
ROOT
ATOM      4  C   UNL     1      -3.366   2.067  23.667  0.00  0.00    +0.006 C 
ATOM      5  C   UNL     1      -3.496   2.841  23.918  0.00  0.00    +0.005 C 
ATOM      6  C   UNL     1      -4.043   2.995  24.517  0.00  0.00    +0.027 C 
ATOM     16  C   UNL     1      -4.460   2.373  24.864  0.00  0.00    -0.048 C 
ATOM     17  C   UNL     1      -5.008   2.526  25.462  0.00  0.00    +0.026 C 
ATOM     18  C   UNL     1      -4.330   1.597  24.612  0.00  0.00    -0.033 C 
ATOM     19  C   UNL     1      -3.783   1.445  24.014  0.00  0.00    +0.043 C 
ENDROOT
BRANCH   4   2
ATOM      1  C   UNL     1      -2.041   1.717  23.261  0.00  0.00    +0.000 C 
ATOM      2  C   UNL     1      -2.820   1.914  23.069  0.00  0.00    +0.000 C 
ATOM      3  C   UNL     1      -3.051   1.957  22.278  0.00  0.00    +0.000 C 
ENDBRANCH   4   2
BRANCH   6   7
ATOM      7  C   UNL     1      -4.174   3.770  24.769  0.00  0.00    +0.091 C 
BRANCH   7   8
ATOM      8  C   UNL     1      -3.594   4.344  24.654  0.00  0.00    +0.242 C 
ATOM      9  O   UNL     1      -3.665   4.883  24.033  0.00  0.00    -0.273 OA
ATOM     10  N   UNL     1      -2.945   4.381  25.160  0.00  0.00    -0.204 NA
BRANCH  10  11
ATOM     11  C   UNL     1      -2.364   4.957  25.046  0.00  0.00    +0.132 C 
BRANCH  11  12
ATOM     12  C   UNL     1      -1.661   4.925  25.475  0.00  0.00    +0.096 C 
BRANCH  12  13
ATOM     13  N   UNL     1      -0.936   4.992  25.086  0.00  0.00    -0.269 NA
ATOM     14  C   UNL     1      -0.721   5.705  24.734  0.00  0.00    +0.090 C 
ATOM     15  C   UNL     1      -0.427   4.344  25.050  0.00  0.00    +0.090 C 
ENDBRANCH  12  13
ENDBRANCH  11  12
ENDBRANCH  10  11
ENDBRANCH   7   8
ENDBRANCH   6   7
BRANCH  19  20
ATOM     20  C   UNL     1      -3.653   0.670  23.763  0.00  0.00    +0.121 C 
BRANCH  20  21
ATOM     21  N   UNL     1      -4.114   0.056  24.064  0.00  0.00    -0.187 NA
ATOM     22  C   UNL     1      -3.799  -0.705  24.125  0.00  0.00    +0.339 C 
ATOM     23  O   UNL     1      -3.023  -0.850  23.884  0.00  0.00    -0.249 OA
ATOM     24  N   UNL     1      -4.259  -1.319  24.426  0.00  0.00    -0.189 NA
BRANCH  24  25
ATOM     25  C   UNL     1      -3.945  -2.078  24.487  0.00  0.00    +0.097 C 
ATOM     26  C   UNL     1      -3.495  -2.287  25.146  0.00  0.00    +0.022 C 
ATOM     27  C   UNL     1      -3.179  -3.047  25.207  0.00  0.00    +0.002 C 
ATOM     28  C   UNL     1      -3.315  -3.598  24.609  0.00  0.00    +0.000 C 
ATOM     29  C   UNL     1      -3.765  -3.390  23.950  0.00  0.00    +0.002 C 
ATOM     30  C   UNL     1      -4.079  -2.631  23.889  0.00  0.00    +0.022 C 
ENDBRANCH  24  25
ENDBRANCH  20  21
ENDBRANCH  19  20
TORSDOF 9
ENDMDL
MODEL 4
REMARK VINA RESULT:      -7.7      2.677      4.544
REMARK  Name = 
REMARK  9 active torsions:
REMARK  status: ('A' for Active; 'I' for Inactive)
REMARK    1  A    between atoms: C_2  and  C_4
REMARK    2  A    between atoms: C_6  and  C_7
REMARK    3  A    between atoms: C_7  and  C_8
REMARK    4  A    between atoms: N_10  and  C_11
REMARK    5  A    between atoms: C_11  and  C_12
REMARK    6  A    between atoms: C_12  and  N_13
REMARK    7  A    between atoms: C_19  and  C_20
REMARK    8  A    between atoms: C_20  and  N_21
REMARK    9  A    between atoms: N_24  and  C_25
REMARK                            x       y       z     vdW  Elec       q    Type
REMARK                         _______ _______ _______ _____ _____    ______ ____
ROOT
ATOM      4  C   UNL     1      -0.290  -0.005  24.160  0.00  0.00    +0.006 C 
ATOM      5  C   UNL     1      -0.466  -0.789  24.343  0.00  0.00    +0.005 C 
ATOM      6  C   UNL     1      -0.820  -0.975  25.065  0.00  0.00    +0.027 C 
ATOM     16  C   UNL     1      -0.999  -0.376  25.603  0.00  0.00    -0.048 C 
ATOM     17  C   UNL     1      -1.353  -0.561  26.325  0.00  0.00    +0.026 C 
ATOM     18  C   UNL     1      -0.823   0.410  25.419  0.00  0.00    -0.033 C 
ATOM     19  C   UNL     1      -0.468   0.594  24.698  0.00  0.00    +0.043 C 
ENDROOT
BRANCH   4   2
ATOM      1  C   UNL     1       0.886   0.159  23.364  0.00  0.00    +0.000 C 
ATOM      2  C   UNL     1       0.064   0.180  23.439  0.00  0.00    +0.000 C 
ATOM      3  C   UNL     1      -0.403   0.388  22.790  0.00  0.00    +0.000 C 
ENDBRANCH   4   2
BRANCH   6   7
ATOM      7  C   UNL     1      -0.996  -1.760  25.249  0.00  0.00    +0.091 C 
BRANCH   7   8
ATOM      8  C   UNL     1      -1.506  -2.193  24.767  0.00  0.00    +0.242 C 
ATOM      9  O   UNL     1      -1.200  -2.673  24.169  0.00  0.00    -0.273 OA
ATOM     10  N   UNL     1      -2.321  -2.147  24.882  0.00  0.00    -0.204 NA
BRANCH  10  11
ATOM     11  C   UNL     1      -2.831  -2.581  24.399  0.00  0.00    +0.132 C 
BRANCH  11  12
ATOM     12  C   UNL     1      -3.638  -2.601  24.565  0.00  0.00    +0.096 C 
BRANCH  12  13
ATOM     13  N   UNL     1      -4.185  -2.386  23.985  0.00  0.00    -0.269 NA
ATOM     14  C   UNL     1      -4.494  -2.957  23.477  0.00  0.00    +0.090 C 
ATOM     15  C   UNL     1      -4.422  -1.599  23.915  0.00  0.00    +0.090 C 
ENDBRANCH  12  13
ENDBRANCH  11  12
ENDBRANCH  10  11
ENDBRANCH   7   8
ENDBRANCH   6   7
BRANCH  19  20
ATOM     20  C   UNL     1      -0.293   1.379  24.515  0.00  0.00    +0.121 C 
BRANCH  20  21
ATOM     21  N   UNL     1      -0.330   1.958  25.100  0.00  0.00    -0.187 NA
ATOM     22  C   UNL     1      -0.634   2.705  24.924  0.00  0.00    +0.339 C 
ATOM     23  O   UNL     1      -0.900   2.872  24.161  0.00  0.00    -0.249 OA
ATOM     24  N   UNL     1      -0.671   3.284  25.510  0.00  0.00    -0.189 NA
BRANCH  24  25
ATOM     25  C   UNL     1      -0.975   4.030  25.333  0.00  0.00    +0.097 C 
ATOM     26  C   UNL     1      -0.500   4.589  24.956  0.00  0.00    +0.022 C 
ATOM     27  C   UNL     1      -0.803   5.337  24.779  0.00  0.00    +0.002 C 
ATOM     28  C   UNL     1      -1.581   5.523  24.980  0.00  0.00    +0.000 C 
ATOM     29  C   UNL     1      -2.056   4.964  25.357  0.00  0.00    +0.002 C 
ATOM     30  C   UNL     1      -1.753   4.218  25.534  0.00  0.00    +0.022 C 
ENDBRANCH  24  25
ENDBRANCH  20  21
ENDBRANCH  19  20
TORSDOF 9
ENDMDL
MODEL 5
REMARK VINA RESULT:      -7.1      1.150      6.542
REMARK  Name = 
REMARK  9 active torsions:
REMARK  status: ('A' for Active; 'I' for Inactive)
REMARK    1  A    between atoms: C_2  and  C_4
REMARK    2  A    between atoms: C_6  and  C_7
REMARK    3  A    between atoms: C_7  and  C_8
REMARK    4  A    between atoms: N_10  and  C_11
REMARK    5  A    between atoms: C_11  and  C_12
REMARK    6  A    between atoms: C_12  and  N_13
REMARK    7  A    between atoms: C_19  and  C_20
REMARK    8  A    between atoms: C_20  and  N_21
REMARK    9  A    between atoms: N_24  and  C_25
REMARK                            x       y       z     vdW  Elec       q    Type
REMARK                         _______ _______ _______ _____ _____    ______ ____
ROOT
ATOM      4  C   UNL     1      -1.328   1.007  24.466  0.00  0.00    +0.006 C 
ATOM      5  C   UNL     1      -2.123   1.179  24.336  0.00  0.00    +0.005 C 
ATOM      6  C   UNL     1      -2.379   1.416  23.588  0.00  0.00    +0.027 C 
ATOM     16  C   UNL     1      -1.837   1.481  22.970  0.00  0.00    -0.048 C 
ATOM     17  C   UNL     1      -2.091   1.718  22.221  0.00  0.00    +0.026 C 
ATOM     18  C   UNL     1      -1.040   1.309  23.099  0.00  0.00    -0.033 C 
ATOM     19  C   UNL     1      -0.786   1.072  23.847  0.00  0.00    +0.043 C 
ENDROOT
BRANCH   4   2
ATOM      1  C   UNL     1      -0.770   1.327  25.742  0.00  0.00    +0.000 C 
ATOM      2  C   UNL     1      -1.073   0.771  25.213  0.00  0.00    +0.000 C 
ATOM      3  C   UNL     1      -1.121  -0.024  25.433  0.00  0.00    +0.000 C 
ENDBRANCH   4   2
BRANCH   6   7
ATOM      7  C   UNL     1      -3.175   1.588  23.458  0.00  0.00    +0.091 C 
BRANCH   7   8
ATOM      8  C   UNL     1      -3.570   2.116  23.953  0.00  0.00    +0.242 C 
ATOM      9  O   UNL     1      -3.262   2.870  24.080  0.00  0.00    -0.273 OA
ATOM     10  N   UNL     1      -4.272   1.890  24.321  0.00  0.00    -0.204 NA
BRANCH  10  11
ATOM     11  C   UNL     1      -4.668   2.418  24.816  0.00  0.00    +0.132 C 
BRANCH  11  12
ATOM     12  C   UNL     1      -5.461   2.293  25.004  0.00  0.00    +0.096 C 
BRANCH  12  13
ATOM     13  N   UNL     1      -5.785   2.637  25.681  0.00  0.00    -0.269 NA
ATOM     14  C   UNL     1      -6.075   2.160  26.287  0.00  0.00    +0.090 C 
ATOM     15  C   UNL     1      -5.818   3.458  25.750  0.00  0.00    +0.090 C 
ENDBRANCH  12  13
ENDBRANCH  11  12
ENDBRANCH  10  11
ENDBRANCH   7   8
ENDBRANCH   6   7
BRANCH  19  20
ATOM     20  C   UNL     1       0.011   0.901  23.976  0.00  0.00    +0.121 C 
BRANCH  20  21
ATOM     21  N   UNL     1       0.461   0.558  23.377  0.00  0.00    -0.187 NA
ATOM     22  C   UNL     1       1.285   0.607  23.400  0.00  0.00    +0.339 C 
ATOM     23  O   UNL     1       1.657   1.000  24.023  0.00  0.00    -0.249 OA
ATOM     24  N   UNL     1       1.736   0.264  22.801  0.00  0.00    -0.189 NA
BRANCH  24  25
ATOM     25  C   UNL     1       2.558   0.313  22.824  0.00  0.00    +0.097 C 
ATOM     26  C   UNL     1       2.935   1.018  22.620  0.00  0.00    +0.022 C 
ATOM     27  C   UNL     1       3.758   1.069  22.643  0.00  0.00    +0.002 C 
ATOM     28  C   UNL     1       4.205   0.413  22.870  0.00  0.00    +0.000 C 
ATOM     29  C   UNL     1       3.828  -0.292  23.074  0.00  0.00    +0.002 C 
ATOM     30  C   UNL     1       3.006  -0.342  23.051  0.00  0.00    +0.022 C 
ENDBRANCH  24  25
ENDBRANCH  20  21
ENDBRANCH  19  20
TORSDOF 9
ENDMDL
MODEL 6
REMARK VINA RESULT:      -7.0      1.549      2.578
REMARK  Name = 
REMARK  9 active torsions:
REMARK  status: ('A' for Active; 'I' for Inactive)
REMARK    1  A    between atoms: C_2  and  C_4
REMARK    2  A    between atoms: C_6  and  C_7
REMARK    3  A    between atoms: C_7  and  C_8
REMARK    4  A    between atoms: N_10  and  C_11
REMARK    5  A    between atoms: C_11  and  C_12
REMARK    6  A    between atoms: C_12  and  N_13
REMARK    7  A    between atoms: C_19  and  C_20
REMARK    8  A    between atoms: C_20  and  N_21
REMARK    9  A    between atoms: N_24  and  C_25
REMARK                            x       y       z     vdW  Elec       q    Type
REMARK                         _______ _______ _______ _____ _____    ______ ____
ROOT
ATOM      4  C   UNL     1      -2.739  -1.152  24.791  0.00  0.00    +0.006 C 
ATOM      5  C   UNL     1      -1.937  -1.343  24.793  0.00  0.00    +0.005 C 
ATOM      6  C   UNL     1      -1.378  -0.778  25.013  0.00  0.00    +0.027 C 
ATOM     16  C   UNL     1      -1.622  -0.020  25.231  0.00  0.00    -0.048 C 
ATOM     17  C   UNL     1      -1.063   0.546  25.451  0.00  0.00    +0.026 C 
ATOM     18  C   UNL     1      -2.425   0.172  25.230  0.00  0.00    -0.033 C 
ATOM     19  C   UNL     1      -2.983  -0.395  25.010  0.00  0.00    +0.043 C 
ENDROOT
BRANCH   4   2
ATOM      1  C   UNL     1      -3.599  -1.724  23.803  0.00  0.00    +0.000 C 
ATOM      2  C   UNL     1      -3.298  -1.717  24.572  0.00  0.00    +0.000 C 
ATOM      3  C   UNL     1      -3.556  -2.277  25.121  0.00  0.00    +0.000 C 
ENDBRANCH   4   2
BRANCH   6   7
ATOM      7  C   UNL     1      -0.575  -0.968  25.015  0.00  0.00    +0.091 C 
BRANCH   7   8
ATOM      8  C   UNL     1      -0.177  -1.086  24.303  0.00  0.00    +0.242 C 
ATOM      9  O   UNL     1      -0.265  -1.797  23.894  0.00  0.00    -0.273 OA
ATOM     10  N   UNL     1       0.309  -0.493  23.999  0.00  0.00    -0.204 NA
BRANCH  10  11
ATOM     11  C   UNL     1       0.707  -0.611  23.286  0.00  0.00    +0.132 C 
BRANCH  11  12
ATOM     12  C   UNL     1       1.058   0.027  22.899  0.00  0.00    +0.096 C 
BRANCH  12  13
ATOM     13  N   UNL     1       1.710  -0.094  22.409  0.00  0.00    -0.269 NA
ATOM     14  C   UNL     1       1.604  -0.371  21.640  0.00  0.00    +0.090 C 
ATOM     15  C   UNL     1       2.470   0.062  22.689  0.00  0.00    +0.090 C 
ENDBRANCH  12  13
ENDBRANCH  11  12
ENDBRANCH  10  11
ENDBRANCH   7   8
ENDBRANCH   6   7
BRANCH  19  20
ATOM     20  C   UNL     1      -3.785  -0.203  25.008  0.00  0.00    +0.121 C 
BRANCH  20  21
ATOM     21  N   UNL     1      -4.048   0.471  24.613  0.00  0.00    -0.187 NA
ATOM     22  C   UNL     1      -4.537   1.013  25.000  0.00  0.00    +0.339 C 
ATOM     23  O   UNL     1      -4.763   0.878  25.781  0.00  0.00    -0.249 OA
ATOM     24  N   UNL     1      -4.799   1.687  24.604  0.00  0.00    -0.189 NA
BRANCH  24  25
ATOM     25  C   UNL     1      -5.288   2.227  24.990  0.00  0.00    +0.097 C 
ATOM     26  C   UNL     1      -6.081   2.044  25.124  0.00  0.00    +0.022 C 
ATOM     27  C   UNL     1      -6.570   2.585  25.511  0.00  0.00    +0.002 C 
ATOM     28  C   UNL     1      -6.266   3.309  25.763  0.00  0.00    +0.000 C 
ATOM     29  C   UNL     1      -5.473   3.492  25.629  0.00  0.00    +0.002 C 
ATOM     30  C   UNL     1      -4.984   2.952  25.243  0.00  0.00    +0.022 C 
ENDBRANCH  24  25
ENDBRANCH  20  21
ENDBRANCH  19  20
TORSDOF 9
ENDMDL
MODEL 7
REMARK VINA RESULT:      -5.4     17.135     19.081
REMARK  Name = 
REMARK  9 active torsions:
REMARK  status: ('A' for Active; 'I' for Inactive)
REMARK    1  A    between atoms: C_2  and  C_4
REMARK    2  A    between atoms: C_6  and  C_7
REMARK    3  A    between atoms: C_7  and  C_8
REMARK    4  A    between atoms: N_10  and  C_11
REMARK    5  A    between atoms: C_11  and  C_12
REMARK    6  A    between atoms: C_12  and  N_13
REMARK    7  A    between atoms: C_19  and  C_20
REMARK    8  A    between atoms: C_20  and  N_21
REMARK    9  A    between atoms: N_24  and  C_25
REMARK                            x       y       z     vdW  Elec       q    Type
REMARK                         _______ _______ _______ _____ _____    ______ ____
ROOT
ATOM      4  C   UNL     1      -7.069  -9.323  10.554  0.00  0.00    +0.006 C 
ATOM      5  C   UNL     1      -7.711  -9.145  10.068  0.00  0.00    +0.005 C 
ATOM      6  C   UNL     1      -7.599  -9.032   9.259  0.00  0.00    +0.027 C 
ATOM     16  C   UNL     1      -6.843  -9.098   8.935  0.00  0.00    -0.048 C 
ATOM     17  C   UNL     1      -6.730  -8.985   8.125  0.00  0.00    +0.026 C 
ATOM     18  C   UNL     1      -6.200  -9.276   9.421  0.00  0.00    -0.033 C 
ATOM     19  C   UNL     1      -6.313  -9.388  10.230  0.00  0.00    +0.043 C 
ENDROOT
BRANCH   4   2
ATOM      1  C   UNL     1      -7.056  -8.811  11.888  0.00  0.00    +0.000 C 
ATOM      2  C   UNL     1      -7.182  -9.435  11.363  0.00  0.00    +0.000 C 
ATOM      3  C   UNL     1      -7.421 -10.173  11.647  0.00  0.00    +0.000 C 
ENDBRANCH   4   2
BRANCH   6   7
ATOM      7  C   UNL     1      -8.241  -8.854   8.773  0.00  0.00    +0.091 C 
BRANCH   7   8
ATOM      8  C   UNL     1      -8.772  -8.261   8.990  0.00  0.00    +0.242 C 
ATOM      9  O   UNL     1      -9.317  -8.398   9.594  0.00  0.00    -0.273 OA
ATOM     10  N   UNL     1      -8.759  -7.533   8.604  0.00  0.00    -0.204 NA
BRANCH  10  11
ATOM     11  C   UNL     1      -9.290  -6.940   8.821  0.00  0.00    +0.132 C 
BRANCH  11  12
ATOM     12  C   UNL     1      -9.477  -6.339   8.289  0.00  0.00    +0.096 C 
BRANCH  12  13
ATOM     13  N   UNL     1      -9.792  -5.627   8.564  0.00  0.00    -0.269 NA
ATOM     14  C   UNL     1     -10.590  -5.578   8.764  0.00  0.00    +0.090 C 
ATOM     15  C   UNL     1      -9.306  -4.964   8.640  0.00  0.00    +0.090 C 
ENDBRANCH  12  13
ENDBRANCH  11  12
ENDBRANCH  10  11
ENDBRANCH   7   8
ENDBRANCH   6   7
BRANCH  19  20
ATOM     20  C   UNL     1      -5.670  -9.567  10.715  0.00  0.00    +0.121 C 
BRANCH  20  21
ATOM     21  N   UNL     1      -4.964  -9.831  10.383  0.00  0.00    -0.187 NA
ATOM     22  C   UNL     1      -4.277  -9.855  10.839  0.00  0.00    +0.339 C 
ATOM     23  O   UNL     1      -4.297  -9.614  11.628  0.00  0.00    -0.249 OA
ATOM     24  N   UNL     1      -3.569 -10.120  10.507  0.00  0.00    -0.189 NA
BRANCH  24  25
ATOM     25  C   UNL     1      -2.883 -10.143  10.963  0.00  0.00    +0.097 C 
ATOM     26  C   UNL     1      -2.767 -10.757  11.502  0.00  0.00    +0.022 C 
ATOM     27  C   UNL     1      -2.080 -10.781  11.959  0.00  0.00    +0.002 C 
ATOM     28  C   UNL     1      -1.510 -10.191  11.876  0.00  0.00    +0.000 C 
ATOM     29  C   UNL     1      -1.626  -9.577  11.337  0.00  0.00    +0.002 C 
ATOM     30  C   UNL     1      -2.312  -9.553  10.881  0.00  0.00    +0.022 C 
ENDBRANCH  24  25
ENDBRANCH  20  21
ENDBRANCH  19  20
TORSDOF 9
ENDMDL
MODEL 8
REMARK VINA RESULT:      -5.3     16.029     17.962
REMARK  Name = 
REMARK  9 active torsions:
REMARK  status: ('A' for Active; 'I' for Inactive)
REMARK    1  A    between atoms: C_2  and  C_4
REMARK    2  A    between atoms: C_6  and  C_7
REMARK    3  A    between atoms: C_7  and  C_8
REMARK    4  A    between atoms: N_10  and  C_11
REMARK    5  A    between atoms: C_11  and  C_12
REMARK    6  A    between atoms: C_12  and  N_13
REMARK    7  A    between atoms: C_19  and  C_20
REMARK    8  A    between atoms: C_20  and  N_21
REMARK    9  A    between atoms: N_24  and  C_25
REMARK                            x       y       z     vdW  Elec       q    Type
REMARK                         _______ _______ _______ _____ _____    ______ ____
ROOT
ATOM      4  C   UNL     1      -5.573 -10.021  11.608  0.00  0.00    +0.006 C 
ATOM      5  C   UNL     1      -5.832  -9.920  10.832  0.00  0.00    +0.005 C 
ATOM      6  C   UNL     1      -5.286  -9.893  10.214  0.00  0.00    +0.027 C 
ATOM     16  C   UNL     1      -4.480  -9.966  10.373  0.00  0.00    -0.048 C 
ATOM     17  C   UNL     1      -3.933  -9.939   9.755  0.00  0.00    +0.026 C 
ATOM     18  C   UNL     1      -4.220 -10.068  11.150  0.00  0.00    -0.033 C 
ATOM     19  C   UNL     1      -4.767 -10.095  11.767  0.00  0.00    +0.043 C 
ENDROOT
BRANCH   4   2
ATOM      1  C   UNL     1      -6.442 -10.771  12.459  0.00  0.00    +0.000 C 
ATOM      2  C   UNL     1      -6.119 -10.049  12.225  0.00  0.00    +0.000 C 
ATOM      3  C   UNL     1      -6.343  -9.353  12.609  0.00  0.00    +0.000 C 
ENDBRANCH   4   2
BRANCH   6   7
ATOM      7  C   UNL     1      -5.545  -9.792   9.437  0.00  0.00    +0.091 C 
BRANCH   7   8
ATOM      8  C   UNL     1      -6.327  -9.576   9.287  0.00  0.00    +0.242 C 
ATOM      9  O   UNL     1      -6.935 -10.119   9.410  0.00  0.00    -0.273 OA
ATOM     10  N   UNL     1      -6.500  -8.818   9.013  0.00  0.00    -0.204 NA
BRANCH  10  11
ATOM     11  C   UNL     1      -7.282  -8.602   8.863  0.00  0.00    +0.132 C 
BRANCH  11  12
ATOM     12  C   UNL     1      -7.455  -8.077   8.251  0.00  0.00    +0.096 C 
BRANCH  12  13
ATOM     13  N   UNL     1      -8.113  -7.581   8.306  0.00  0.00    -0.269 NA
ATOM     14  C   UNL     1      -8.015  -6.763   8.303  0.00  0.00    +0.090 C 
ATOM     15  C   UNL     1      -8.870  -7.906   8.363  0.00  0.00    +0.090 C 
ENDBRANCH  12  13
ENDBRANCH  11  12
ENDBRANCH  10  11
ENDBRANCH   7   8
ENDBRANCH   6   7
BRANCH  19  20
ATOM     20  C   UNL     1      -4.507 -10.196  12.543  0.00  0.00    +0.121 C 
BRANCH  20  21
ATOM     21  N   UNL     1      -3.731 -10.432  12.690  0.00  0.00    -0.187 NA
ATOM     22  C   UNL     1      -3.418 -10.368  13.452  0.00  0.00    +0.339 C 
ATOM     23  O   UNL     1      -3.882 -10.068  14.064  0.00  0.00    -0.249 OA
ATOM     24  N   UNL     1      -2.641 -10.605  13.600  0.00  0.00    -0.189 NA
BRANCH  24  25
ATOM     25  C   UNL     1      -2.329 -10.541  14.360  0.00  0.00    +0.097 C 
ATOM     26  C   UNL     1      -1.570 -10.236  14.469  0.00  0.00    +0.022 C 
ATOM     27  C   UNL     1      -1.257 -10.172  15.231  0.00  0.00    +0.002 C 
ATOM     28  C   UNL     1      -1.703 -10.413  15.881  0.00  0.00    +0.000 C 
ATOM     29  C   UNL     1      -2.462 -10.717  15.771  0.00  0.00    +0.002 C 
ATOM     30  C   UNL     1      -2.774 -10.781  15.011  0.00  0.00    +0.022 C 
ENDBRANCH  24  25
ENDBRANCH  20  21
ENDBRANCH  19  20
TORSDOF 9
ENDMDL
MODEL 9
REMARK VINA RESULT:      -4.9     15.257     16.495
REMARK  Name = 
REMARK  9 active torsions:
REMARK  status: ('A' for Active; 'I' for Inactive)
REMARK    1  A    between atoms: C_2  and  C_4
REMARK    2  A    between atoms: C_6  and  C_7
REMARK    3  A    between atoms: C_7  and  C_8
REMARK    4  A    between atoms: N_10  and  C_11
REMARK    5  A    between atoms: C_11  and  C_12
REMARK    6  A    between atoms: C_12  and  N_13
REMARK    7  A    between atoms: C_19  and  C_20
REMARK    8  A    between atoms: C_20  and  N_21
REMARK    9  A    between atoms: N_24  and  C_25
REMARK                            x       y       z     vdW  Elec       q    Type
REMARK                         _______ _______ _______ _____ _____    ______ ____
ROOT
ATOM      4  C   UNL     1      -7.086 -10.179  13.259  0.00  0.00    +0.006 C 
ATOM      5  C   UNL     1      -6.409 -10.334  12.815  0.00  0.00    +0.005 C 
ATOM      6  C   UNL     1      -5.676 -10.405  13.189  0.00  0.00    +0.027 C 
ATOM     16  C   UNL     1      -5.622 -10.322  14.008  0.00  0.00    -0.048 C 
ATOM     17  C   UNL     1      -4.890 -10.393  14.382  0.00  0.00    +0.026 C 
ATOM     18  C   UNL     1      -6.300 -10.167  14.453  0.00  0.00    -0.033 C 
ATOM     19  C   UNL     1      -7.032 -10.096  14.078  0.00  0.00    +0.043 C 
ENDROOT
BRANCH   4   2
ATOM      1  C   UNL     1      -8.092  -9.366  12.652  0.00  0.00    +0.000 C 
ATOM      2  C   UNL     1      -7.817 -10.108  12.885  0.00  0.00    +0.000 C 
ATOM      3  C   UNL     1      -8.275 -10.781  12.743  0.00  0.00    +0.000 C 
ENDBRANCH   4   2
BRANCH   6   7
ATOM      7  C   UNL     1      -4.998 -10.560  12.744  0.00  0.00    +0.091 C 
BRANCH   7   8
ATOM      8  C   UNL     1      -4.850 -10.132  12.055  0.00  0.00    +0.242 C 
ATOM      9  O   UNL     1      -4.830  -9.308  12.077  0.00  0.00    -0.273 OA
ATOM     10  N   UNL     1      -4.722 -10.529  11.344  0.00  0.00    -0.204 NA
BRANCH  10  11
ATOM     11  C   UNL     1      -4.573 -10.102  10.654  0.00  0.00    +0.132 C 
BRANCH  11  12
ATOM     12  C   UNL     1      -4.269 -10.483   9.989  0.00  0.00    +0.096 C 
BRANCH  12  13
ATOM     13  N   UNL     1      -4.366 -10.150   9.241  0.00  0.00    -0.269 NA
ATOM     14  C   UNL     1      -4.855 -10.514   8.686  0.00  0.00    +0.090 C 
ATOM     15  C   UNL     1      -3.972  -9.451   9.047  0.00  0.00    +0.090 C 
ENDBRANCH  12  13
ENDBRANCH  11  12
ENDBRANCH  10  11
ENDBRANCH   7   8
ENDBRANCH   6   7
BRANCH  19  20
ATOM     20  C   UNL     1      -7.709  -9.942  14.523  0.00  0.00    +0.121 C 
BRANCH  20  21
ATOM     21  N   UNL     1      -7.644  -9.774  15.327  0.00  0.00    -0.187 NA
ATOM     22  C   UNL     1      -8.316  -9.569  15.761  0.00  0.00    +0.339 C 
ATOM     23  O   UNL     1      -9.051  -9.532  15.389  0.00  0.00    -0.249 OA
ATOM     24  N   UNL     1      -8.252  -9.400  16.566  0.00  0.00    -0.189 NA
BRANCH  24  25
ATOM     25  C   UNL     1      -8.922  -9.196  16.999  0.00  0.00    +0.097 C 
ATOM     26  C   UNL     1      -9.331  -9.773  17.424  0.00  0.00    +0.022 C 
ATOM     27  C   UNL     1     -10.003  -9.569  17.858  0.00  0.00    +0.002 C 
ATOM     28  C   UNL     1     -10.265  -8.787  17.867  0.00  0.00    +0.000 C 
ATOM     29  C   UNL     1      -9.857  -8.209  17.442  0.00  0.00    +0.002 C 
ATOM     30  C   UNL     1      -9.186  -8.414  17.009  0.00  0.00    +0.022 C 
ENDBRANCH  24  25
ENDBRANCH  20  21
ENDBRANCH  19  20
TORSDOF 9
ENDMDL
MODEL 10
REMARK VINA RESULT:      -4.4     15.426     17.135
REMARK  Name = 
REMARK  9 active torsions:
REMARK  status: ('A' for Active; 'I' for Inactive)
REMARK    1  A    between atoms: C_2  and  C_4
REMARK    2  A    between atoms: C_6  and  C_7
REMARK    3  A    between atoms: C_7  and  C_8
REMARK    4  A    between atoms: N_10  and  C_11
REMARK    5  A    between atoms: C_11  and  C_12
REMARK    6  A    between atoms: C_12  and  N_13
REMARK    7  A    between atoms: C_19  and  C_20
REMARK    8  A    between atoms: C_20  and  N_21
REMARK    9  A    between atoms: N_24  and  C_25
REMARK                            x       y       z     vdW  Elec       q    Type
REMARK                         _______ _______ _______ _____ _____    ______ ____
ROOT
ATOM      4  C   UNL     1      -6.696  -9.731  12.469  0.00  0.00    +0.006 C 
ATOM      5  C   UNL     1      -6.626  -9.612  11.656  0.00  0.00    +0.005 C 
ATOM      6  C   UNL     1      -5.880  -9.603  11.303  0.00  0.00    +0.027 C 
ATOM     16  C   UNL     1      -5.204  -9.711  11.764  0.00  0.00    -0.048 C 
ATOM     17  C   UNL     1      -4.458  -9.702  11.411  0.00  0.00    +0.026 C 
ATOM     18  C   UNL     1      -5.274  -9.830  12.578  0.00  0.00    -0.033 C 
ATOM     19  C   UNL     1      -6.020  -9.839  12.930  0.00  0.00    +0.043 C 
ENDROOT
BRANCH   4   2
ATOM      1  C   UNL     1      -7.894 -10.430  12.813  0.00  0.00    +0.000 C 
ATOM      2  C   UNL     1      -7.441  -9.740  12.822  0.00  0.00    +0.000 C 
ATOM      3  C   UNL     1      -7.735  -9.059  13.185  0.00  0.00    +0.000 C 
ENDBRANCH   4   2
BRANCH   6   7
ATOM      7  C   UNL     1      -5.809  -9.485  10.489  0.00  0.00    +0.091 C 
BRANCH   7   8
ATOM      8  C   UNL     1      -6.083  -8.786  10.148  0.00  0.00    +0.242 C 
ATOM      9  O   UNL     1      -5.716  -8.069  10.327  0.00  0.00    -0.273 OA
ATOM     10  N   UNL     1      -6.722  -8.803   9.628  0.00  0.00    -0.204 NA
BRANCH  10  11
ATOM     11  C   UNL     1      -6.996  -8.104   9.287  0.00  0.00    +0.132 C 
BRANCH  11  12
ATOM     12  C   UNL     1      -7.518  -8.132   8.649  0.00  0.00    +0.096 C 
BRANCH  12  13
ATOM     13  N   UNL     1      -8.061  -7.522   8.532  0.00  0.00    -0.269 NA
ATOM     14  C   UNL     1      -8.843  -7.613   8.776  0.00  0.00    +0.090 C 
ATOM     15  C   UNL     1      -7.821  -6.821   8.170  0.00  0.00    +0.090 C 
ENDBRANCH  12  13
ENDBRANCH  11  12
ENDBRANCH  10  11
ENDBRANCH   7   8
ENDBRANCH   6   7
BRANCH  19  20
ATOM     20  C   UNL     1      -6.090  -9.957  13.743  0.00  0.00    +0.121 C 
BRANCH  20  21
ATOM     21  N   UNL     1      -5.429 -10.172  14.187  0.00  0.00    -0.187 NA
ATOM     22  C   UNL     1      -5.472 -10.186  15.011  0.00  0.00    +0.339 C 
ATOM     23  O   UNL     1      -6.177  -9.986  15.390  0.00  0.00    -0.249 OA
ATOM     24  N   UNL     1      -4.811 -10.400  15.456  0.00  0.00    -0.189 NA
BRANCH  24  25
ATOM     25  C   UNL     1      -4.854 -10.415  16.279  0.00  0.00    +0.097 C 
ATOM     26  C   UNL     1      -4.251 -10.767  16.717  0.00  0.00    +0.022 C 
ATOM     27  C   UNL     1      -4.294 -10.781  17.542  0.00  0.00    +0.002 C 
ATOM     28  C   UNL     1      -4.941 -10.443  17.926  0.00  0.00    +0.000 C 
ATOM     29  C   UNL     1      -5.544 -10.091  17.487  0.00  0.00    +0.002 C 
ATOM     30  C   UNL     1      -5.501 -10.077  16.664  0.00  0.00    +0.022 C 
ENDBRANCH  24  25
ENDBRANCH  20  21
ENDBRANCH  19  20
TORSDOF 9
ENDMDL
