MODEL 1
REMARK VINA RESULT:     -12.2      0.000      0.000
REMARK  Name = 
REMARK  3 active torsions:
REMARK  status: ('A' for Active; 'I' for Inactive)
REMARK    1  A    between atoms: C_6  and  C_8
REMARK    2  A    between atoms: C_14  and  N_15
REMARK    3  A    between atoms: C_16  and  C_18
REMARK                            x       y       z     vdW  Elec       q    Type
REMARK                         _______ _______ _______ _____ _____    ______ ____
ROOT
ATOM      8  C   UNL     1      -4.257   0.488  24.935  0.00  0.00    +0.048 C 
ATOM      9  C   UNL     1      -5.029   0.777  24.910  0.00  0.00    +0.042 C 
ATOM     10  C   UNL     1      -4.993   1.599  24.862  0.00  0.00    +0.184 C 
ATOM     11  O   UNL     1      -5.639   2.112  24.825  0.00  0.00    -0.220 OA
ATOM     12  C   UNL     1      -4.198   1.819  24.857  0.00  0.00    +0.202 C 
ATOM     13  O   UNL     1      -3.909   2.591  24.815  0.00  0.00    -0.219 OA
ATOM     14  C   UNL     1      -3.743   1.133  24.903  0.00  0.00    +0.132 C 
ENDROOT
BRANCH   8   6
ATOM      1  C   UNL     1      -4.038  -2.098  23.739  0.00  0.00    +0.031 C 
ATOM      2  C   UNL     1      -3.927  -1.599  24.387  0.00  0.00    -0.022 A 
ATOM      3  C   UNL     1      -3.596  -1.892  25.082  0.00  0.00    -0.004 A 
ATOM      4  C   UNL     1      -3.486  -1.393  25.729  0.00  0.00    -0.001 A 
ATOM      5  C   UNL     1      -3.706  -0.599  25.680  0.00  0.00    -0.004 A 
ATOM      6  C   UNL     1      -4.037  -0.305  24.984  0.00  0.00    -0.021 A 
ATOM      7  C   UNL     1      -4.148  -0.804  24.337  0.00  0.00    -0.008 A 
ENDBRANCH   8   6
BRANCH  14  15
ATOM     15  N   UNL     1      -2.919   1.098  24.914  0.00  0.00    -0.200 NA
ATOM     16  C   UNL     1      -2.482   1.488  24.334  0.00  0.00    +0.266 C 
ATOM     17  O   UNL     1      -2.868   1.915  23.743  0.00  0.00    -0.268 OA
BRANCH  16  18
ATOM     18  C   UNL     1      -1.658   1.453  24.344  0.00  0.00    +0.074 A 
ATOM     19  C   UNL     1      -1.240   1.757  24.987  0.00  0.00    +0.008 A 
ATOM     20  C   UNL     1      -0.415   1.721  24.998  0.00  0.00    +0.021 A 
ATOM     21  C   UNL     1      -0.009   1.381  24.365  0.00  0.00    +0.099 A 
ATOM     22  N   UNL     1      -0.427   1.078  23.722  0.00  0.00    -0.242 NA
ATOM     23  C   UNL     1      -1.252   1.113  23.711  0.00  0.00    +0.103 A 
ENDBRANCH  16  18
ENDBRANCH  14  15
TORSDOF 3
ENDMDL
MODEL 2
REMARK VINA RESULT:     -11.9      1.158      3.013
REMARK  Name = 
REMARK  3 active torsions:
REMARK  status: ('A' for Active; 'I' for Inactive)
REMARK    1  A    between atoms: C_6  and  C_8
REMARK    2  A    between atoms: C_14  and  N_15
REMARK    3  A    between atoms: C_16  and  C_18
REMARK                            x       y       z     vdW  Elec       q    Type
REMARK                         _______ _______ _______ _____ _____    ______ ____
ROOT
ATOM      8  C   UNL     1      -2.355   0.198  24.550  0.00  0.00    +0.048 C 
ATOM      9  C   UNL     1      -1.616   0.150  24.186  0.00  0.00    +0.042 C 
ATOM     10  C   UNL     1      -1.350   0.917  24.047  0.00  0.00    +0.184 C 
ATOM     11  O   UNL     1      -0.634   1.126  23.692  0.00  0.00    -0.220 OA
ATOM     12  C   UNL     1      -1.924   1.441  24.325  0.00  0.00    +0.202 C 
ATOM     13  O   UNL     1      -1.883   2.265  24.296  0.00  0.00    -0.219 OA
ATOM     14  C   UNL     1      -2.545   0.997  24.636  0.00  0.00    +0.132 C 
ENDROOT
BRANCH   8   6
ATOM      1  C   UNL     1      -4.188  -1.899  23.911  0.00  0.00    +0.031 C 
ATOM      2  C   UNL     1      -3.738  -1.488  24.468  0.00  0.00    -0.022 A 
ATOM      3  C   UNL     1      -3.756  -1.715  25.261  0.00  0.00    -0.004 A 
ATOM      4  C   UNL     1      -3.307  -1.304  25.817  0.00  0.00    -0.001 A 
ATOM      5  C   UNL     1      -2.839  -0.666  25.579  0.00  0.00    -0.004 A 
ATOM      6  C   UNL     1      -2.822  -0.439  24.787  0.00  0.00    -0.021 A 
ATOM      7  C   UNL     1      -3.271  -0.850  24.231  0.00  0.00    -0.008 A 
ENDBRANCH   8   6
BRANCH  14  15
ATOM     15  N   UNL     1      -3.235   1.297  24.973  0.00  0.00    -0.200 NA
ATOM     16  C   UNL     1      -3.689   1.848  24.560  0.00  0.00    +0.266 C 
ATOM     17  O   UNL     1      -3.454   2.099  23.810  0.00  0.00    -0.268 OA
BRANCH  16  18
ATOM     18  C   UNL     1      -4.380   2.149  24.898  0.00  0.00    +0.074 A 
ATOM     19  C   UNL     1      -5.113   1.842  24.679  0.00  0.00    +0.008 A 
ATOM     20  C   UNL     1      -5.804   2.143  25.016  0.00  0.00    +0.021 A 
ATOM     21  C   UNL     1      -5.760   2.751  25.573  0.00  0.00    +0.099 A 
ATOM     22  N   UNL     1      -5.026   3.058  25.791  0.00  0.00    -0.242 NA
ATOM     23  C   UNL     1      -4.335   2.757  25.454  0.00  0.00    +0.103 A 
ENDBRANCH  16  18
ENDBRANCH  14  15
TORSDOF 3
ENDMDL
MODEL 3
REMARK VINA RESULT:     -11.9      0.781      1.095
REMARK  Name = 
REMARK  3 active torsions:
REMARK  status: ('A' for Active; 'I' for Inactive)
REMARK    1  A    between atoms: C_6  and  C_8
REMARK    2  A    between atoms: C_14  and  N_15
REMARK    3  A    between atoms: C_16  and  C_18
REMARK                            x       y       z     vdW  Elec       q    Type
REMARK                         _______ _______ _______ _____ _____    ______ ____
ROOT
ATOM      8  C   UNL     1      -4.420   0.883  24.760  0.00  0.00    +0.048 C 
ATOM      9  C   UNL     1      -5.197   1.113  24.915  0.00  0.00    +0.042 C 
ATOM     10  C   UNL     1      -5.226   1.937  24.901  0.00  0.00    +0.184 C 
ATOM     11  O   UNL     1      -5.896   2.401  25.029  0.00  0.00    -0.220 OA
ATOM     12  C   UNL     1      -4.467   2.216  24.737  0.00  0.00    +0.202 C 
ATOM     13  O   UNL     1      -4.245   3.009  24.672  0.00  0.00    -0.219 OA
ATOM     14  C   UNL     1      -3.969   1.565  24.649  0.00  0.00    +0.132 C 
ENDROOT
BRANCH   8   6
ATOM      1  C   UNL     1      -3.430  -1.460  26.064  0.00  0.00    +0.031 C 
ATOM      2  C   UNL     1      -3.648  -1.065  25.373  0.00  0.00    -0.022 A 
ATOM      3  C   UNL     1      -3.589  -1.446  24.644  0.00  0.00    -0.004 A 
ATOM      4  C   UNL     1      -3.806  -1.051  23.954  0.00  0.00    -0.001 A 
ATOM      5  C   UNL     1      -4.084  -0.274  23.992  0.00  0.00    -0.004 A 
ATOM      6  C   UNL     1      -4.143   0.107  24.721  0.00  0.00    -0.021 A 
ATOM      7  C   UNL     1      -3.926  -0.288  25.411  0.00  0.00    -0.008 A 
ENDBRANCH   8   6
BRANCH  14  15
ATOM     15  N   UNL     1      -3.162   1.590  24.481  0.00  0.00    -0.200 NA
ATOM     16  C   UNL     1      -2.667   2.088  24.914  0.00  0.00    +0.266 C 
ATOM     17  O   UNL     1      -2.978   2.560  25.515  0.00  0.00    -0.268 OA
BRANCH  16  18
ATOM     18  C   UNL     1      -1.859   2.114  24.746  0.00  0.00    +0.074 A 
ATOM     19  C   UNL     1      -1.311   1.897  25.323  0.00  0.00    +0.008 A 
ATOM     20  C   UNL     1      -0.503   1.922  25.155  0.00  0.00    +0.021 A 
ATOM     21  C   UNL     1      -0.245   2.165  24.410  0.00  0.00    +0.099 A 
ATOM     22  N   UNL     1      -0.793   2.382  23.833  0.00  0.00    -0.242 NA
ATOM     23  C   UNL     1      -1.601   2.356  24.001  0.00  0.00    +0.103 A 
ENDBRANCH  16  18
ENDBRANCH  14  15
TORSDOF 3
ENDMDL
MODEL 4
REMARK VINA RESULT:     -11.7      1.299      3.387
REMARK  Name = 
REMARK  3 active torsions:
REMARK  status: ('A' for Active; 'I' for Inactive)
REMARK    1  A    between atoms: C_6  and  C_8
REMARK    2  A    between atoms: C_14  and  N_15
REMARK    3  A    between atoms: C_16  and  C_18
REMARK                            x       y       z     vdW  Elec       q    Type
REMARK                         _______ _______ _______ _____ _____    ______ ____
ROOT
ATOM      8  C   UNL     1      -3.888   1.980  24.383  0.00  0.00    +0.048 C 
ATOM      9  C   UNL     1      -4.302   2.643  24.645  0.00  0.00    +0.042 C 
ATOM     10  C   UNL     1      -5.027   2.389  24.944  0.00  0.00    +0.184 C 
ATOM     11  O   UNL     1      -5.616   2.872  25.264  0.00  0.00    -0.220 OA
ATOM     12  C   UNL     1      -5.062   1.569  24.867  0.00  0.00    +0.202 C 
ATOM     13  O   UNL     1      -5.691   1.086  25.096  0.00  0.00    -0.219 OA
ATOM     14  C   UNL     1      -4.358   1.315  24.520  0.00  0.00    +0.132 C 
ENDROOT
BRANCH   8   6
ATOM      1  C   UNL     1      -1.046   2.101  24.663  0.00  0.00    +0.031 C 
ATOM      2  C   UNL     1      -1.715   2.040  24.183  0.00  0.00    -0.022 A 
ATOM      3  C   UNL     1      -1.632   1.980  23.365  0.00  0.00    -0.004 A 
ATOM      4  C   UNL     1      -2.301   1.919  22.886  0.00  0.00    -0.001 A 
ATOM      5  C   UNL     1      -3.053   1.919  23.226  0.00  0.00    -0.004 A 
ATOM      6  C   UNL     1      -3.136   1.980  24.044  0.00  0.00    -0.021 A 
ATOM      7  C   UNL     1      -2.468   2.040  24.523  0.00  0.00    -0.008 A 
ENDBRANCH   8   6
BRANCH  14  15
ATOM     15  N   UNL     1      -4.159   0.535  24.342  0.00  0.00    -0.200 NA
ATOM     16  C   UNL     1      -4.220  -0.048  24.922  0.00  0.00    +0.266 C 
ATOM     17  O   UNL     1      -4.480   0.148  25.680  0.00  0.00    -0.268 OA
BRANCH  16  18
ATOM     18  C   UNL     1      -4.020  -0.829  24.744  0.00  0.00    +0.074 A 
ATOM     19  C   UNL     1      -3.517  -1.251  25.244  0.00  0.00    +0.008 A 
ATOM     20  C   UNL     1      -3.317  -2.031  25.066  0.00  0.00    +0.021 A 
ATOM     21  C   UNL     1      -3.621  -2.390  24.388  0.00  0.00    +0.099 A 
ATOM     22  N   UNL     1      -4.124  -1.969  23.888  0.00  0.00    -0.242 NA
ATOM     23  C   UNL     1      -4.324  -1.188  24.066  0.00  0.00    +0.103 A 
ENDBRANCH  16  18
ENDBRANCH  14  15
TORSDOF 3
ENDMDL
MODEL 5
REMARK VINA RESULT:     -10.9      1.848      3.912
REMARK  Name = 
REMARK  3 active torsions:
REMARK  status: ('A' for Active; 'I' for Inactive)
REMARK    1  A    between atoms: C_6  and  C_8
REMARK    2  A    between atoms: C_14  and  N_15
REMARK    3  A    between atoms: C_16  and  C_18
REMARK                            x       y       z     vdW  Elec       q    Type
REMARK                         _______ _______ _______ _____ _____    ______ ____
ROOT
ATOM      8  C   UNL     1      -1.640   1.809  24.246  0.00  0.00    +0.048 C 
ATOM      9  C   UNL     1      -0.953   2.264  24.270  0.00  0.00    +0.042 C 
ATOM     10  C   UNL     1      -0.316   1.758  24.406  0.00  0.00    +0.184 C 
ATOM     11  O   UNL     1       0.476   1.981  24.471  0.00  0.00    -0.220 OA
ATOM     12  C   UNL     1      -0.610   0.990  24.466  0.00  0.00    +0.202 C 
ATOM     13  O   UNL     1      -0.163   0.309  24.600  0.00  0.00    -0.219 OA
ATOM     14  C   UNL     1      -1.428   1.021  24.367  0.00  0.00    +0.132 C 
ENDROOT
BRANCH   8   6
ATOM      1  C   UNL     1      -3.998   3.082  25.240  0.00  0.00    +0.031 C 
ATOM      2  C   UNL     1      -3.585   2.728  24.619  0.00  0.00    -0.022 A 
ATOM      3  C   UNL     1      -3.936   2.657  23.877  0.00  0.00    -0.004 A 
ATOM      4  C   UNL     1      -3.522   2.304  23.257  0.00  0.00    -0.001 A 
ATOM      5  C   UNL     1      -2.756   2.021  23.381  0.00  0.00    -0.004 A 
ATOM      6  C   UNL     1      -2.405   2.092  24.123  0.00  0.00    -0.021 A 
ATOM      7  C   UNL     1      -2.819   2.445  24.743  0.00  0.00    -0.008 A 
ENDBRANCH   8   6
BRANCH  14  15
ATOM     15  N   UNL     1      -1.943   0.377  24.386  0.00  0.00    -0.200 NA
ATOM     16  C   UNL     1      -1.920  -0.152  25.018  0.00  0.00    +0.266 C 
ATOM     17  O   UNL     1      -1.381  -0.037  25.632  0.00  0.00    -0.268 OA
BRANCH  16  18
ATOM     18  C   UNL     1      -2.436  -0.796  25.037  0.00  0.00    +0.074 A 
ATOM     19  C   UNL     1      -3.033  -0.829  25.605  0.00  0.00    +0.008 A 
ATOM     20  C   UNL     1      -3.549  -1.473  25.624  0.00  0.00    +0.021 A 
ATOM     21  C   UNL     1      -3.467  -2.083  25.075  0.00  0.00    +0.099 A 
ATOM     22  N   UNL     1      -2.870  -2.049  24.506  0.00  0.00    -0.242 NA
ATOM     23  C   UNL     1      -2.354  -1.405  24.487  0.00  0.00    +0.103 A 
ENDBRANCH  16  18
ENDBRANCH  14  15
TORSDOF 3
ENDMDL
