MODEL 1
REMARK VINA RESULT:      -9.5      0.000      0.000
REMARK  Name = 
REMARK  5 active torsions:
REMARK  status: ('A' for Active; 'I' for Inactive)
REMARK    1  A    between atoms: O_2  and  C_3
REMARK    2  A    between atoms: C_6  and  C_9
REMARK    3  A    between atoms: N_14  and  C_15
REMARK    4  A    between atoms: C_19  and  N_23
REMARK    5  A    between atoms: C_24  and  C_26
REMARK                            x       y       z     vdW  Elec       q    Type
REMARK                         _______ _______ _______ _____ _____    ______ ____
ROOT
ATOM     15  C   UNL     1      -0.460   1.061  24.236  0.00  0.00    +0.154 C 
ATOM     16  C   UNL     1      -0.923   0.379  24.195  0.00  0.00    +0.166 C 
ATOM     17  O   UNL     1      -1.714   0.604  24.257  0.00  0.00    -0.350 OA
ATOM     18  C   UNL     1      -1.740   1.424  24.337  0.00  0.00    +0.166 C 
ATOM     19  C   UNL     1      -2.245   2.071  24.425  0.00  0.00    +0.155 C 
ATOM     20  C   UNL     1      -1.782   2.753  24.467  0.00  0.00    +0.166 C 
ATOM     21  O   UNL     1      -0.991   2.527  24.404  0.00  0.00    -0.350 OA
ATOM     22  C   UNL     1      -0.965   1.706  24.324  0.00  0.00    +0.166 C 
ENDROOT
BRANCH  15  14
ATOM      9  C   UNL     1       1.990   0.249  23.008  0.00  0.00    +0.086 A 
ATOM     10  C   UNL     1       1.568  -0.218  22.474  0.00  0.00    +0.040 A 
ATOM     11  C   UNL     1       0.744  -0.248  22.514  0.00  0.00    +0.103 A 
ATOM     12  N   UNL     1       0.342   0.188  23.088  0.00  0.00    -0.211 NA
ATOM     13  C   UNL     1       0.765   0.655  23.622  0.00  0.00    +0.237 A 
ATOM     14  N   UNL     1       0.364   1.091  24.196  0.00  0.00    -0.200 NA
ATOM     32  N   UNL     1       1.588   0.685  23.582  0.00  0.00    -0.212 NA
BRANCH   9   6
ATOM      3  C   UNL     1       4.461   0.339  22.888  0.00  0.00    +0.139 A 
ATOM      4  C   UNL     1       4.084  -0.349  23.145  0.00  0.00    +0.037 A 
ATOM      5  C   UNL     1       3.261  -0.379  23.185  0.00  0.00    +0.005 A 
ATOM      6  C   UNL     1       2.813   0.279  22.968  0.00  0.00    +0.018 A 
ATOM      7  C   UNL     1       3.189   0.967  22.711  0.00  0.00    +0.005 A 
ATOM      8  C   UNL     1       4.012   0.997  22.671  0.00  0.00    +0.037 A 
BRANCH   3   2
ATOM      1  C   UNL     1       5.737   0.113  23.487  0.00  0.00    +0.252 C 
ATOM      2  O   UNL     1       5.284   0.369  22.847  0.00  0.00    -0.471 OA
ENDBRANCH   3   2
ENDBRANCH   9   6
ENDBRANCH  15  14
BRANCH  19  23
ATOM     23  N   UNL     1      -3.068   2.041  24.465  0.00  0.00    -0.198 NA
ATOM     24  C   UNL     1      -3.470   2.480  25.037  0.00  0.00    +0.265 C 
ATOM     25  O   UNL     1      -3.049   2.950  25.568  0.00  0.00    -0.268 OA
BRANCH  24  26
ATOM     26  C   UNL     1      -4.294   2.450  25.076  0.00  0.00    +0.055 A 
ATOM     27  C   UNL     1      -4.689   1.746  24.911  0.00  0.00    +0.005 A 
ATOM     28  C   UNL     1      -5.513   1.715  24.950  0.00  0.00    +0.000 A 
ATOM     29  C   UNL     1      -5.941   2.390  25.156  0.00  0.00    +0.000 A 
ATOM     30  C   UNL     1      -5.545   3.094  25.322  0.00  0.00    +0.000 A 
ATOM     31  C   UNL     1      -4.721   3.125  25.282  0.00  0.00    +0.005 A 
ENDBRANCH  24  26
ENDBRANCH  19  23
TORSDOF 5
ENDMDL
MODEL 2
REMARK VINA RESULT:      -9.3      1.219      7.249
REMARK  Name = 
REMARK  5 active torsions:
REMARK  status: ('A' for Active; 'I' for Inactive)
REMARK    1  A    between atoms: O_2  and  C_3
REMARK    2  A    between atoms: C_6  and  C_9
REMARK    3  A    between atoms: N_14  and  C_15
REMARK    4  A    between atoms: C_19  and  N_23
REMARK    5  A    between atoms: C_24  and  C_26
REMARK                            x       y       z     vdW  Elec       q    Type
REMARK                         _______ _______ _______ _____ _____    ______ ____
ROOT
ATOM     15  C   UNL     1      -0.487   1.504  24.616  0.00  0.00    +0.154 C 
ATOM     16  C   UNL     1       0.024   1.987  25.048  0.00  0.00    +0.166 C 
ATOM     17  O   UNL     1       0.790   1.858  24.772  0.00  0.00    -0.350 OA
ATOM     18  C   UNL     1       0.754   1.296  24.170  0.00  0.00    +0.166 C 
ATOM     19  C   UNL     1       1.204   0.868  23.627  0.00  0.00    +0.155 C 
ATOM     20  C   UNL     1       0.694   0.385  23.196  0.00  0.00    +0.166 C 
ATOM     21  O   UNL     1      -0.072   0.514  23.472  0.00  0.00    -0.350 OA
ATOM     22  C   UNL     1      -0.035   1.077  24.074  0.00  0.00    +0.166 C 
ENDROOT
BRANCH  15  14
ATOM      9  C   UNL     1      -3.025   2.788  24.891  0.00  0.00    +0.086 A 
ATOM     10  C   UNL     1      -2.658   3.525  24.840  0.00  0.00    +0.040 A 
ATOM     11  C   UNL     1      -1.839   3.573  24.746  0.00  0.00    +0.103 A 
ATOM     12  N   UNL     1      -1.388   2.883  24.702  0.00  0.00    -0.211 NA
ATOM     13  C   UNL     1      -1.756   2.146  24.754  0.00  0.00    +0.237 A 
ATOM     14  N   UNL     1      -1.305   1.456  24.710  0.00  0.00    -0.200 NA
ATOM     32  N   UNL     1      -2.574   2.099  24.848  0.00  0.00    -0.212 NA
BRANCH   9   6
ATOM      3  C   UNL     1      -5.480   2.647  25.173  0.00  0.00    +0.139 A 
ATOM      4  C   UNL     1      -5.028   3.084  25.707  0.00  0.00    +0.037 A 
ATOM      5  C   UNL     1      -4.210   3.131  25.613  0.00  0.00    +0.005 A 
ATOM      6  C   UNL     1      -3.843   2.741  24.985  0.00  0.00    +0.018 A 
ATOM      7  C   UNL     1      -4.295   2.304  24.451  0.00  0.00    +0.005 A 
ATOM      8  C   UNL     1      -5.114   2.256  24.545  0.00  0.00    +0.037 A 
BRANCH   3   2
ATOM      1  C   UNL     1      -6.629   1.976  25.695  0.00  0.00    +0.252 C 
ATOM      2  O   UNL     1      -6.298   2.600  25.267  0.00  0.00    -0.471 OA
ENDBRANCH   3   2
ENDBRANCH   9   6
ENDBRANCH  15  14
BRANCH  19  23
ATOM     23  N   UNL     1       2.023   0.915  23.533  0.00  0.00    -0.198 NA
ATOM     24  C   UNL     1       2.417   0.360  23.068  0.00  0.00    +0.265 C 
ATOM     25  O   UNL     1       1.994  -0.243  22.696  0.00  0.00    -0.268 OA
BRANCH  24  26
ATOM     26  C   UNL     1       3.236   0.407  22.973  0.00  0.00    +0.055 A 
ATOM     27  C   UNL     1       3.570   1.053  22.583  0.00  0.00    +0.005 A 
ATOM     28  C   UNL     1       4.388   1.101  22.488  0.00  0.00    +0.000 A 
ATOM     29  C   UNL     1       4.872   0.502  22.785  0.00  0.00    +0.000 A 
ATOM     30  C   UNL     1       4.538  -0.143  23.175  0.00  0.00    +0.000 A 
ATOM     31  C   UNL     1       3.720  -0.191  23.270  0.00  0.00    +0.005 A 
ENDBRANCH  24  26
ENDBRANCH  19  23
TORSDOF 5
ENDMDL
MODEL 3
REMARK VINA RESULT:      -7.6     14.767     16.678
REMARK  Name = 
REMARK  5 active torsions:
REMARK  status: ('A' for Active; 'I' for Inactive)
REMARK    1  A    between atoms: O_2  and  C_3
REMARK    2  A    between atoms: C_6  and  C_9
REMARK    3  A    between atoms: N_14  and  C_15
REMARK    4  A    between atoms: C_19  and  N_23
REMARK    5  A    between atoms: C_24  and  C_26
REMARK                            x       y       z     vdW  Elec       q    Type
REMARK                         _______ _______ _______ _____ _____    ______ ____
ROOT
ATOM     15  C   UNL     1      -5.646 -10.339  14.103  0.00  0.00    +0.154 C 
ATOM     16  C   UNL     1      -4.994 -10.781  13.858  0.00  0.00    +0.166 C 
ATOM     17  O   UNL     1      -4.884 -10.646  13.052  0.00  0.00    -0.350 OA
ATOM     18  C   UNL     1      -5.467 -10.121  12.799  0.00  0.00    +0.166 C 
ATOM     19  C   UNL     1      -5.760  -9.713  12.145  0.00  0.00    +0.155 C 
ATOM     20  C   UNL     1      -6.412  -9.271  12.389  0.00  0.00    +0.166 C 
ATOM     21  O   UNL     1      -6.522  -9.406  13.195  0.00  0.00    -0.350 OA
ATOM     22  C   UNL     1      -5.938  -9.931  13.449  0.00  0.00    +0.166 C 
ENDROOT
BRANCH  15  14
ATOM      9  C   UNL     1      -5.276 -10.575  16.928  0.00  0.00    +0.086 A 
ATOM     10  C   UNL     1      -4.479 -10.751  16.809  0.00  0.00    +0.040 A 
ATOM     11  C   UNL     1      -4.173 -10.780  16.043  0.00  0.00    +0.103 A 
ATOM     12  N   UNL     1      -4.664 -10.633  15.396  0.00  0.00    -0.211 NA
ATOM     13  C   UNL     1      -5.462 -10.457  15.516  0.00  0.00    +0.237 A 
ATOM     14  N   UNL     1      -5.952 -10.310  14.869  0.00  0.00    -0.200 NA
ATOM     32  N   UNL     1      -5.767 -10.428  16.281  0.00  0.00    -0.212 NA
BRANCH   9   6
ATOM      3  C   UNL     1      -6.194 -10.488  19.225  0.00  0.00    +0.139 A 
ATOM      4  C   UNL     1      -5.422 -10.752  19.098  0.00  0.00    +0.037 A 
ATOM      5  C   UNL     1      -5.117 -10.781  18.333  0.00  0.00    +0.005 A 
ATOM      6  C   UNL     1      -5.582 -10.546  17.693  0.00  0.00    +0.018 A 
ATOM      7  C   UNL     1      -6.353 -10.282  17.819  0.00  0.00    +0.005 A 
ATOM      8  C   UNL     1      -6.659 -10.253  18.585  0.00  0.00    +0.037 A 
BRANCH   3   2
ATOM      1  C   UNL     1      -6.069 -10.776  20.618  0.00  0.00    +0.252 C 
ATOM      2  O   UNL     1      -6.500 -10.459  19.990  0.00  0.00    -0.471 OA
ENDBRANCH   3   2
ENDBRANCH   9   6
ENDBRANCH  15  14
BRANCH  19  23
ATOM     23  N   UNL     1      -5.454  -9.742  11.379  0.00  0.00    -0.198 NA
ATOM     24  C   UNL     1      -5.332  -9.044  10.956  0.00  0.00    +0.265 C 
ATOM     25  O   UNL     1      -5.517  -8.317  11.298  0.00  0.00    -0.268 OA
BRANCH  24  26
ATOM     26  C   UNL     1      -5.026  -9.073  10.190  0.00  0.00    +0.055 A 
ATOM     27  C   UNL     1      -4.271  -8.779  10.036  0.00  0.00    +0.005 A 
ATOM     28  C   UNL     1      -3.964  -8.808   9.271  0.00  0.00    +0.000 A 
ATOM     29  C   UNL     1      -4.414  -9.131   8.659  0.00  0.00    +0.000 A 
ATOM     30  C   UNL     1      -5.169  -9.425   8.813  0.00  0.00    +0.000 A 
ATOM     31  C   UNL     1      -5.476  -9.396   9.579  0.00  0.00    +0.005 A 
ENDBRANCH  24  26
ENDBRANCH  19  23
TORSDOF 5
ENDMDL
MODEL 4
REMARK VINA RESULT:      -7.4     14.950     17.214
REMARK  Name = 
REMARK  5 active torsions:
REMARK  status: ('A' for Active; 'I' for Inactive)
REMARK    1  A    between atoms: O_2  and  C_3
REMARK    2  A    between atoms: C_6  and  C_9
REMARK    3  A    between atoms: N_14  and  C_15
REMARK    4  A    between atoms: C_19  and  N_23
REMARK    5  A    between atoms: C_24  and  C_26
REMARK                            x       y       z     vdW  Elec       q    Type
REMARK                         _______ _______ _______ _____ _____    ______ ____
ROOT
ATOM     15  C   UNL     1      -6.705 -10.191  14.504  0.00  0.00    +0.154 C 
ATOM     16  C   UNL     1      -5.944 -10.428  14.715  0.00  0.00    +0.166 C 
ATOM     17  O   UNL     1      -5.442 -10.265  14.081  0.00  0.00    -0.350 OA
ATOM     18  C   UNL     1      -5.892  -9.929  13.478  0.00  0.00    +0.166 C 
ATOM     19  C   UNL     1      -5.862  -9.621  12.714  0.00  0.00    +0.155 C 
ATOM     20  C   UNL     1      -6.623  -9.385  12.502  0.00  0.00    +0.166 C 
ATOM     21  O   UNL     1      -7.125  -9.547  13.136  0.00  0.00    -0.350 OA
ATOM     22  C   UNL     1      -6.673  -9.884  13.740  0.00  0.00    +0.166 C 
ENDROOT
BRANCH  15  14
ATOM      9  C   UNL     1      -8.021  -9.786  17.009  0.00  0.00    +0.086 A 
ATOM     10  C   UNL     1      -7.330  -9.461  17.319  0.00  0.00    +0.040 A 
ATOM     11  C   UNL     1      -6.655  -9.400  16.848  0.00  0.00    +0.103 A 
ATOM     12  N   UNL     1      -6.671  -9.664  16.067  0.00  0.00    -0.211 NA
ATOM     13  C   UNL     1      -7.364  -9.989  15.756  0.00  0.00    +0.237 A 
ATOM     14  N   UNL     1      -7.380 -10.253  14.975  0.00  0.00    -0.200 NA
ATOM     32  N   UNL     1      -8.038 -10.050  16.227  0.00  0.00    -0.212 NA
BRANCH   9   6
ATOM      3  C   UNL     1     -10.045  -9.970  18.422  0.00  0.00    +0.139 A 
ATOM      4  C   UNL     1      -9.947  -9.319  17.923  0.00  0.00    +0.037 A 
ATOM      5  C   UNL     1      -9.273  -9.258  17.452  0.00  0.00    +0.005 A 
ATOM      6  C   UNL     1      -8.695  -9.847  17.479  0.00  0.00    +0.018 A 
ATOM      7  C   UNL     1      -8.793 -10.497  17.978  0.00  0.00    +0.005 A 
ATOM      8  C   UNL     1      -9.467 -10.559  18.449  0.00  0.00    +0.037 A 
BRANCH   3   2
ATOM      1  C   UNL     1     -10.646 -10.193  19.698  0.00  0.00    +0.252 C 
ATOM      2  O   UNL     1     -10.719 -10.031  18.893  0.00  0.00    -0.471 OA
ENDBRANCH   3   2
ENDBRANCH   9   6
ENDBRANCH  15  14
BRANCH  19  23
ATOM     23  N   UNL     1      -5.187  -9.560  12.243  0.00  0.00    -0.198 NA
ATOM     24  C   UNL     1      -5.251  -9.604  11.422  0.00  0.00    +0.265 C 
ATOM     25  O   UNL     1      -5.990  -9.709  11.070  0.00  0.00    -0.268 OA
BRANCH  24  26
ATOM     26  C   UNL     1      -4.576  -9.542  10.951  0.00  0.00    +0.055 A 
ATOM     27  C   UNL     1      -3.985 -10.116  11.000  0.00  0.00    +0.005 A 
ATOM     28  C   UNL     1      -3.310 -10.055  10.530  0.00  0.00    +0.000 A 
ATOM     29  C   UNL     1      -3.227  -9.420  10.009  0.00  0.00    +0.000 A 
ATOM     30  C   UNL     1      -3.818  -8.847   9.960  0.00  0.00    +0.000 A 
ATOM     31  C   UNL     1      -4.493  -8.908  10.430  0.00  0.00    +0.005 A 
ENDBRANCH  24  26
ENDBRANCH  19  23
TORSDOF 5
ENDMDL
MODEL 5
REMARK VINA RESULT:      -6.8     14.872     15.750
REMARK  Name = 
REMARK  5 active torsions:
REMARK  status: ('A' for Active; 'I' for Inactive)
REMARK    1  A    between atoms: O_2  and  C_3
REMARK    2  A    between atoms: C_6  and  C_9
REMARK    3  A    between atoms: N_14  and  C_15
REMARK    4  A    between atoms: C_19  and  N_23
REMARK    5  A    between atoms: C_24  and  C_26
REMARK                            x       y       z     vdW  Elec       q    Type
REMARK                         _______ _______ _______ _____ _____    ______ ____
ROOT
ATOM     15  C   UNL     1      -6.114 -10.364  14.899  0.00  0.00    +0.154 C 
ATOM     16  C   UNL     1      -6.751 -10.781  14.584  0.00  0.00    +0.166 C 
ATOM     17  O   UNL     1      -7.386 -10.709  15.105  0.00  0.00    -0.350 OA
ATOM     18  C   UNL     1      -7.141 -10.247  15.743  0.00  0.00    +0.166 C 
ATOM     19  C   UNL     1      -7.381  -9.916  16.460  0.00  0.00    +0.155 C 
ATOM     20  C   UNL     1      -6.744  -9.500  16.775  0.00  0.00    +0.166 C 
ATOM     21  O   UNL     1      -6.109  -9.572  16.254  0.00  0.00    -0.350 OA
ATOM     22  C   UNL     1      -6.354 -10.034  15.616  0.00  0.00    +0.166 C 
ENDROOT
BRANCH  15  14
ATOM      9  C   UNL     1      -4.439 -10.360  12.583  0.00  0.00    +0.086 A 
ATOM     10  C   UNL     1      -5.097 -10.506  12.107  0.00  0.00    +0.040 A 
ATOM     11  C   UNL     1      -5.845 -10.580  12.448  0.00  0.00    +0.103 A 
ATOM     12  N   UNL     1      -5.935 -10.508  13.265  0.00  0.00    -0.211 NA
ATOM     13  C   UNL     1      -5.276 -10.362  13.741  0.00  0.00    +0.237 A 
ATOM     14  N   UNL     1      -5.366 -10.290  14.558  0.00  0.00    -0.200 NA
ATOM     32  N   UNL     1      -4.529 -10.288  13.400  0.00  0.00    -0.212 NA
BRANCH   9   6
ATOM      3  C   UNL     1      -2.197 -10.139  11.558  0.00  0.00    +0.139 A 
ATOM      4  C   UNL     1      -2.273 -10.430  12.327  0.00  0.00    +0.037 A 
ATOM      5  C   UNL     1      -3.020 -10.504  12.668  0.00  0.00    +0.005 A 
ATOM      6  C   UNL     1      -3.692 -10.287  12.242  0.00  0.00    +0.018 A 
ATOM      7  C   UNL     1      -3.616  -9.995  11.474  0.00  0.00    +0.005 A 
ATOM      8  C   UNL     1      -2.869  -9.921  11.132  0.00  0.00    +0.037 A 
BRANCH   3   2
ATOM      1  C   UNL     1      -0.949  -9.452  11.449  0.00  0.00    +0.252 C 
ATOM      2  O   UNL     1      -1.450 -10.065  11.217  0.00  0.00    -0.471 OA
ENDBRANCH   3   2
ENDBRANCH   9   6
ENDBRANCH  15  14
BRANCH  19  23
ATOM     23  N   UNL     1      -8.129  -9.990  16.801  0.00  0.00    -0.198 NA
ATOM     24  C   UNL     1      -8.414  -9.400  17.301  0.00  0.00    +0.265 C 
ATOM     25  O   UNL     1      -7.952  -8.735  17.461  0.00  0.00    -0.268 OA
BRANCH  24  26
ATOM     26  C   UNL     1      -9.162  -9.474  17.643  0.00  0.00    +0.055 A 
ATOM     27  C   UNL     1      -9.332 -10.118  18.129  0.00  0.00    +0.005 A 
ATOM     28  C   UNL     1     -10.079 -10.192  18.471  0.00  0.00    +0.000 A 
ATOM     29  C   UNL     1     -10.657  -9.621  18.324  0.00  0.00    +0.000 A 
ATOM     30  C   UNL     1     -10.487  -8.978  17.838  0.00  0.00    +0.000 A 
ATOM     31  C   UNL     1      -9.740  -8.903  17.496  0.00  0.00    +0.005 A 
ENDBRANCH  24  26
ENDBRANCH  19  23
TORSDOF 5
ENDMDL
MODEL 6
REMARK VINA RESULT:      -6.5     14.925     16.354
REMARK  Name = 
REMARK  5 active torsions:
REMARK  status: ('A' for Active; 'I' for Inactive)
REMARK    1  A    between atoms: O_2  and  C_3
REMARK    2  A    between atoms: C_6  and  C_9
REMARK    3  A    between atoms: N_14  and  C_15
REMARK    4  A    between atoms: C_19  and  N_23
REMARK    5  A    between atoms: C_24  and  C_26
REMARK                            x       y       z     vdW  Elec       q    Type
REMARK                         _______ _______ _______ _____ _____    ______ ____
ROOT
ATOM     15  C   UNL     1      -5.800 -10.467  14.404  0.00  0.00    +0.154 C 
ATOM     16  C   UNL     1      -6.614 -10.455  14.538  0.00  0.00    +0.166 C 
ATOM     17  O   UNL     1      -6.739 -10.544  15.349  0.00  0.00    -0.350 OA
ATOM     18  C   UNL     1      -6.004 -10.611  15.715  0.00  0.00    +0.166 C 
ATOM     19  C   UNL     1      -5.625 -10.708  16.442  0.00  0.00    +0.155 C 
ATOM     20  C   UNL     1      -4.812 -10.720  16.307  0.00  0.00    +0.166 C 
ATOM     21  O   UNL     1      -4.686 -10.631  15.497  0.00  0.00    -0.350 OA
ATOM     22  C   UNL     1      -5.423 -10.564  15.131  0.00  0.00    +0.166 C 
ENDROOT
BRANCH  15  14
ATOM      9  C   UNL     1      -5.794  -9.490  11.717  0.00  0.00    +0.086 A 
ATOM     10  C   UNL     1      -6.533  -9.146  11.841  0.00  0.00    +0.040 A 
ATOM     11  C   UNL     1      -6.905  -9.218  12.575  0.00  0.00    +0.103 A 
ATOM     12  N   UNL     1      -6.537  -9.634  13.185  0.00  0.00    -0.211 NA
ATOM     13  C   UNL     1      -5.797  -9.979  13.060  0.00  0.00    +0.237 A 
ATOM     14  N   UNL     1      -5.429 -10.395  13.670  0.00  0.00    -0.200 NA
ATOM     32  N   UNL     1      -5.426  -9.907  12.327  0.00  0.00    -0.212 NA
BRANCH   9   6
ATOM      3  C   UNL     1      -4.681  -9.274   9.517  0.00  0.00    +0.139 A 
ATOM      4  C   UNL     1      -4.854  -8.600   9.961  0.00  0.00    +0.037 A 
ATOM      5  C   UNL     1      -5.225  -8.672  10.694  0.00  0.00    +0.005 A 
ATOM      6  C   UNL     1      -5.423  -9.418  10.985  0.00  0.00    +0.018 A 
ATOM      7  C   UNL     1      -5.251 -10.092  10.542  0.00  0.00    +0.005 A 
ATOM      8  C   UNL     1      -4.880 -10.020   9.808  0.00  0.00    +0.037 A 
BRANCH   3   2
ATOM      1  C   UNL     1      -4.734  -8.921   8.134  0.00  0.00    +0.252 C 
ATOM      2  O   UNL     1      -4.311  -9.202   8.784  0.00  0.00    -0.471 OA
ENDBRANCH   3   2
ENDBRANCH   9   6
ENDBRANCH  15  14
BRANCH  19  23
ATOM     23  N   UNL     1      -5.996 -10.780  17.175  0.00  0.00    -0.198 NA
ATOM     24  C   UNL     1      -5.624 -10.499  17.855  0.00  0.00    +0.265 C 
ATOM     25  O   UNL     1      -4.880 -10.146  17.803  0.00  0.00    -0.268 OA
BRANCH  24  26
ATOM     26  C   UNL     1      -5.995 -10.571  18.589  0.00  0.00    +0.055 A 
ATOM     27  C   UNL     1      -6.816 -10.506  18.644  0.00  0.00    +0.005 A 
ATOM     28  C   UNL     1      -7.188 -10.578  19.377  0.00  0.00    +0.000 A 
ATOM     29  C   UNL     1      -6.737 -10.715  20.055  0.00  0.00    +0.000 A 
ATOM     30  C   UNL     1      -5.917 -10.780  20.000  0.00  0.00    +0.000 A 
ATOM     31  C   UNL     1      -5.545 -10.708  19.267  0.00  0.00    +0.005 A 
ENDBRANCH  24  26
ENDBRANCH  19  23
TORSDOF 5
ENDMDL
