MODEL 1
REMARK VINA RESULT:     -11.8      0.000      0.000
REMARK  Name = 
REMARK  8 active torsions:
REMARK  status: ('A' for Active; 'I' for Inactive)
REMARK    1  A    between atoms: C_7  and  C_8
REMARK    2  A    between atoms: N_10  and  C_11
REMARK    3  A    between atoms: C_14  and  C_17
REMARK    4  A    between atoms: C_17  and  C_19
REMARK    5  A    between atoms: N_25  and  C_26
REMARK    6  A    between atoms: C_26  and  C_27
REMARK    7  A    between atoms: C_27  and  C_28
REMARK    8  A    between atoms: C_28  and  C_29
REMARK                            x       y       z     vdW  Elec       q    Type
REMARK                         _______ _______ _______ _____ _____    ______ ____
ROOT
ATOM     17  C   UNL     1      -4.011   2.845  24.100  0.00  0.00    +0.195 C 
ATOM     18  O   UNL     1      -3.864   3.298  23.427  0.00  0.00    -0.216 OA
ENDROOT
BRANCH  17  19
ATOM     19  C   UNL     1      -4.255   3.210  24.799  0.00  0.00    +0.139 C 
ATOM     20  C   UNL     1      -5.029   3.113  25.067  0.00  0.00    +0.165 C 
ATOM     21  O   UNL     1      -5.272   3.479  25.765  0.00  0.00    -0.343 OA
ATOM     22  C   UNL     1      -4.741   3.941  26.196  0.00  0.00    +0.227 C 
ATOM     23  C   UNL     1      -3.967   4.038  25.928  0.00  0.00    +0.256 C 
ATOM     24  O   UNL     1      -3.436   4.500  26.358  0.00  0.00    -0.272 OA
ATOM     25  N   UNL     1      -3.724   3.672  25.229  0.00  0.00    -0.274 N 
BRANCH  25  26
ATOM     26  C   UNL     1      -2.950   3.769  24.961  0.00  0.00    +0.094 C 
BRANCH  26  27
ATOM     27  C   UNL     1      -2.318   3.685  25.485  0.00  0.00    +0.026 C 
BRANCH  27  28
ATOM     28  C   UNL     1      -1.552   3.871  25.243  0.00  0.00    +0.028 C 
BRANCH  28  29
ATOM     29  C   UNL     1      -0.943   3.324  25.346  0.00  0.00    -0.022 A 
ATOM     30  C   UNL     1      -0.805   2.996  26.090  0.00  0.00    -0.004 A 
ATOM     31  C   UNL     1      -0.196   2.449  26.194  0.00  0.00    -0.000 A 
ATOM     32  C   UNL     1       0.274   2.230  25.553  0.00  0.00    -0.000 A 
ATOM     33  C   UNL     1       0.136   2.558  24.809  0.00  0.00    -0.000 A 
ATOM     34  C   UNL     1      -0.473   3.105  24.705  0.00  0.00    -0.004 A 
ENDBRANCH  28  29
ENDBRANCH  27  28
ENDBRANCH  26  27
ENDBRANCH  25  26
ENDBRANCH  17  19
BRANCH  17  14
ATOM     11  C   UNL     1      -3.722   0.388  24.024  0.00  0.00    +0.074 A 
ATOM     12  C   UNL     1      -3.280   0.871  23.523  0.00  0.00    +0.016 A 
ATOM     13  C   UNL     1      -3.377   1.689  23.548  0.00  0.00    -0.000 A 
ATOM     14  C   UNL     1      -3.915   2.026  24.075  0.00  0.00    +0.010 A 
ATOM     15  C   UNL     1      -4.357   1.543  24.577  0.00  0.00    -0.000 A 
ATOM     16  C   UNL     1      -4.261   0.723  24.551  0.00  0.00    +0.016 A 
BRANCH  11  10
ATOM      8  C   UNL     1      -3.124  -0.804  24.537  0.00  0.00    +0.286 C 
ATOM      9  O   UNL     1      -2.718  -0.358  25.100  0.00  0.00    -0.266 OA
ATOM     10  N   UNL     1      -3.626  -0.431  23.999  0.00  0.00    -0.174 NA
BRANCH   8   7
ATOM      1  C   UNL     1      -1.566  -1.688  24.653  0.00  0.00    +0.154 C 
ATOM      2  N   UNL     1      -2.311  -2.029  24.565  0.00  0.00    -0.245 N 
ATOM      3  N   UNL     1      -2.472  -2.837  24.515  0.00  0.00    -0.173 NA
ATOM      4  C   UNL     1      -3.287  -2.930  24.430  0.00  0.00    +0.081 A 
ATOM      5  C   UNL     1      -3.689  -3.647  24.360  0.00  0.00    +0.054 C 
ATOM      6  C   UNL     1      -3.630  -2.180  24.428  0.00  0.00    +0.040 A 
ATOM      7  C   UNL     1      -3.027  -1.624  24.511  0.00  0.00    +0.134 A 
ENDBRANCH   8   7
ENDBRANCH  11  10
ENDBRANCH  17  14
TORSDOF 8
ENDMDL
MODEL 2
REMARK VINA RESULT:     -11.4      2.642      4.785
REMARK  Name = 
REMARK  8 active torsions:
REMARK  status: ('A' for Active; 'I' for Inactive)
REMARK    1  A    between atoms: C_7  and  C_8
REMARK    2  A    between atoms: N_10  and  C_11
REMARK    3  A    between atoms: C_14  and  C_17
REMARK    4  A    between atoms: C_17  and  C_19
REMARK    5  A    between atoms: N_25  and  C_26
REMARK    6  A    between atoms: C_26  and  C_27
REMARK    7  A    between atoms: C_27  and  C_28
REMARK    8  A    between atoms: C_28  and  C_29
REMARK                            x       y       z     vdW  Elec       q    Type
REMARK                         _______ _______ _______ _____ _____    ______ ____
ROOT
ATOM     17  C   UNL     1      -1.998   1.581  25.056  0.00  0.00    +0.195 C 
ATOM     18  O   UNL     1      -2.086   1.283  25.820  0.00  0.00    -0.216 OA
ENDROOT
BRANCH  17  19
ATOM     19  C   UNL     1      -2.630   1.961  24.686  0.00  0.00    +0.139 C 
ATOM     20  C   UNL     1      -2.509   2.678  24.297  0.00  0.00    +0.165 C 
ATOM     21  O   UNL     1      -3.141   3.058  23.926  0.00  0.00    -0.343 OA
ATOM     22  C   UNL     1      -3.894   2.721  23.946  0.00  0.00    +0.227 C 
ATOM     23  C   UNL     1      -4.015   2.004  24.336  0.00  0.00    +0.256 C 
ATOM     24  O   UNL     1      -4.767   1.667  24.356  0.00  0.00    -0.272 OA
ATOM     25  N   UNL     1      -3.382   1.624  24.706  0.00  0.00    -0.274 N 
BRANCH  25  26
ATOM     26  C   UNL     1      -3.503   0.907  25.096  0.00  0.00    +0.094 C 
BRANCH  26  27
ATOM     27  C   UNL     1      -3.841   0.271  24.693  0.00  0.00    +0.026 C 
BRANCH  27  28
ATOM     28  C   UNL     1      -4.104  -0.389  25.112  0.00  0.00    +0.028 C 
BRANCH  28  29
ATOM     29  C   UNL     1      -3.975  -1.147  24.810  0.00  0.00    -0.022 A 
ATOM     30  C   UNL     1      -4.305  -1.364  24.086  0.00  0.00    -0.004 A 
ATOM     31  C   UNL     1      -4.177  -2.121  23.784  0.00  0.00    -0.000 A 
ATOM     32  C   UNL     1      -3.718  -2.660  24.207  0.00  0.00    -0.000 A 
ATOM     33  C   UNL     1      -3.389  -2.443  24.931  0.00  0.00    -0.000 A 
ATOM     34  C   UNL     1      -3.517  -1.686  25.234  0.00  0.00    -0.004 A 
ENDBRANCH  28  29
ENDBRANCH  27  28
ENDBRANCH  26  27
ENDBRANCH  25  26
ENDBRANCH  17  19
BRANCH  17  14
ATOM     11  C   UNL     1       0.163   1.338  23.875  0.00  0.00    +0.074 A 
ATOM     12  C   UNL     1      -0.521   1.002  23.558  0.00  0.00    +0.016 A 
ATOM     13  C   UNL     1      -1.240   1.083  23.951  0.00  0.00    -0.000 A 
ATOM     14  C   UNL     1      -1.277   1.500  24.662  0.00  0.00    +0.010 A 
ATOM     15  C   UNL     1      -0.594   1.836  24.980  0.00  0.00    -0.000 A 
ATOM     16  C   UNL     1       0.127   1.755  24.586  0.00  0.00    +0.016 A 
BRANCH  11  10
ATOM      8  C   UNL     1       1.208   0.507  23.364  0.00  0.00    +0.286 C 
ATOM      9  O   UNL     1       0.811  -0.161  23.642  0.00  0.00    -0.266 OA
ATOM     10  N   UNL     1       0.884   1.256  23.481  0.00  0.00    -0.174 NA
BRANCH   8   7
ATOM      1  C   UNL     1       1.493  -0.449  21.872  0.00  0.00    +0.154 C 
ATOM      2  N   UNL     1       2.059  -0.013  22.285  0.00  0.00    -0.245 N 
ATOM      3  N   UNL     1       2.856   0.059  22.084  0.00  0.00    -0.173 NA
ATOM      4  C   UNL     1       3.217   0.543  22.646  0.00  0.00    +0.081 A 
ATOM      5  C   UNL     1       4.013   0.762  22.658  0.00  0.00    +0.054 C 
ATOM      6  C   UNL     1       2.644   0.769  23.193  0.00  0.00    +0.040 A 
ATOM      7  C   UNL     1       1.929   0.426  22.970  0.00  0.00    +0.134 A 
ENDBRANCH   8   7
ENDBRANCH  11  10
ENDBRANCH  17  14
TORSDOF 8
ENDMDL
MODEL 3
REMARK VINA RESULT:     -10.6      2.480      4.864
REMARK  Name = 
REMARK  8 active torsions:
REMARK  status: ('A' for Active; 'I' for Inactive)
REMARK    1  A    between atoms: C_7  and  C_8
REMARK    2  A    between atoms: N_10  and  C_11
REMARK    3  A    between atoms: C_14  and  C_17
REMARK    4  A    between atoms: C_17  and  C_19
REMARK    5  A    between atoms: N_25  and  C_26
REMARK    6  A    between atoms: C_26  and  C_27
REMARK    7  A    between atoms: C_27  and  C_28
REMARK    8  A    between atoms: C_28  and  C_29
REMARK                            x       y       z     vdW  Elec       q    Type
REMARK                         _______ _______ _______ _____ _____    ______ ____
ROOT
ATOM     17  C   UNL     1      -2.276  -0.791  25.276  0.00  0.00    +0.195 C 
ATOM     18  O   UNL     1      -2.425  -0.550  26.051  0.00  0.00    -0.216 OA
ENDROOT
BRANCH  17  19
ATOM     19  C   UNL     1      -2.872  -1.151  24.834  0.00  0.00    +0.139 C 
ATOM     20  C   UNL     1      -2.744  -1.892  24.495  0.00  0.00    +0.165 C 
ATOM     21  O   UNL     1      -3.340  -2.252  24.053  0.00  0.00    -0.343 OA
ATOM     22  C   UNL     1      -4.065  -1.870  23.950  0.00  0.00    +0.227 C 
ATOM     23  C   UNL     1      -4.193  -1.129  24.288  0.00  0.00    +0.256 C 
ATOM     24  O   UNL     1      -4.917  -0.748  24.185  0.00  0.00    -0.272 OA
ATOM     25  N   UNL     1      -3.596  -0.770  24.731  0.00  0.00    -0.274 N 
BRANCH  25  26
ATOM     26  C   UNL     1      -3.724  -0.028  25.070  0.00  0.00    +0.094 C 
BRANCH  26  27
ATOM     27  C   UNL     1      -4.035   0.585  24.614  0.00  0.00    +0.026 C 
BRANCH  27  28
ATOM     28  C   UNL     1      -4.389   1.234  24.981  0.00  0.00    +0.028 C 
BRANCH  28  29
ATOM     29  C   UNL     1      -4.191   1.999  24.744  0.00  0.00    -0.022 A 
ATOM     30  C   UNL     1      -3.994   2.568  25.308  0.00  0.00    -0.004 A 
ATOM     31  C   UNL     1      -3.796   3.334  25.072  0.00  0.00    -0.000 A 
ATOM     32  C   UNL     1      -3.796   3.529  24.271  0.00  0.00    -0.000 A 
ATOM     33  C   UNL     1      -3.993   2.961  23.706  0.00  0.00    -0.000 A 
ATOM     34  C   UNL     1      -4.190   2.195  23.942  0.00  0.00    -0.004 A 
ENDBRANCH  28  29
ENDBRANCH  27  28
ENDBRANCH  26  27
ENDBRANCH  25  26
ENDBRANCH  17  19
BRANCH  17  14
ATOM     11  C   UNL     1      -0.039  -0.434  24.278  0.00  0.00    +0.074 A 
ATOM     12  C   UNL     1      -0.298  -1.199  24.449  0.00  0.00    +0.016 A 
ATOM     13  C   UNL     1      -1.043  -1.317  24.781  0.00  0.00    -0.000 A 
ATOM     14  C   UNL     1      -1.530  -0.672  24.943  0.00  0.00    +0.010 A 
ATOM     15  C   UNL     1      -1.272   0.093  24.773  0.00  0.00    -0.000 A 
ATOM     16  C   UNL     1      -0.526   0.212  24.440  0.00  0.00    +0.016 A 
BRANCH  11  10
ATOM      8  C   UNL     1       0.773  -0.053  23.166  0.00  0.00    +0.286 C 
ATOM      9  O   UNL     1       0.094   0.090  22.720  0.00  0.00    -0.266 OA
ATOM     10  N   UNL     1       0.706  -0.315  23.945  0.00  0.00    -0.174 NA
BRANCH   8   7
ATOM      1  C   UNL     1       1.301  -0.595  21.539  0.00  0.00    +0.154 C 
ATOM      2  N   UNL     1       1.762  -0.183  22.086  0.00  0.00    -0.245 N 
ATOM      3  N   UNL     1       2.545   0.053  21.981  0.00  0.00    -0.173 NA
ATOM      4  C   UNL     1       2.786   0.447  22.663  0.00  0.00    +0.081 A 
ATOM      5  C   UNL     1       3.532   0.775  22.796  0.00  0.00    +0.054 C 
ATOM      6  C   UNL     1       2.153   0.455  23.190  0.00  0.00    +0.040 A 
ATOM      7  C   UNL     1       1.519   0.067  22.833  0.00  0.00    +0.134 A 
ENDBRANCH   8   7
ENDBRANCH  11  10
ENDBRANCH  17  14
TORSDOF 8
ENDMDL
MODEL 4
REMARK VINA RESULT:     -10.2      1.879      3.659
REMARK  Name = 
REMARK  8 active torsions:
REMARK  status: ('A' for Active; 'I' for Inactive)
REMARK    1  A    between atoms: C_7  and  C_8
REMARK    2  A    between atoms: N_10  and  C_11
REMARK    3  A    between atoms: C_14  and  C_17
REMARK    4  A    between atoms: C_17  and  C_19
REMARK    5  A    between atoms: N_25  and  C_26
REMARK    6  A    between atoms: C_26  and  C_27
REMARK    7  A    between atoms: C_27  and  C_28
REMARK    8  A    between atoms: C_28  and  C_29
REMARK                            x       y       z     vdW  Elec       q    Type
REMARK                         _______ _______ _______ _____ _____    ______ ____
ROOT
ATOM     17  C   UNL     1      -3.549   2.880  23.729  0.00  0.00    +0.195 C 
ATOM     18  O   UNL     1      -4.054   2.989  23.086  0.00  0.00    -0.216 OA
ENDROOT
BRANCH  17  19
ATOM     19  C   UNL     1      -3.779   3.130  24.481  0.00  0.00    +0.139 C 
ATOM     20  C   UNL     1      -3.463   3.822  24.800  0.00  0.00    +0.165 C 
ATOM     21  O   UNL     1      -3.693   4.071  25.552  0.00  0.00    -0.343 OA
ATOM     22  C   UNL     1      -4.238   3.628  25.985  0.00  0.00    +0.227 C 
ATOM     23  C   UNL     1      -4.554   2.936  25.666  0.00  0.00    +0.256 C 
ATOM     24  O   UNL     1      -5.099   2.493  26.098  0.00  0.00    -0.272 OA
ATOM     25  N   UNL     1      -4.323   2.687  24.913  0.00  0.00    -0.274 N 
BRANCH  25  26
ATOM     26  C   UNL     1      -4.639   1.995  24.594  0.00  0.00    +0.094 C 
BRANCH  26  27
ATOM     27  C   UNL     1      -4.627   1.296  25.032  0.00  0.00    +0.026 C 
BRANCH  27  28
ATOM     28  C   UNL     1      -4.970   0.611  24.726  0.00  0.00    +0.028 C 
BRANCH  28  29
ATOM     29  C   UNL     1      -4.570  -0.109  24.777  0.00  0.00    -0.022 A 
ATOM     30  C   UNL     1      -4.191  -0.322  25.478  0.00  0.00    -0.004 A 
ATOM     31  C   UNL     1      -3.790  -1.041  25.530  0.00  0.00    -0.000 A 
ATOM     32  C   UNL     1      -3.769  -1.548  24.879  0.00  0.00    -0.000 A 
ATOM     33  C   UNL     1      -4.148  -1.335  24.178  0.00  0.00    -0.000 A 
ATOM     34  C   UNL     1      -4.549  -0.616  24.126  0.00  0.00    -0.004 A 
ENDBRANCH  28  29
ENDBRANCH  27  28
ENDBRANCH  26  27
ENDBRANCH  25  26
ENDBRANCH  17  19
BRANCH  17  14
ATOM     11  C   UNL     1      -1.342   1.808  23.401  0.00  0.00    +0.074 A 
ATOM     12  C   UNL     1      -1.481   2.269  24.071  0.00  0.00    +0.016 A 
ATOM     13  C   UNL     1      -2.216   2.626  24.180  0.00  0.00    -0.000 A 
ATOM     14  C   UNL     1      -2.813   2.523  23.619  0.00  0.00    +0.010 A 
ATOM     15  C   UNL     1      -2.674   2.062  22.949  0.00  0.00    -0.000 A 
ATOM     16  C   UNL     1      -1.938   1.704  22.840  0.00  0.00    +0.016 A 
BRANCH  11  10
ATOM      8  C   UNL     1      -0.475   0.684  23.568  0.00  0.00    +0.286 C 
ATOM      9  O   UNL     1      -1.079   0.276  23.954  0.00  0.00    -0.266 OA
ATOM     10  N   UNL     1      -0.606   1.450  23.291  0.00  0.00    -0.174 NA
BRANCH   8   7
ATOM      1  C   UNL     1      -0.008  -0.959  24.119  0.00  0.00    +0.154 C 
ATOM      2  N   UNL     1       0.475  -0.428  23.712  0.00  0.00    -0.245 N 
ATOM      3  N   UNL     1       1.257  -0.560  23.486  0.00  0.00    -0.173 NA
ATOM      4  C   UNL     1       1.526   0.114  23.094  0.00  0.00    +0.081 A 
ATOM      5  C   UNL     1       2.279   0.221  22.774  0.00  0.00    +0.054 C 
ATOM      6  C   UNL     1       0.910   0.661  23.077  0.00  0.00    +0.040 A 
ATOM      7  C   UNL     1       0.261   0.327  23.458  0.00  0.00    +0.134 A 
ENDBRANCH   8   7
ENDBRANCH  11  10
ENDBRANCH  17  14
TORSDOF 8
ENDMDL
MODEL 5
REMARK VINA RESULT:      -9.8      1.291      2.949
REMARK  Name = 
REMARK  8 active torsions:
REMARK  status: ('A' for Active; 'I' for Inactive)
REMARK    1  A    between atoms: C_7  and  C_8
REMARK    2  A    between atoms: N_10  and  C_11
REMARK    3  A    between atoms: C_14  and  C_17
REMARK    4  A    between atoms: C_17  and  C_19
REMARK    5  A    between atoms: N_25  and  C_26
REMARK    6  A    between atoms: C_26  and  C_27
REMARK    7  A    between atoms: C_27  and  C_28
REMARK    8  A    between atoms: C_28  and  C_29
REMARK                            x       y       z     vdW  Elec       q    Type
REMARK                         _______ _______ _______ _____ _____    ______ ____
ROOT
ATOM     17  C   UNL     1      -1.639   2.596  23.845  0.00  0.00    +0.195 C 
ATOM     18  O   UNL     1      -1.715   2.919  23.090  0.00  0.00    -0.216 OA
ENDROOT
BRANCH  17  19
ATOM     19  C   UNL     1      -1.394   3.070  24.474  0.00  0.00    +0.139 C 
ATOM     20  C   UNL     1      -0.627   2.998  24.770  0.00  0.00    +0.165 C 
ATOM     21  O   UNL     1      -0.381   3.471  25.399  0.00  0.00    -0.343 OA
ATOM     22  C   UNL     1      -0.903   4.017  25.732  0.00  0.00    +0.227 C 
ATOM     23  C   UNL     1      -1.670   4.090  25.436  0.00  0.00    +0.256 C 
ATOM     24  O   UNL     1      -2.191   4.635  25.769  0.00  0.00    -0.272 OA
ATOM     25  N   UNL     1      -1.915   3.615  24.807  0.00  0.00    -0.274 N 
BRANCH  25  26
ATOM     26  C   UNL     1      -2.682   3.688  24.511  0.00  0.00    +0.094 C 
BRANCH  26  27
ATOM     27  C   UNL     1      -3.324   3.692  25.029  0.00  0.00    +0.026 C 
BRANCH  27  28
ATOM     28  C   UNL     1      -4.090   3.779  24.735  0.00  0.00    +0.028 C 
BRANCH  28  29
ATOM     29  C   UNL     1      -4.700   3.305  25.027  0.00  0.00    -0.022 A 
ATOM     30  C   UNL     1      -5.110   2.802  24.518  0.00  0.00    -0.004 A 
ATOM     31  C   UNL     1      -5.719   2.327  24.808  0.00  0.00    -0.000 A 
ATOM     32  C   UNL     1      -5.918   2.357  25.608  0.00  0.00    -0.000 A 
ATOM     33  C   UNL     1      -5.508   2.860  26.117  0.00  0.00    -0.000 A 
ATOM     34  C   UNL     1      -4.898   3.335  25.827  0.00  0.00    -0.004 A 
ENDBRANCH  28  29
ENDBRANCH  27  28
ENDBRANCH  26  27
ENDBRANCH  25  26
ENDBRANCH  17  19
BRANCH  17  14
ATOM     11  C   UNL     1      -2.150   0.204  24.223  0.00  0.00    +0.074 A 
ATOM     12  C   UNL     1      -1.658   0.609  24.747  0.00  0.00    +0.016 A 
ATOM     13  C   UNL     1      -1.488   1.405  24.621  0.00  0.00    -0.000 A 
ATOM     14  C   UNL     1      -1.810   1.799  23.971  0.00  0.00    +0.010 A 
ATOM     15  C   UNL     1      -2.302   1.394  23.447  0.00  0.00    -0.000 A 
ATOM     16  C   UNL     1      -2.472   0.596  23.573  0.00  0.00    +0.016 A 
BRANCH  11  10
ATOM      8  C   UNL     1      -3.036  -0.813  24.696  0.00  0.00    +0.286 C 
ATOM      9  O   UNL     1      -3.581  -0.235  24.917  0.00  0.00    -0.266 OA
ATOM     10  N   UNL     1      -2.320  -0.594  24.349  0.00  0.00    -0.174 NA
BRANCH   8   7
ATOM      1  C   UNL     1      -3.327  -1.591  26.287  0.00  0.00    +0.154 C 
ATOM      2  N   UNL     1      -3.340  -1.968  25.553  0.00  0.00    -0.245 N 
ATOM      3  N   UNL     1      -3.489  -2.768  25.422  0.00  0.00    -0.173 NA
ATOM      4  C   UNL     1      -3.446  -2.905  24.610  0.00  0.00    +0.081 A 
ATOM      5  C   UNL     1      -3.559  -3.631  24.233  0.00  0.00    +0.054 C 
ATOM      6  C   UNL     1      -3.272  -2.190  24.239  0.00  0.00    +0.040 A 
ATOM      7  C   UNL     1      -3.206  -1.611  24.822  0.00  0.00    +0.134 A 
ENDBRANCH   8   7
ENDBRANCH  11  10
ENDBRANCH  17  14
TORSDOF 8
ENDMDL
MODEL 6
REMARK VINA RESULT:      -9.7      1.836      2.504
REMARK  Name = 
REMARK  8 active torsions:
REMARK  status: ('A' for Active; 'I' for Inactive)
REMARK    1  A    between atoms: C_7  and  C_8
REMARK    2  A    between atoms: N_10  and  C_11
REMARK    3  A    between atoms: C_14  and  C_17
REMARK    4  A    between atoms: C_17  and  C_19
REMARK    5  A    between atoms: N_25  and  C_26
REMARK    6  A    between atoms: C_26  and  C_27
REMARK    7  A    between atoms: C_27  and  C_28
REMARK    8  A    between atoms: C_28  and  C_29
REMARK                            x       y       z     vdW  Elec       q    Type
REMARK                         _______ _______ _______ _____ _____    ______ ____
ROOT
ATOM     17  C   UNL     1      -4.273   2.504  23.841  0.00  0.00    +0.195 C 
ATOM     18  O   UNL     1      -4.485   3.094  23.305  0.00  0.00    -0.216 OA
ENDROOT
BRANCH  17  19
ATOM     19  C   UNL     1      -4.731   2.376  24.515  0.00  0.00    +0.139 C 
ATOM     20  C   UNL     1      -5.208   1.705  24.568  0.00  0.00    +0.165 C 
ATOM     21  O   UNL     1      -5.666   1.576  25.242  0.00  0.00    -0.343 OA
ATOM     22  C   UNL     1      -5.646   2.119  25.864  0.00  0.00    +0.227 C 
ATOM     23  C   UNL     1      -5.168   2.790  25.811  0.00  0.00    +0.256 C 
ATOM     24  O   UNL     1      -5.148   3.332  26.432  0.00  0.00    -0.272 OA
ATOM     25  N   UNL     1      -4.711   2.918  25.136  0.00  0.00    -0.274 N 
BRANCH  25  26
ATOM     26  C   UNL     1      -4.233   3.589  25.084  0.00  0.00    +0.094 C 
BRANCH  26  27
ATOM     27  C   UNL     1      -3.665   3.736  25.663  0.00  0.00    +0.026 C 
BRANCH  27  28
ATOM     28  C   UNL     1      -3.289   4.470  25.695  0.00  0.00    +0.028 C 
BRANCH  28  29
ATOM     29  C   UNL     1      -2.471   4.519  25.594  0.00  0.00    -0.022 A 
ATOM     30  C   UNL     1      -1.974   3.994  25.991  0.00  0.00    -0.004 A 
ATOM     31  C   UNL     1      -1.157   4.042  25.890  0.00  0.00    -0.000 A 
ATOM     32  C   UNL     1      -0.837   4.616  25.391  0.00  0.00    -0.000 A 
ATOM     33  C   UNL     1      -1.334   5.141  24.993  0.00  0.00    -0.000 A 
ATOM     34  C   UNL     1      -2.152   5.093  25.094  0.00  0.00    -0.004 A 
ENDBRANCH  28  29
ENDBRANCH  27  28
ENDBRANCH  26  27
ENDBRANCH  25  26
ENDBRANCH  17  19
BRANCH  17  14
ATOM     11  C   UNL     1      -2.264   1.119  23.426  0.00  0.00    +0.074 A 
ATOM     12  C   UNL     1      -2.356   1.840  23.035  0.00  0.00    +0.016 A 
ATOM     13  C   UNL     1      -3.025   2.301  23.174  0.00  0.00    -0.000 A 
ATOM     14  C   UNL     1      -3.603   2.042  23.703  0.00  0.00    +0.010 A 
ATOM     15  C   UNL     1      -3.512   1.321  24.093  0.00  0.00    -0.000 A 
ATOM     16  C   UNL     1      -2.842   0.859  23.955  0.00  0.00    +0.016 A 
BRANCH  11  10
ATOM      8  C   UNL     1      -0.977   0.652  23.834  0.00  0.00    +0.286 C 
ATOM      9  O   UNL     1      -1.029   1.109  24.519  0.00  0.00    -0.266 OA
ATOM     10  N   UNL     1      -1.595   0.657  23.287  0.00  0.00    -0.174 NA
BRANCH   8   7
ATOM      1  C   UNL     1      -0.561  -0.881  24.670  0.00  0.00    +0.154 C 
ATOM      2  N   UNL     1      -0.116  -0.514  24.080  0.00  0.00    -0.245 N 
ATOM      3  N   UNL     1       0.598  -0.788  23.770  0.00  0.00    -0.173 NA
ATOM      4  C   UNL     1       0.848  -0.252  23.195  0.00  0.00    +0.081 A 
ATOM      5  C   UNL     1       1.537  -0.311  22.745  0.00  0.00    +0.054 C 
ATOM      6  C   UNL     1       0.289   0.351  23.149  0.00  0.00    +0.040 A 
ATOM      7  C   UNL     1      -0.307   0.190  23.696  0.00  0.00    +0.134 A 
ENDBRANCH   8   7
ENDBRANCH  11  10
ENDBRANCH  17  14
TORSDOF 8
ENDMDL
MODEL 7
REMARK VINA RESULT:      -9.6      1.745      5.390
REMARK  Name = 
REMARK  8 active torsions:
REMARK  status: ('A' for Active; 'I' for Inactive)
REMARK    1  A    between atoms: C_7  and  C_8
REMARK    2  A    between atoms: N_10  and  C_11
REMARK    3  A    between atoms: C_14  and  C_17
REMARK    4  A    between atoms: C_17  and  C_19
REMARK    5  A    between atoms: N_25  and  C_26
REMARK    6  A    between atoms: C_26  and  C_27
REMARK    7  A    between atoms: C_27  and  C_28
REMARK    8  A    between atoms: C_28  and  C_29
REMARK                            x       y       z     vdW  Elec       q    Type
REMARK                         _______ _______ _______ _____ _____    ______ ____
ROOT
ATOM     17  C   UNL     1      -0.770   1.072  25.287  0.00  0.00    +0.195 C 
ATOM     18  O   UNL     1      -0.495   0.785  26.010  0.00  0.00    -0.216 OA
ENDROOT
BRANCH  17  19
ATOM     19  C   UNL     1      -0.375   0.877  24.589  0.00  0.00    +0.139 C 
ATOM     20  C   UNL     1      -0.078   1.474  24.103  0.00  0.00    +0.165 C 
ATOM     21  O   UNL     1       0.316   1.279  23.405  0.00  0.00    -0.343 OA
ATOM     22  C   UNL     1       0.414   0.488  23.193  0.00  0.00    +0.227 C 
ATOM     23  C   UNL     1       0.117  -0.109  23.679  0.00  0.00    +0.256 C 
ATOM     24  O   UNL     1       0.214  -0.900  23.468  0.00  0.00    -0.272 OA
ATOM     25  N   UNL     1      -0.278   0.086  24.377  0.00  0.00    -0.274 N 
BRANCH  25  26
ATOM     26  C   UNL     1      -0.575  -0.511  24.863  0.00  0.00    +0.094 C 
BRANCH  26  27
ATOM     27  C   UNL     1      -1.049  -1.105  24.543  0.00  0.00    +0.026 C 
BRANCH  27  28
ATOM     28  C   UNL     1      -1.308  -1.728  25.019  0.00  0.00    +0.028 C 
BRANCH  28  29
ATOM     29  C   UNL     1      -2.061  -2.047  24.905  0.00  0.00    -0.022 A 
ATOM     30  C   UNL     1      -2.676  -1.844  25.416  0.00  0.00    -0.004 A 
ATOM     31  C   UNL     1      -3.429  -2.163  25.303  0.00  0.00    -0.000 A 
ATOM     32  C   UNL     1      -3.565  -2.685  24.680  0.00  0.00    -0.000 A 
ATOM     33  C   UNL     1      -2.950  -2.889  24.170  0.00  0.00    -0.000 A 
ATOM     34  C   UNL     1      -2.197  -2.570  24.282  0.00  0.00    -0.004 A 
ENDBRANCH  28  29
ENDBRANCH  27  28
ENDBRANCH  26  27
ENDBRANCH  25  26
ENDBRANCH  17  19
BRANCH  17  14
ATOM     11  C   UNL     1      -2.779   2.515  25.212  0.00  0.00    +0.074 A 
ATOM     12  C   UNL     1      -2.735   1.844  24.735  0.00  0.00    +0.016 A 
ATOM     13  C   UNL     1      -2.066   1.363  24.760  0.00  0.00    -0.000 A 
ATOM     14  C   UNL     1      -1.439   1.553  25.262  0.00  0.00    +0.010 A 
ATOM     15  C   UNL     1      -1.483   2.225  25.739  0.00  0.00    -0.000 A 
ATOM     16  C   UNL     1      -2.153   2.706  25.714  0.00  0.00    +0.016 A 
BRANCH  11  10
ATOM      8  C   UNL     1      -4.172   2.711  25.461  0.00  0.00    +0.286 C 
ATOM      9  O   UNL     1      -4.226   1.944  25.760  0.00  0.00    -0.266 OA
ATOM     10  N   UNL     1      -3.449   2.997  25.187  0.00  0.00    -0.174 NA
BRANCH   8   7
ATOM      1  C   UNL     1      -5.871   2.148  25.328  0.00  0.00    +0.154 C 
ATOM      2  N   UNL     1      -5.623   2.934  25.375  0.00  0.00    -0.245 N 
ATOM      3  N   UNL     1      -6.111   3.598  25.369  0.00  0.00    -0.173 NA
ATOM      4  C   UNL     1      -5.633   4.267  25.426  0.00  0.00    +0.081 A 
ATOM      5  C   UNL     1      -5.893   5.050  25.440  0.00  0.00    +0.054 C 
ATOM      6  C   UNL     1      -4.849   4.016  25.468  0.00  0.00    +0.040 A 
ATOM      7  C   UNL     1      -4.842   3.192  25.436  0.00  0.00    +0.134 A 
ENDBRANCH   8   7
ENDBRANCH  11  10
ENDBRANCH  17  14
TORSDOF 8
ENDMDL
