MODEL 1
REMARK VINA RESULT:     -12.9      0.000      0.000
REMARK  Name = 
REMARK  4 active torsions:
REMARK  status: ('A' for Active; 'I' for Inactive)
REMARK    1  A    between atoms: C_4  and  C_18
REMARK    2  A    between atoms: C_6  and  N_7
REMARK    3  A    between atoms: C_8  and  C_10
REMARK    4  A    between atoms: N_20  and  C_21
REMARK                            x       y       z     vdW  Elec       q    Type
REMARK                         _______ _______ _______ _____ _____    ______ ____
ROOT
ATOM      1  O   UNL     1      -5.963   2.316  25.240  0.00  0.00    -0.220 OA
ATOM      2  C   UNL     1      -5.198   2.109  25.008  0.00  0.00    +0.189 C 
ATOM      3  C   UNL     1      -5.016   1.322  24.839  0.00  0.00    +0.066 C 
ATOM      4  C   UNL     1      -4.253   1.116  24.608  0.00  0.00    +0.033 C 
ATOM      5  C   UNL     1      -3.670   1.696  24.544  0.00  0.00    -0.002 C 
ATOM      6  C   UNL     1      -3.852   2.483  24.713  0.00  0.00    +0.150 C 
ATOM     16  C   UNL     1      -4.615   2.689  24.944  0.00  0.00    +0.206 C 
ATOM     17  O   UNL     1      -4.797   3.477  25.113  0.00  0.00    -0.218 OA
ENDROOT
BRANCH   6   7
ATOM      7  N   UNL     1      -3.268   3.064  24.649  0.00  0.00    -0.196 NA
ATOM      8  C   UNL     1      -2.586   3.016  25.112  0.00  0.00    +0.267 C 
ATOM      9  O   UNL     1      -2.488   2.388  25.637  0.00  0.00    -0.268 OA
BRANCH   8  10
ATOM     10  C   UNL     1      -2.004   3.596  25.049  0.00  0.00    +0.074 A 
ATOM     11  C   UNL     1      -1.291   3.426  24.669  0.00  0.00    +0.103 A 
ATOM     12  N   UNL     1      -0.710   4.007  24.606  0.00  0.00    -0.242 NA
ATOM     13  C   UNL     1      -0.839   4.758  24.922  0.00  0.00    +0.099 A 
ATOM     14  C   UNL     1      -1.552   4.928  25.302  0.00  0.00    +0.021 A 
ATOM     15  C   UNL     1      -2.135   4.347  25.365  0.00  0.00    +0.008 A 
ENDBRANCH   8  10
ENDBRANCH   6   7
BRANCH   4  18
ATOM     18  C   UNL     1      -4.071   0.329  24.439  0.00  0.00    +0.261 C 
ATOM     19  O   UNL     1      -3.834   0.114  23.679  0.00  0.00    -0.269 OA
ATOM     20  N   UNL     1      -4.126  -0.242  25.032  0.00  0.00    -0.194 NA
BRANCH  20  21
ATOM     21  C   UNL     1      -3.944  -1.030  24.863  0.00  0.00    +0.173 C 
ATOM     22  C   UNL     1      -4.172  -1.360  24.142  0.00  0.00    +0.033 C 
ATOM     23  C   UNL     1      -3.990  -2.148  23.974  0.00  0.00    +0.026 C 
ATOM     24  C   UNL     1      -3.581  -2.604  24.526  0.00  0.00    +0.115 C 
ATOM     25  N   UNL     1      -3.353  -2.272  25.246  0.00  0.00    -0.204 NA
ATOM     26  C   UNL     1      -3.534  -1.486  25.415  0.00  0.00    +0.261 C 
ATOM     27  O   UNL     1      -3.306  -1.155  26.135  0.00  0.00    -0.271 OA
ENDBRANCH  20  21
ENDBRANCH   4  18
TORSDOF 4
ENDMDL
MODEL 2
REMARK VINA RESULT:     -12.3      0.792      4.698
REMARK  Name = 
REMARK  4 active torsions:
REMARK  status: ('A' for Active; 'I' for Inactive)
REMARK    1  A    between atoms: C_4  and  C_18
REMARK    2  A    between atoms: C_6  and  N_7
REMARK    3  A    between atoms: C_8  and  C_10
REMARK    4  A    between atoms: N_20  and  C_21
REMARK                            x       y       z     vdW  Elec       q    Type
REMARK                         _______ _______ _______ _____ _____    ______ ____
ROOT
ATOM      1  O   UNL     1      -6.100   2.628  25.097  0.00  0.00    -0.220 OA
ATOM      2  C   UNL     1      -5.341   2.307  25.049  0.00  0.00    +0.189 C 
ATOM      3  C   UNL     1      -4.689   2.803  24.955  0.00  0.00    +0.066 C 
ATOM      4  C   UNL     1      -3.931   2.483  24.908  0.00  0.00    +0.033 C 
ATOM      5  C   UNL     1      -3.824   1.666  24.955  0.00  0.00    -0.002 C 
ATOM      6  C   UNL     1      -4.476   1.171  25.050  0.00  0.00    +0.150 C 
ATOM     16  C   UNL     1      -5.234   1.491  25.097  0.00  0.00    +0.206 C 
ATOM     17  O   UNL     1      -5.887   0.994  25.192  0.00  0.00    -0.218 OA
ENDROOT
BRANCH   6   7
ATOM      7  N   UNL     1      -4.369   0.353  25.098  0.00  0.00    -0.196 NA
ATOM      8  C   UNL     1      -3.990  -0.050  24.485  0.00  0.00    +0.267 C 
ATOM      9  O   UNL     1      -3.719   0.364  23.826  0.00  0.00    -0.268 OA
BRANCH   8  10
ATOM     10  C   UNL     1      -3.884  -0.866  24.533  0.00  0.00    +0.074 A 
ATOM     11  C   UNL     1      -3.481  -1.193  25.174  0.00  0.00    +0.103 A 
ATOM     12  N   UNL     1      -3.375  -2.009  25.222  0.00  0.00    -0.242 NA
ATOM     13  C   UNL     1      -3.672  -2.500  24.628  0.00  0.00    +0.099 A 
ATOM     14  C   UNL     1      -4.075  -2.173  23.987  0.00  0.00    +0.021 A 
ATOM     15  C   UNL     1      -4.181  -1.355  23.939  0.00  0.00    +0.008 A 
ENDBRANCH   8  10
ENDBRANCH   6   7
BRANCH   4  18
ATOM     18  C   UNL     1      -3.278   2.979  24.813  0.00  0.00    +0.261 C 
ATOM     19  O   UNL     1      -3.175   3.396  24.108  0.00  0.00    -0.269 OA
ATOM     20  N   UNL     1      -2.729   3.059  25.423  0.00  0.00    -0.194 NA
BRANCH  20  21
ATOM     21  C   UNL     1      -2.076   3.555  25.328  0.00  0.00    +0.173 C 
ATOM     22  C   UNL     1      -2.185   4.340  25.098  0.00  0.00    +0.033 C 
ATOM     23  C   UNL     1      -1.533   4.836  25.003  0.00  0.00    +0.026 C 
ATOM     24  C   UNL     1      -0.772   4.548  25.138  0.00  0.00    +0.115 C 
ATOM     25  N   UNL     1      -0.664   3.763  25.369  0.00  0.00    -0.204 NA
ATOM     26  C   UNL     1      -1.315   3.267  25.464  0.00  0.00    +0.261 C 
ATOM     27  O   UNL     1      -1.207   2.482  25.694  0.00  0.00    -0.271 OA
ENDBRANCH  20  21
ENDBRANCH   4  18
TORSDOF 4
ENDMDL
MODEL 3
REMARK VINA RESULT:     -10.7      2.081      5.593
REMARK  Name = 
REMARK  4 active torsions:
REMARK  status: ('A' for Active; 'I' for Inactive)
REMARK    1  A    between atoms: C_4  and  C_18
REMARK    2  A    between atoms: C_6  and  N_7
REMARK    3  A    between atoms: C_8  and  C_10
REMARK    4  A    between atoms: N_20  and  C_21
REMARK                            x       y       z     vdW  Elec       q    Type
REMARK                         _______ _______ _______ _____ _____    ______ ____
ROOT
ATOM      1  O   UNL     1       0.847   0.443  23.372  0.00  0.00    -0.220 OA
ATOM      2  C   UNL     1       0.200   0.563  23.870  0.00  0.00    +0.189 C 
ATOM      3  C   UNL     1       0.022   1.322  24.140  0.00  0.00    +0.066 C 
ATOM      4  C   UNL     1      -0.624   1.441  24.638  0.00  0.00    +0.033 C 
ATOM      5  C   UNL     1      -1.093   0.803  24.866  0.00  0.00    -0.002 C 
ATOM      6  C   UNL     1      -0.915   0.044  24.596  0.00  0.00    +0.150 C 
ATOM     16  C   UNL     1      -0.269  -0.076  24.099  0.00  0.00    +0.206 C 
ATOM     17  O   UNL     1      -0.091  -0.835  23.829  0.00  0.00    -0.218 OA
ENDROOT
BRANCH   6   7
ATOM      7  N   UNL     1      -1.384  -0.596  24.825  0.00  0.00    -0.196 NA
ATOM      8  C   UNL     1      -2.176  -0.631  24.592  0.00  0.00    +0.267 C 
ATOM      9  O   UNL     1      -2.497  -0.027  24.132  0.00  0.00    -0.268 OA
BRANCH   8  10
ATOM     10  C   UNL     1      -2.644  -1.270  24.821  0.00  0.00    +0.074 A 
ATOM     11  C   UNL     1      -3.025  -1.262  25.553  0.00  0.00    +0.103 A 
ATOM     12  N   UNL     1      -3.493  -1.902  25.780  0.00  0.00    -0.242 NA
ATOM     13  C   UNL     1      -3.581  -2.549  25.276  0.00  0.00    +0.099 A 
ATOM     14  C   UNL     1      -3.200  -2.557  24.545  0.00  0.00    +0.021 A 
ATOM     15  C   UNL     1      -2.732  -1.917  24.316  0.00  0.00    +0.008 A 
ENDBRANCH   8  10
ENDBRANCH   6   7
BRANCH   4  18
ATOM     18  C   UNL     1      -0.802   2.201  24.908  0.00  0.00    +0.261 C 
ATOM     19  O   UNL     1      -0.498   2.465  25.628  0.00  0.00    -0.269 OA
ATOM     20  N   UNL     1      -1.284   2.696  24.457  0.00  0.00    -0.194 NA
BRANCH  20  21
ATOM     21  C   UNL     1      -1.463   3.455  24.727  0.00  0.00    +0.173 C 
ATOM     22  C   UNL     1      -0.854   3.968  24.946  0.00  0.00    +0.033 C 
ATOM     23  C   UNL     1      -1.033   4.727  25.216  0.00  0.00    +0.026 C 
ATOM     24  C   UNL     1      -1.818   4.973  25.267  0.00  0.00    +0.115 C 
ATOM     25  N   UNL     1      -2.426   4.460  25.048  0.00  0.00    -0.204 NA
ATOM     26  C   UNL     1      -2.248   3.701  24.778  0.00  0.00    +0.261 C 
ATOM     27  O   UNL     1      -2.856   3.188  24.559  0.00  0.00    -0.271 OA
ENDBRANCH  20  21
ENDBRANCH   4  18
TORSDOF 4
ENDMDL
MODEL 4
REMARK VINA RESULT:     -10.4      1.982      2.985
REMARK  Name = 
REMARK  4 active torsions:
REMARK  status: ('A' for Active; 'I' for Inactive)
REMARK    1  A    between atoms: C_4  and  C_18
REMARK    2  A    between atoms: C_6  and  N_7
REMARK    3  A    between atoms: C_8  and  C_10
REMARK    4  A    between atoms: N_20  and  C_21
REMARK                            x       y       z     vdW  Elec       q    Type
REMARK                         _______ _______ _______ _____ _____    ______ ____
ROOT
ATOM      1  O   UNL     1       0.720   0.352  23.659  0.00  0.00    -0.220 OA
ATOM      2  C   UNL     1       0.033   0.521  24.083  0.00  0.00    +0.189 C 
ATOM      3  C   UNL     1      -0.520  -0.074  24.229  0.00  0.00    +0.066 C 
ATOM      4  C   UNL     1      -1.206   0.095  24.652  0.00  0.00    +0.033 C 
ATOM      5  C   UNL     1      -1.342   0.860  24.930  0.00  0.00    -0.002 C 
ATOM      6  C   UNL     1      -0.789   1.455  24.785  0.00  0.00    +0.150 C 
ATOM     16  C   UNL     1      -0.103   1.285  24.361  0.00  0.00    +0.206 C 
ATOM     17  O   UNL     1       0.450   1.881  24.215  0.00  0.00    -0.218 OA
ENDROOT
BRANCH   6   7
ATOM      7  N   UNL     1      -0.925   2.220  25.063  0.00  0.00    -0.196 NA
ATOM      8  C   UNL     1      -1.548   2.667  24.756  0.00  0.00    +0.267 C 
ATOM      9  O   UNL     1      -2.034   2.348  24.173  0.00  0.00    -0.268 OA
BRANCH   8  10
ATOM     10  C   UNL     1      -1.682   3.431  25.035  0.00  0.00    +0.074 A 
ATOM     11  C   UNL     1      -2.309   3.578  25.551  0.00  0.00    +0.103 A 
ATOM     12  N   UNL     1      -2.443   4.343  25.829  0.00  0.00    -0.242 NA
ATOM     13  C   UNL     1      -1.951   4.961  25.591  0.00  0.00    +0.099 A 
ATOM     14  C   UNL     1      -1.324   4.814  25.075  0.00  0.00    +0.021 A 
ATOM     15  C   UNL     1      -1.190   4.048  24.797  0.00  0.00    +0.008 A 
ENDBRANCH   8  10
ENDBRANCH   6   7
BRANCH   4  18
ATOM     18  C   UNL     1      -1.759  -0.500  24.798  0.00  0.00    +0.261 C 
ATOM     19  O   UNL     1      -1.781  -0.872  25.534  0.00  0.00    -0.269 OA
ATOM     20  N   UNL     1      -2.289  -0.724  24.207  0.00  0.00    -0.194 NA
BRANCH  20  21
ATOM     21  C   UNL     1      -2.842  -1.319  24.352  0.00  0.00    +0.173 C 
ATOM     22  C   UNL     1      -2.612  -2.008  24.744  0.00  0.00    +0.033 C 
ATOM     23  C   UNL     1      -3.164  -2.604  24.890  0.00  0.00    +0.026 C 
ATOM     24  C   UNL     1      -3.946  -2.510  24.644  0.00  0.00    +0.115 C 
ATOM     25  N   UNL     1      -4.175  -1.821  24.252  0.00  0.00    -0.204 NA
ATOM     26  C   UNL     1      -3.624  -1.226  24.107  0.00  0.00    +0.261 C 
ATOM     27  O   UNL     1      -3.853  -0.537  23.715  0.00  0.00    -0.271 OA
ENDBRANCH  20  21
ENDBRANCH   4  18
TORSDOF 4
ENDMDL
MODEL 5
REMARK VINA RESULT:     -10.4      1.628      4.981
REMARK  Name = 
REMARK  4 active torsions:
REMARK  status: ('A' for Active; 'I' for Inactive)
REMARK    1  A    between atoms: C_4  and  C_18
REMARK    2  A    between atoms: C_6  and  N_7
REMARK    3  A    between atoms: C_8  and  C_10
REMARK    4  A    between atoms: N_20  and  C_21
REMARK                            x       y       z     vdW  Elec       q    Type
REMARK                         _______ _______ _______ _____ _____    ______ ____
ROOT
ATOM      1  O   UNL     1      -0.770   1.546  25.179  0.00  0.00    -0.220 OA
ATOM      2  C   UNL     1      -1.551   1.364  24.983  0.00  0.00    +0.189 C 
ATOM      3  C   UNL     1      -2.127   1.954  24.992  0.00  0.00    +0.066 C 
ATOM      4  C   UNL     1      -2.907   1.772  24.796  0.00  0.00    +0.033 C 
ATOM      5  C   UNL     1      -3.112   1.000  24.591  0.00  0.00    -0.002 C 
ATOM      6  C   UNL     1      -2.535   0.410  24.581  0.00  0.00    +0.150 C 
ATOM     16  C   UNL     1      -1.756   0.592  24.777  0.00  0.00    +0.206 C 
ATOM     17  O   UNL     1      -1.179   0.001  24.768  0.00  0.00    -0.218 OA
ENDROOT
BRANCH   6   7
ATOM      7  N   UNL     1      -2.740  -0.363  24.376  0.00  0.00    -0.196 NA
ATOM      8  C   UNL     1      -3.283  -0.782  24.835  0.00  0.00    +0.267 C 
ATOM      9  O   UNL     1      -3.621  -0.429  25.498  0.00  0.00    -0.268 OA
BRANCH   8  10
ATOM     10  C   UNL     1      -3.487  -1.554  24.628  0.00  0.00    +0.074 A 
ATOM     11  C   UNL     1      -3.182  -2.190  25.057  0.00  0.00    +0.103 A 
ATOM     12  N   UNL     1      -3.387  -2.962  24.850  0.00  0.00    -0.242 NA
ATOM     13  C   UNL     1      -3.896  -3.099  24.215  0.00  0.00    +0.099 A 
ATOM     14  C   UNL     1      -4.201  -2.463  23.787  0.00  0.00    +0.021 A 
ATOM     15  C   UNL     1      -3.996  -1.690  23.994  0.00  0.00    +0.008 A 
ENDBRANCH   8  10
ENDBRANCH   6   7
BRANCH   4  18
ATOM     18  C   UNL     1      -3.484   2.363  24.806  0.00  0.00    +0.261 C 
ATOM     19  O   UNL     1      -3.561   2.874  24.163  0.00  0.00    -0.269 OA
ATOM     20  N   UNL     1      -3.982   2.441  25.458  0.00  0.00    -0.194 NA
BRANCH  20  21
ATOM     21  C   UNL     1      -4.559   3.031  25.467  0.00  0.00    +0.173 C 
ATOM     22  C   UNL     1      -4.373   3.792  25.209  0.00  0.00    +0.033 C 
ATOM     23  C   UNL     1      -4.950   4.383  25.219  0.00  0.00    +0.026 C 
ATOM     24  C   UNL     1      -5.712   4.212  25.486  0.00  0.00    +0.115 C 
ATOM     25  N   UNL     1      -5.896   3.450  25.744  0.00  0.00    -0.204 NA
ATOM     26  C   UNL     1      -5.321   2.860  25.735  0.00  0.00    +0.261 C 
ATOM     27  O   UNL     1      -5.505   2.099  25.993  0.00  0.00    -0.271 OA
ENDBRANCH  20  21
ENDBRANCH   4  18
TORSDOF 4
ENDMDL
MODEL 6
REMARK VINA RESULT:     -10.2      2.341      3.790
REMARK  Name = 
REMARK  4 active torsions:
REMARK  status: ('A' for Active; 'I' for Inactive)
REMARK    1  A    between atoms: C_4  and  C_18
REMARK    2  A    between atoms: C_6  and  N_7
REMARK    3  A    between atoms: C_8  and  C_10
REMARK    4  A    between atoms: N_20  and  C_21
REMARK                            x       y       z     vdW  Elec       q    Type
REMARK                         _______ _______ _______ _____ _____    ______ ____
ROOT
ATOM      1  O   UNL     1      -0.782   4.692  25.165  0.00  0.00    -0.220 OA
ATOM      2  C   UNL     1      -1.214   3.995  25.074  0.00  0.00    +0.189 C 
ATOM      3  C   UNL     1      -0.868   3.338  24.716  0.00  0.00    +0.066 C 
ATOM      4  C   UNL     1      -1.300   2.642  24.625  0.00  0.00    +0.033 C 
ATOM      5  C   UNL     1      -2.079   2.602  24.892  0.00  0.00    -0.002 C 
ATOM      6  C   UNL     1      -2.425   3.259  25.250  0.00  0.00    +0.150 C 
ATOM     16  C   UNL     1      -1.994   3.955  25.341  0.00  0.00    +0.206 C 
ATOM     17  O   UNL     1      -2.341   4.612  25.700  0.00  0.00    -0.218 OA
ENDROOT
BRANCH   6   7
ATOM      7  N   UNL     1      -3.205   3.219  25.518  0.00  0.00    -0.196 NA
ATOM      8  C   UNL     1      -3.813   3.026  24.993  0.00  0.00    +0.267 C 
ATOM      9  O   UNL     1      -3.640   2.874  24.201  0.00  0.00    -0.268 OA
BRANCH   8  10
ATOM     10  C   UNL     1      -4.592   2.986  25.260  0.00  0.00    +0.074 A 
ATOM     11  C   UNL     1      -4.995   3.677  25.461  0.00  0.00    +0.103 A 
ATOM     12  N   UNL     1      -5.774   3.636  25.728  0.00  0.00    -0.242 NA
ATOM     13  C   UNL     1      -6.150   2.905  25.796  0.00  0.00    +0.099 A 
ATOM     14  C   UNL     1      -5.746   2.214  25.596  0.00  0.00    +0.021 A 
ATOM     15  C   UNL     1      -4.966   2.254  25.328  0.00  0.00    +0.008 A 
ENDBRANCH   8  10
ENDBRANCH   6   7
BRANCH   4  18
ATOM     18  C   UNL     1      -0.952   1.985  24.266  0.00  0.00    +0.261 C 
ATOM     19  O   UNL     1      -0.855   1.965  23.447  0.00  0.00    -0.269 OA
ATOM     20  N   UNL     1      -0.703   1.348  24.726  0.00  0.00    -0.194 NA
BRANCH  20  21
ATOM     21  C   UNL     1      -0.356   0.690  24.367  0.00  0.00    +0.173 C 
ATOM     22  C   UNL     1       0.138   0.790  23.715  0.00  0.00    +0.033 C 
ATOM     23  C   UNL     1       0.486   0.133  23.356  0.00  0.00    +0.026 C 
ATOM     24  C   UNL     1       0.338  -0.624  23.650  0.00  0.00    +0.115 C 
ATOM     25  N   UNL     1      -0.157  -0.723  24.302  0.00  0.00    -0.204 NA
ATOM     26  C   UNL     1      -0.504  -0.067  24.661  0.00  0.00    +0.261 C 
ATOM     27  O   UNL     1      -0.999  -0.166  25.314  0.00  0.00    -0.271 OA
ENDBRANCH  20  21
ENDBRANCH   4  18
TORSDOF 4
ENDMDL
