MODEL 1
REMARK VINA RESULT:      -7.9      0.000      0.000
REMARK  Name = 
REMARK  6 active torsions:
REMARK  status: ('A' for Active; 'I' for Inactive)
REMARK    1  A    between atoms: C_3  and  C_4
REMARK    2  A    between atoms: C_4  and  N_5
REMARK    3  A    between atoms: C_6  and  C_8
REMARK    4  A    between atoms: C_13  and  N_14
REMARK    5  A    between atoms: N_14  and  C_15
REMARK    6  A    between atoms: C_15  and  C_16
REMARK                            x       y       z     vdW  Elec       q    Type
REMARK                         _______ _______ _______ _____ _____    ______ ____
ROOT
ATOM      1  O   UNL     1      -3.673   1.885  24.040  0.00  0.00    -0.219 OA
ATOM      2  C   UNL     1      -3.039   1.528  24.430  0.00  0.00    +0.199 C 
ATOM      3  C   UNL     1      -2.953   0.720  24.576  0.00  0.00    +0.169 C 
ATOM     11  O   UNL     1      -2.242   0.609  24.978  0.00  0.00    -0.350 OA
ATOM     12  C   UNL     1      -1.888   1.347  25.081  0.00  0.00    +0.162 C 
ATOM     13  C   UNL     1      -2.381   1.914  24.742  0.00  0.00    +0.135 C 
ENDROOT
BRANCH   3   4
ATOM      4  C   UNL     1      -3.485   0.129  24.358  0.00  0.00    +0.147 C 
BRANCH   4   5
ATOM      5  N   UNL     1      -3.315  -0.661  24.525  0.00  0.00    -0.203 NA
ATOM      6  C   UNL     1      -3.859  -1.250  24.330  0.00  0.00    +0.241 C 
ATOM      7  O   UNL     1      -4.573  -1.049  23.969  0.00  0.00    -0.273 OA
BRANCH   6   8
ATOM      8  C   UNL     1      -3.689  -2.040  24.497  0.00  0.00    +0.078 C 
ATOM      9  C   UNL     1      -3.395  -2.614  25.011  0.00  0.00    +0.010 C 
ATOM     10  C   UNL     1      -3.690  -2.834  24.272  0.00  0.00    +0.010 C 
ENDBRANCH   6   8
ENDBRANCH   4   5
ENDBRANCH   3   4
BRANCH  13  14
ATOM     14  N   UNL     1      -2.240   2.727  24.719  0.00  0.00    -0.208 NA
BRANCH  14  15
ATOM     15  C   UNL     1      -1.692   3.066  25.236  0.00  0.00    +0.136 C 
BRANCH  15  16
ATOM     16  C   UNL     1      -1.505   3.867  25.171  0.00  0.00    +0.097 A 
ATOM     17  C   UNL     1      -1.964   4.494  25.448  0.00  0.00    +0.117 A 
ATOM     18  N   UNL     1      -1.570   5.197  25.266  0.00  0.00    -0.221 NA
ATOM     19  C   UNL     1      -0.869   5.003  24.878  0.00  0.00    +0.199 A 
ATOM     20  N   UNL     1      -0.828   4.180  24.819  0.00  0.00    -0.225 NA
ENDBRANCH  15  16
ENDBRANCH  14  15
ENDBRANCH  13  14
TORSDOF 6
ENDMDL
MODEL 2
REMARK VINA RESULT:      -7.8      1.150      5.404
REMARK  Name = 
REMARK  6 active torsions:
REMARK  status: ('A' for Active; 'I' for Inactive)
REMARK    1  A    between atoms: C_3  and  C_4
REMARK    2  A    between atoms: C_4  and  N_5
REMARK    3  A    between atoms: C_6  and  C_8
REMARK    4  A    between atoms: C_13  and  N_14
REMARK    5  A    between atoms: N_14  and  C_15
REMARK    6  A    between atoms: C_15  and  C_16
REMARK                            x       y       z     vdW  Elec       q    Type
REMARK                         _______ _______ _______ _____ _____    ______ ____
ROOT
ATOM      1  O   UNL     1      -1.193   0.419  25.005  0.00  0.00    -0.219 OA
ATOM      2  C   UNL     1      -1.915   0.814  24.935  0.00  0.00    +0.199 C 
ATOM      3  C   UNL     1      -2.033   1.626  25.024  0.00  0.00    +0.169 C 
ATOM     11  O   UNL     1      -2.835   1.780  24.908  0.00  0.00    -0.350 OA
ATOM     12  C   UNL     1      -3.212   1.064  24.747  0.00  0.00    +0.162 C 
ATOM     13  C   UNL     1      -2.643   0.468  24.764  0.00  0.00    +0.135 C 
ENDROOT
BRANCH   3   4
ATOM      4  C   UNL     1      -1.452   2.185  25.198  0.00  0.00    +0.147 C 
BRANCH   4   5
ATOM      5  N   UNL     1      -1.601   2.987  25.075  0.00  0.00    -0.203 NA
ATOM      6  C   UNL     1      -1.036   3.549  25.290  0.00  0.00    +0.241 C 
ATOM      7  O   UNL     1      -0.323   3.309  25.628  0.00  0.00    -0.273 OA
BRANCH   6   8
ATOM      8  C   UNL     1      -1.185   4.352  25.167  0.00  0.00    +0.078 C 
ATOM      9  C   UNL     1      -0.944   5.087  24.885  0.00  0.00    +0.010 C 
ATOM     10  C   UNL     1      -1.685   5.004  25.237  0.00  0.00    +0.010 C 
ENDBRANCH   6   8
ENDBRANCH   4   5
ENDBRANCH   3   4
BRANCH  13  14
ATOM     14  N   UNL     1      -2.779  -0.336  24.633  0.00  0.00    -0.208 NA
BRANCH  14  15
ATOM     15  C   UNL     1      -3.542  -0.642  24.706  0.00  0.00    +0.136 C 
BRANCH  15  16
ATOM     16  C   UNL     1      -3.688  -1.433  24.519  0.00  0.00    +0.097 A 
ATOM     17  C   UNL     1      -4.127  -1.704  23.875  0.00  0.00    +0.117 A 
ATOM     18  N   UNL     1      -4.131  -2.529  23.900  0.00  0.00    -0.221 NA
ATOM     19  C   UNL     1      -3.695  -2.766  24.558  0.00  0.00    +0.199 A 
ATOM     20  N   UNL     1      -3.420  -2.089  24.941  0.00  0.00    -0.225 NA
ENDBRANCH  15  16
ENDBRANCH  14  15
ENDBRANCH  13  14
TORSDOF 6
ENDMDL
MODEL 3
REMARK VINA RESULT:      -6.5      2.724      3.847
REMARK  Name = 
REMARK  6 active torsions:
REMARK  status: ('A' for Active; 'I' for Inactive)
REMARK    1  A    between atoms: C_3  and  C_4
REMARK    2  A    between atoms: C_4  and  N_5
REMARK    3  A    between atoms: C_6  and  C_8
REMARK    4  A    between atoms: C_13  and  N_14
REMARK    5  A    between atoms: N_14  and  C_15
REMARK    6  A    between atoms: C_15  and  C_16
REMARK                            x       y       z     vdW  Elec       q    Type
REMARK                         _______ _______ _______ _____ _____    ______ ____
ROOT
ATOM      1  O   UNL     1      -2.106   2.139  23.032  0.00  0.00    -0.219 OA
ATOM      2  C   UNL     1      -2.078   1.748  23.758  0.00  0.00    +0.199 C 
ATOM      3  C   UNL     1      -2.645   1.797  24.356  0.00  0.00    +0.169 C 
ATOM     11  O   UNL     1      -2.397   1.319  24.981  0.00  0.00    -0.350 OA
ATOM     12  C   UNL     1      -1.678   0.974  24.769  0.00  0.00    +0.162 C 
ATOM     13  C   UNL     1      -1.482   1.240  24.013  0.00  0.00    +0.135 C 
ENDROOT
BRANCH   3   4
ATOM      4  C   UNL     1      -3.337   2.245  24.333  0.00  0.00    +0.147 C 
BRANCH   4   5
ATOM      5  N   UNL     1      -4.020   1.969  24.705  0.00  0.00    -0.203 NA
ATOM      6  C   UNL     1      -4.695   2.443  24.733  0.00  0.00    +0.241 C 
ATOM      7  O   UNL     1      -4.687   3.192  24.388  0.00  0.00    -0.273 OA
BRANCH   6   8
ATOM      8  C   UNL     1      -5.378   2.167  25.105  0.00  0.00    +0.078 C 
ATOM      9  C   UNL     1      -5.805   2.019  25.794  0.00  0.00    +0.010 C 
ATOM     10  C   UNL     1      -6.133   1.837  25.058  0.00  0.00    +0.010 C 
ENDBRANCH   6   8
ENDBRANCH   4   5
ENDBRANCH   3   4
BRANCH  13  14
ATOM     14  N   UNL     1      -0.806   1.033  23.588  0.00  0.00    -0.208 NA
BRANCH  14  15
ATOM     15  C   UNL     1      -0.238   0.541  23.929  0.00  0.00    +0.136 C 
BRANCH  15  16
ATOM     16  C   UNL     1       0.437   0.332  23.501  0.00  0.00    +0.097 A 
ATOM     17  C   UNL     1       1.144   0.756  23.476  0.00  0.00    +0.117 A 
ATOM     18  N   UNL     1       1.667   0.350  22.984  0.00  0.00    -0.221 NA
ATOM     19  C   UNL     1       1.283  -0.324  22.705  0.00  0.00    +0.199 A 
ATOM     20  N   UNL     1       0.522  -0.336  23.025  0.00  0.00    -0.225 NA
ENDBRANCH  15  16
ENDBRANCH  14  15
ENDBRANCH  13  14
TORSDOF 6
ENDMDL
MODEL 4
REMARK VINA RESULT:      -6.4      2.571      3.717
REMARK  Name = 
REMARK  6 active torsions:
REMARK  status: ('A' for Active; 'I' for Inactive)
REMARK    1  A    between atoms: C_3  and  C_4
REMARK    2  A    between atoms: C_4  and  N_5
REMARK    3  A    between atoms: C_6  and  C_8
REMARK    4  A    between atoms: C_13  and  N_14
REMARK    5  A    between atoms: N_14  and  C_15
REMARK    6  A    between atoms: C_15  and  C_16
REMARK                            x       y       z     vdW  Elec       q    Type
REMARK                         _______ _______ _______ _____ _____    ______ ____
ROOT
ATOM      1  O   UNL     1      -2.361   0.291  25.221  0.00  0.00    -0.219 OA
ATOM      2  C   UNL     1      -2.185   0.869  24.659  0.00  0.00    +0.199 C 
ATOM      3  C   UNL     1      -1.522   0.881  24.167  0.00  0.00    +0.169 C 
ATOM     11  O   UNL     1      -1.568   1.555  23.695  0.00  0.00    -0.350 OA
ATOM     12  C   UNL     1      -2.259   1.960  23.894  0.00  0.00    +0.162 C 
ATOM     13  C   UNL     1      -2.639   1.535  24.490  0.00  0.00    +0.135 C 
ENDROOT
BRANCH   3   4
ATOM      4  C   UNL     1      -0.920   0.318  24.152  0.00  0.00    +0.147 C 
BRANCH   4   5
ATOM      5  N   UNL     1      -0.275   0.417  23.647  0.00  0.00    -0.203 NA
ATOM      6  C   UNL     1       0.291  -0.180  23.576  0.00  0.00    +0.241 C 
ATOM      7  O   UNL     1       0.210  -0.877  24.011  0.00  0.00    -0.273 OA
BRANCH   6   8
ATOM      8  C   UNL     1       0.936  -0.080  23.072  0.00  0.00    +0.078 C 
ATOM      9  C   UNL     1       1.694   0.211  22.931  0.00  0.00    +0.010 C 
ATOM     10  C   UNL     1       1.293  -0.199  22.338  0.00  0.00    +0.010 C 
ENDBRANCH   6   8
ENDBRANCH   4   5
ENDBRANCH   3   4
BRANCH  13  14
ATOM     14  N   UNL     1      -3.351   1.742  24.853  0.00  0.00    -0.208 NA
BRANCH  14  15
ATOM     15  C   UNL     1      -3.842   2.308  24.507  0.00  0.00    +0.136 C 
BRANCH  15  16
ATOM     16  C   UNL     1      -4.542   2.531  24.882  0.00  0.00    +0.097 A 
ATOM     17  C   UNL     1      -5.276   2.164  24.797  0.00  0.00    +0.117 A 
ATOM     18  N   UNL     1      -5.818   2.566  25.271  0.00  0.00    -0.221 NA
ATOM     19  C   UNL     1      -5.420   3.182  25.648  0.00  0.00    +0.199 A 
ATOM     20  N   UNL     1      -4.630   3.161  25.408  0.00  0.00    -0.225 NA
ENDBRANCH  15  16
ENDBRANCH  14  15
ENDBRANCH  13  14
TORSDOF 6
ENDMDL
MODEL 5
REMARK VINA RESULT:      -6.2      2.603      4.632
REMARK  Name = 
REMARK  6 active torsions:
REMARK  status: ('A' for Active; 'I' for Inactive)
REMARK    1  A    between atoms: C_3  and  C_4
REMARK    2  A    between atoms: C_4  and  N_5
REMARK    3  A    between atoms: C_6  and  C_8
REMARK    4  A    between atoms: C_13  and  N_14
REMARK    5  A    between atoms: N_14  and  C_15
REMARK    6  A    between atoms: C_15  and  C_16
REMARK                            x       y       z     vdW  Elec       q    Type
REMARK                         _______ _______ _______ _____ _____    ______ ____
ROOT
ATOM      1  O   UNL     1      -4.131  -0.309  25.565  0.00  0.00    -0.219 OA
ATOM      2  C   UNL     1      -3.798   0.097  24.928  0.00  0.00    +0.199 C 
ATOM      3  C   UNL     1      -4.104   0.777  24.574  0.00  0.00    +0.169 C 
ATOM     11  O   UNL     1      -3.596   0.995  23.962  0.00  0.00    -0.350 OA
ATOM     12  C   UNL     1      -2.977   0.450  23.937  0.00  0.00    +0.162 C 
ATOM     13  C   UNL     1      -3.102  -0.104  24.535  0.00  0.00    +0.135 C 
ENDROOT
BRANCH   3   4
ATOM      4  C   UNL     1      -4.795   1.170  24.794  0.00  0.00    +0.147 C 
BRANCH   4   5
ATOM      5  N   UNL     1      -4.765   1.963  25.017  0.00  0.00    -0.203 NA
ATOM      6  C   UNL     1      -5.465   2.379  25.159  0.00  0.00    +0.241 C 
ATOM      7  O   UNL     1      -6.192   1.999  25.078  0.00  0.00    -0.273 OA
BRANCH   6   8
ATOM      8  C   UNL     1      -5.435   3.172  25.383  0.00  0.00    +0.078 C 
ATOM      9  C   UNL     1      -5.796   3.834  25.716  0.00  0.00    +0.010 C 
ATOM     10  C   UNL     1      -5.022   3.884  25.436  0.00  0.00    +0.010 C 
ENDBRANCH   6   8
ENDBRANCH   4   5
ENDBRANCH   3   4
BRANCH  13  14
ATOM     14  N   UNL     1      -2.616  -0.748  24.709  0.00  0.00    -0.208 NA
BRANCH  14  15
ATOM     15  C   UNL     1      -1.823  -0.740  24.479  0.00  0.00    +0.136 C 
BRANCH  15  16
ATOM     16  C   UNL     1      -1.308  -1.323  24.756  0.00  0.00    +0.097 A 
ATOM     17  C   UNL     1      -0.634  -1.195  25.213  0.00  0.00    +0.117 A 
ATOM     18  N   UNL     1      -0.286  -1.928  25.364  0.00  0.00    -0.221 NA
ATOM     19  C   UNL     1      -0.746  -2.508  25.001  0.00  0.00    +0.199 A 
ATOM     20  N   UNL     1      -1.379  -2.134  24.625  0.00  0.00    -0.225 NA
ENDBRANCH  15  16
ENDBRANCH  14  15
ENDBRANCH  13  14
TORSDOF 6
ENDMDL
MODEL 6
REMARK VINA RESULT:      -6.1      2.306      3.024
REMARK  Name = 
REMARK  6 active torsions:
REMARK  status: ('A' for Active; 'I' for Inactive)
REMARK    1  A    between atoms: C_3  and  C_4
REMARK    2  A    between atoms: C_4  and  N_5
REMARK    3  A    between atoms: C_6  and  C_8
REMARK    4  A    between atoms: C_13  and  N_14
REMARK    5  A    between atoms: N_14  and  C_15
REMARK    6  A    between atoms: C_15  and  C_16
REMARK                            x       y       z     vdW  Elec       q    Type
REMARK                         _______ _______ _______ _____ _____    ______ ____
ROOT
ATOM      1  O   UNL     1      -2.013   1.971  25.279  0.00  0.00    -0.219 OA
ATOM      2  C   UNL     1      -2.418   1.641  24.639  0.00  0.00    +0.199 C 
ATOM      3  C   UNL     1      -2.145   1.028  24.158  0.00  0.00    +0.169 C 
ATOM     11  O   UNL     1      -2.724   0.873  23.591  0.00  0.00    -0.350 OA
ATOM     12  C   UNL     1      -3.354   1.390  23.722  0.00  0.00    +0.162 C 
ATOM     13  C   UNL     1      -3.164   1.864  24.370  0.00  0.00    +0.135 C 
ENDROOT
BRANCH   3   4
ATOM      4  C   UNL     1      -1.422   0.639  24.232  0.00  0.00    +0.147 C 
BRANCH   4   5
ATOM      5  N   UNL     1      -1.394  -0.122  24.549  0.00  0.00    -0.203 NA
ATOM      6  C   UNL     1      -0.705  -0.572  24.482  0.00  0.00    +0.241 C 
ATOM      7  O   UNL     1      -0.044  -0.259  24.099  0.00  0.00    -0.273 OA
BRANCH   6   8
ATOM      8  C   UNL     1      -0.676  -1.333  24.799  0.00  0.00    +0.078 C 
ATOM      9  C   UNL     1      -0.898  -2.127  24.772  0.00  0.00    +0.010 C 
ATOM     10  C   UNL     1      -0.405  -1.857  25.376  0.00  0.00    +0.010 C 
ENDBRANCH   6   8
ENDBRANCH   4   5
ENDBRANCH   3   4
BRANCH  13  14
ATOM     14  N   UNL     1      -3.638   2.458  24.691  0.00  0.00    -0.208 NA
BRANCH  14  15
ATOM     15  C   UNL     1      -4.461   2.394  24.655  0.00  0.00    +0.136 C 
BRANCH  15  16
ATOM     16  C   UNL     1      -4.933   2.900  25.105  0.00  0.00    +0.097 A 
ATOM     17  C   UNL     1      -5.520   2.668  25.636  0.00  0.00    +0.117 A 
ATOM     18  N   UNL     1      -5.851   3.350  25.963  0.00  0.00    -0.221 NA
ATOM     19  C   UNL     1      -5.468   4.002  25.634  0.00  0.00    +0.199 A 
ATOM     20  N   UNL     1      -4.900   3.724  25.104  0.00  0.00    -0.225 NA
ENDBRANCH  15  16
ENDBRANCH  14  15
ENDBRANCH  13  14
TORSDOF 6
ENDMDL
MODEL 7
REMARK VINA RESULT:      -5.9      3.497      4.143
REMARK  Name = 
REMARK  6 active torsions:
REMARK  status: ('A' for Active; 'I' for Inactive)
REMARK    1  A    between atoms: C_3  and  C_4
REMARK    2  A    between atoms: C_4  and  N_5
REMARK    3  A    between atoms: C_6  and  C_8
REMARK    4  A    between atoms: C_13  and  N_14
REMARK    5  A    between atoms: N_14  and  C_15
REMARK    6  A    between atoms: C_15  and  C_16
REMARK                            x       y       z     vdW  Elec       q    Type
REMARK                         _______ _______ _______ _____ _____    ______ ____
ROOT
ATOM      1  O   UNL     1      -0.142   1.640  23.956  0.00  0.00    -0.219 OA
ATOM      2  C   UNL     1      -0.152   0.817  23.897  0.00  0.00    +0.199 C 
ATOM      3  C   UNL     1      -0.780   0.324  24.106  0.00  0.00    +0.169 C 
ATOM     11  O   UNL     1      -0.552  -0.455  23.957  0.00  0.00    -0.350 OA
ATOM     12  C   UNL     1       0.216  -0.443  23.657  0.00  0.00    +0.162 C 
ATOM     13  C   UNL     1       0.463   0.343  23.620  0.00  0.00    +0.135 C 
ENDROOT
BRANCH   3   4
ATOM      4  C   UNL     1      -1.507   0.567  24.409  0.00  0.00    +0.147 C 
BRANCH   4   5
ATOM      5  N   UNL     1      -2.132   0.031  24.461  0.00  0.00    -0.203 NA
ATOM      6  C   UNL     1      -2.859   0.273  24.769  0.00  0.00    +0.241 C 
ATOM      7  O   UNL     1      -2.960   1.051  25.024  0.00  0.00    -0.273 OA
BRANCH   6   8
ATOM      8  C   UNL     1      -3.484  -0.264  24.821  0.00  0.00    +0.078 C 
ATOM      9  C   UNL     1      -4.074  -0.632  25.264  0.00  0.00    +0.010 C 
ATOM     10  C   UNL     1      -3.976  -0.823  24.468  0.00  0.00    +0.010 C 
ENDBRANCH   6   8
ENDBRANCH   4   5
ENDBRANCH   3   4
BRANCH  13  14
ATOM     14  N   UNL     1       1.197   0.609  23.353  0.00  0.00    -0.208 NA
BRANCH  14  15
ATOM     15  C   UNL     1       1.700   0.094  22.948  0.00  0.00    +0.136 C 
BRANCH  15  16
ATOM     16  C   UNL     1       2.462   0.336  22.747  0.00  0.00    +0.097 A 
ATOM     17  C   UNL     1       2.898   0.073  22.098  0.00  0.00    +0.117 A 
ATOM     18  N   UNL     1       3.628   0.459  22.109  0.00  0.00    -0.221 NA
ATOM     19  C   UNL     1       3.643   0.958  22.764  0.00  0.00    +0.199 A 
ATOM     20  N   UNL     1       2.922   0.883  23.159  0.00  0.00    -0.225 NA
ENDBRANCH  15  16
ENDBRANCH  14  15
ENDBRANCH  13  14
TORSDOF 6
ENDMDL
MODEL 8
REMARK VINA RESULT:      -4.7     14.588     16.312
REMARK  Name = 
REMARK  6 active torsions:
REMARK  status: ('A' for Active; 'I' for Inactive)
REMARK    1  A    between atoms: C_3  and  C_4
REMARK    2  A    between atoms: C_4  and  N_5
REMARK    3  A    between atoms: C_6  and  C_8
REMARK    4  A    between atoms: C_13  and  N_14
REMARK    5  A    between atoms: N_14  and  C_15
REMARK    6  A    between atoms: C_15  and  C_16
REMARK                            x       y       z     vdW  Elec       q    Type
REMARK                         _______ _______ _______ _____ _____    ______ ____
ROOT
ATOM      1  O   UNL     1      -5.798 -10.357  13.860  0.00  0.00    -0.219 OA
ATOM      2  C   UNL     1      -4.993 -10.437  14.026  0.00  0.00    +0.199 C 
ATOM      3  C   UNL     1      -4.385 -10.476  13.469  0.00  0.00    +0.169 C 
ATOM     11  O   UNL     1      -3.672 -10.556  13.877  0.00  0.00    -0.350 OA
ATOM     12  C   UNL     1      -3.840 -10.566  14.685  0.00  0.00    +0.162 C 
ATOM     13  C   UNL     1      -4.656 -10.493  14.776  0.00  0.00    +0.135 C 
ENDROOT
BRANCH   3   4
ATOM      4  C   UNL     1      -4.474 -10.442  12.651  0.00  0.00    +0.147 C 
BRANCH   4   5
ATOM      5  N   UNL     1      -3.885 -10.100  12.186  0.00  0.00    -0.203 NA
ATOM      6  C   UNL     1      -3.927 -10.150  11.363  0.00  0.00    +0.241 C 
ATOM      7  O   UNL     1      -4.559 -10.542  11.006  0.00  0.00    -0.273 OA
BRANCH   6   8
ATOM      8  C   UNL     1      -3.338  -9.808  10.898  0.00  0.00    +0.078 C 
ATOM      9  C   UNL     1      -3.115  -9.321  10.271  0.00  0.00    +0.010 C 
ATOM     10  C   UNL     1      -2.539  -9.705  10.719  0.00  0.00    +0.010 C 
ENDBRANCH   6   8
ENDBRANCH   4   5
ENDBRANCH   3   4
BRANCH  13  14
ATOM     14  N   UNL     1      -5.064 -10.477  15.494  0.00  0.00    -0.208 NA
BRANCH  14  15
ATOM     15  C   UNL     1      -4.647 -10.494  16.206  0.00  0.00    +0.136 C 
BRANCH  15  16
ATOM     16  C   UNL     1      -5.056 -10.525  16.922  0.00  0.00    +0.097 A 
ATOM     17  C   UNL     1      -4.750 -10.781  17.644  0.00  0.00    +0.117 A 
ATOM     18  N   UNL     1      -5.348 -10.720  18.210  0.00  0.00    -0.221 NA
ATOM     19  C   UNL     1      -6.022 -10.427  17.838  0.00  0.00    +0.199 A 
ATOM     20  N   UNL     1      -5.843 -10.306  17.041  0.00  0.00    -0.225 NA
ENDBRANCH  15  16
ENDBRANCH  14  15
ENDBRANCH  13  14
TORSDOF 6
ENDMDL
