MODEL 1
REMARK VINA RESULT:     -11.1      0.000      0.000
REMARK  Name = 
REMARK  6 active torsions:
REMARK  status: ('A' for Active; 'I' for Inactive)
REMARK    1  A    between atoms: C_5  and  S_8
REMARK    2  A    between atoms: S_8  and  N_11
REMARK    3  A    between atoms: N_11  and  C_12
REMARK    4  A    between atoms: C_12  and  C_13
REMARK    5  A    between atoms: C_16  and  N_17
REMARK    6  A    between atoms: N_17  and  C_18
REMARK                            x       y       z     vdW  Elec       q    Type
REMARK                         _______ _______ _______ _____ _____    ______ ____
ROOT
ATOM     13  C   UNL     1      -2.661   1.558  24.898  0.00  0.00    +0.166 C 
ATOM     14  O   UNL     1      -3.177   2.185  24.754  0.00  0.00    -0.350 OA
ATOM     15  C   UNL     1      -2.853   2.866  25.090  0.00  0.00    +0.162 C 
ATOM     16  C   UNL     1      -2.136   2.660  25.442  0.00  0.00    +0.135 C 
ATOM     26  C   UNL     1      -2.017   1.852  25.323  0.00  0.00    +0.199 C 
ATOM     27  O   UNL     1      -1.368   1.414  25.584  0.00  0.00    -0.219 OA
ENDROOT
BRANCH  13  12
ATOM     12  C   UNL     1      -2.768   0.776  24.660  0.00  0.00    +0.148 C 
BRANCH  12  11
ATOM     11  N   UNL     1      -3.518   0.435  24.692  0.00  0.00    -0.075 NA
BRANCH  11   8
ATOM      8  S   UNL     1      -3.606  -0.378  24.578  0.00  0.00    +0.077 S 
ATOM      9  O   UNL     1      -3.322  -0.300  23.807  0.00  0.00    -0.152 OA
ATOM     10  O   UNL     1      -3.890  -0.455  25.349  0.00  0.00    -0.152 OA
BRANCH   8   5
ATOM      1  C   UNL     1      -3.960  -3.626  24.121  0.00  0.00    +0.031 C 
ATOM      2  C   UNL     1      -3.872  -2.814  24.235  0.00  0.00    -0.022 A 
ATOM      3  C   UNL     1      -3.359  -2.534  24.817  0.00  0.00    -0.003 A 
ATOM      4  C   UNL     1      -3.270  -1.721  24.932  0.00  0.00    +0.020 A 
ATOM      5  C   UNL     1      -3.695  -1.190  24.464  0.00  0.00    +0.124 A 
ATOM      6  C   UNL     1      -4.207  -1.472  23.882  0.00  0.00    +0.020 A 
ATOM      7  C   UNL     1      -4.296  -2.284  23.767  0.00  0.00    -0.003 A 
ENDBRANCH   8   5
ENDBRANCH  11   8
ENDBRANCH  12  11
ENDBRANCH  13  12
BRANCH  16  17
ATOM     17  N   UNL     1      -1.628   3.172  25.841  0.00  0.00    -0.216 NA
BRANCH  17  18
ATOM     18  C   UNL     1      -1.436   3.903  25.512  0.00  0.00    +0.073 C 
ATOM     19  C   UNL     1      -1.943   4.545  25.610  0.00  0.00    +0.023 C 
ATOM     20  C   UNL     1      -1.751   5.278  25.281  0.00  0.00    +0.068 C 
ATOM     21  C   UNL     1      -1.051   5.366  24.854  0.00  0.00    +0.264 C 
ATOM     22  F   UNL     1      -1.353   6.132  24.797  0.00  0.00    -0.204 F 
ATOM     23  F   UNL     1      -0.456   5.721  24.407  0.00  0.00    -0.204 F 
ATOM     24  C   UNL     1      -0.543   4.724  24.756  0.00  0.00    +0.068 C 
ATOM     25  C   UNL     1      -0.735   3.992  25.085  0.00  0.00    +0.023 C 
ENDBRANCH  17  18
ENDBRANCH  16  17
TORSDOF 6
ENDMDL
MODEL 2
REMARK VINA RESULT:     -11.0      2.892      6.239
REMARK  Name = 
REMARK  6 active torsions:
REMARK  status: ('A' for Active; 'I' for Inactive)
REMARK    1  A    between atoms: C_5  and  S_8
REMARK    2  A    between atoms: S_8  and  N_11
REMARK    3  A    between atoms: N_11  and  C_12
REMARK    4  A    between atoms: C_12  and  C_13
REMARK    5  A    between atoms: C_16  and  N_17
REMARK    6  A    between atoms: N_17  and  C_18
REMARK                            x       y       z     vdW  Elec       q    Type
REMARK                         _______ _______ _______ _____ _____    ______ ____
ROOT
ATOM     13  C   UNL     1      -2.615   0.971  25.012  0.00  0.00    +0.166 C 
ATOM     14  O   UNL     1      -2.065   0.361  25.087  0.00  0.00    -0.350 OA
ATOM     15  C   UNL     1      -2.479  -0.343  25.207  0.00  0.00    +0.162 C 
ATOM     16  C   UNL     1      -3.285  -0.168  25.207  0.00  0.00    +0.135 C 
ATOM     26  C   UNL     1      -3.370   0.644  25.086  0.00  0.00    +0.199 C 
ATOM     27  O   UNL     1      -4.082   1.057  25.047  0.00  0.00    -0.219 OA
ENDROOT
BRANCH  13  12
ATOM     12  C   UNL     1      -2.442   1.767  24.885  0.00  0.00    +0.148 C 
BRANCH  12  11
ATOM     11  N   UNL     1      -1.712   2.072  25.117  0.00  0.00    -0.075 NA
BRANCH  11   8
ATOM      8  S   UNL     1      -1.574   2.885  25.077  0.00  0.00    +0.077 S 
ATOM      9  O   UNL     1      -1.538   2.919  25.900  0.00  0.00    -0.152 OA
ATOM     10  O   UNL     1      -1.609   2.850  24.253  0.00  0.00    -0.152 OA
BRANCH   8   5
ATOM      1  C   UNL     1      -1.018   6.134  24.917  0.00  0.00    +0.031 C 
ATOM      2  C   UNL     1      -1.157   5.322  24.957  0.00  0.00    -0.022 A 
ATOM      3  C   UNL     1      -0.575   4.791  24.711  0.00  0.00    -0.003 A 
ATOM      4  C   UNL     1      -0.713   3.979  24.751  0.00  0.00    +0.020 A 
ATOM      5  C   UNL     1      -1.435   3.697  25.037  0.00  0.00    +0.124 A 
ATOM      6  C   UNL     1      -2.016   4.228  25.282  0.00  0.00    +0.020 A 
ATOM      7  C   UNL     1      -1.878   5.040  25.243  0.00  0.00    -0.003 A 
ENDBRANCH   8   5
ENDBRANCH  11   8
ENDBRANCH  12  11
ENDBRANCH  13  12
BRANCH  16  17
ATOM     17  N   UNL     1      -3.899  -0.709  25.310  0.00  0.00    -0.216 NA
BRANCH  17  18
ATOM     18  C   UNL     1      -3.883  -1.432  24.913  0.00  0.00    +0.073 C 
ATOM     19  C   UNL     1      -3.500  -2.080  25.250  0.00  0.00    +0.023 C 
ATOM     20  C   UNL     1      -3.484  -2.803  24.852  0.00  0.00    +0.068 C 
ATOM     21  C   UNL     1      -3.851  -2.877  24.117  0.00  0.00    +0.264 C 
ATOM     22  F   UNL     1      -3.561  -3.644  24.211  0.00  0.00    -0.204 F 
ATOM     23  F   UNL     1      -4.117  -3.217  23.414  0.00  0.00    -0.204 F 
ATOM     24  C   UNL     1      -4.234  -2.229  23.780  0.00  0.00    +0.068 C 
ATOM     25  C   UNL     1      -4.250  -1.506  24.177  0.00  0.00    +0.023 C 
ENDBRANCH  17  18
ENDBRANCH  16  17
TORSDOF 6
ENDMDL
