MODEL 1
REMARK VINA RESULT:      -8.9      0.000      0.000
REMARK  Name = 
REMARK  6 active torsions:
REMARK  status: ('A' for Active; 'I' for Inactive)
REMARK    1  A    between atoms: O_2  and  C_3
REMARK    2  A    between atoms: C_6  and  C_9
REMARK    3  A    between atoms: N_11  and  C_12
REMARK    4  A    between atoms: C_16  and  O_20
REMARK    5  A    between atoms: O_20  and  C_21
REMARK    6  A    between atoms: C_21  and  C_22
REMARK                            x       y       z     vdW  Elec       q    Type
REMARK                         _______ _______ _______ _____ _____    ______ ____
ROOT
ATOM     12  C   UNL     1      -3.157   1.441  24.612  0.00  0.00    +0.155 C 
ATOM     13  C   UNL     1      -3.809   1.945  24.635  0.00  0.00    +0.166 C 
ATOM     14  O   UNL     1      -3.532   2.714  24.750  0.00  0.00    -0.349 OA
ATOM     15  C   UNL     1      -2.710   2.684  24.799  0.00  0.00    +0.173 C 
ATOM     16  C   UNL     1      -2.030   3.140  24.900  0.00  0.00    +0.175 C 
ATOM     17  C   UNL     1      -1.378   2.636  24.878  0.00  0.00    +0.174 C 
ATOM     18  O   UNL     1      -1.654   1.867  24.762  0.00  0.00    -0.349 OA
ATOM     19  C   UNL     1      -2.478   1.897  24.714  0.00  0.00    +0.167 C 
ENDROOT
BRANCH  12  11
ATOM      9  C   UNL     1      -3.811   0.185  24.808  0.00  0.00    +0.265 C 
ATOM     10  O   UNL     1      -4.420   0.567  25.216  0.00  0.00    -0.268 OA
ATOM     11  N   UNL     1      -3.180   0.623  24.507  0.00  0.00    -0.198 NA
BRANCH   9   6
ATOM      3  C   UNL     1      -3.882  -2.268  24.493  0.00  0.00    +0.139 A 
ATOM      4  C   UNL     1      -4.190  -1.768  23.913  0.00  0.00    +0.037 A 
ATOM      5  C   UNL     1      -4.166  -0.951  24.018  0.00  0.00    +0.008 A 
ATOM      6  C   UNL     1      -3.835  -0.632  24.703  0.00  0.00    +0.055 A 
ATOM      7  C   UNL     1      -3.527  -1.131  25.283  0.00  0.00    +0.008 A 
ATOM      8  C   UNL     1      -3.551  -1.950  25.178  0.00  0.00    +0.037 A 
BRANCH   3   2
ATOM      1  C   UNL     1      -3.204  -3.519  24.365  0.00  0.00    +0.252 C 
ATOM      2  O   UNL     1      -3.906  -3.086  24.388  0.00  0.00    -0.471 OA
ENDBRANCH   3   2
ENDBRANCH   9   6
ENDBRANCH  12  11
BRANCH  16  20
ATOM     20  O   UNL     1      -2.006   3.958  25.006  0.00  0.00    -0.342 OA
BRANCH  20  21
ATOM     21  C   UNL     1      -1.282   4.342  25.097  0.00  0.00    +0.230 C 
BRANCH  21  22
ATOM     22  C   UNL     1      -1.244   5.166  25.067  0.00  0.00    +0.291 C 
ATOM     23  N   UNL     1      -0.599   5.537  24.711  0.00  0.00    -0.086 NA
ATOM     24  O   UNL     1      -1.852   5.618  25.393  0.00  0.00    -0.269 OA
ENDBRANCH  21  22
ENDBRANCH  20  21
ENDBRANCH  16  20
TORSDOF 6
ENDMDL
MODEL 2
REMARK VINA RESULT:      -7.9      1.414      5.814
REMARK  Name = 
REMARK  6 active torsions:
REMARK  status: ('A' for Active; 'I' for Inactive)
REMARK    1  A    between atoms: O_2  and  C_3
REMARK    2  A    between atoms: C_6  and  C_9
REMARK    3  A    between atoms: N_11  and  C_12
REMARK    4  A    between atoms: C_16  and  O_20
REMARK    5  A    between atoms: O_20  and  C_21
REMARK    6  A    between atoms: C_21  and  C_22
REMARK                            x       y       z     vdW  Elec       q    Type
REMARK                         _______ _______ _______ _____ _____    ______ ____
ROOT
ATOM     12  C   UNL     1      -1.749   1.047  24.739  0.00  0.00    +0.155 C 
ATOM     13  C   UNL     1      -1.122   0.545  24.929  0.00  0.00    +0.166 C 
ATOM     14  O   UNL     1      -1.401  -0.230  24.907  0.00  0.00    -0.349 OA
ATOM     15  C   UNL     1      -2.200  -0.209  24.704  0.00  0.00    +0.173 C 
ATOM     16  C   UNL     1      -2.867  -0.674  24.565  0.00  0.00    +0.175 C 
ATOM     17  C   UNL     1      -3.494  -0.172  24.375  0.00  0.00    +0.174 C 
ATOM     18  O   UNL     1      -3.214   0.603  24.397  0.00  0.00    -0.349 OA
ATOM     19  C   UNL     1      -2.415   0.581  24.600  0.00  0.00    +0.167 C 
ENDROOT
BRANCH  12  11
ATOM      9  C   UNL     1      -1.306   2.298  25.271  0.00  0.00    +0.265 C 
ATOM     10  O   UNL     1      -0.930   1.900  25.890  0.00  0.00    -0.268 OA
ATOM     11  N   UNL     1      -1.715   1.870  24.696  0.00  0.00    -0.198 NA
BRANCH   9   6
ATOM      3  C   UNL     1      -1.204   4.766  25.142  0.00  0.00    +0.139 A 
ATOM      4  C   UNL     1      -0.595   4.311  24.822  0.00  0.00    +0.037 A 
ATOM      5  C   UNL     1      -0.629   3.489  24.865  0.00  0.00    +0.008 A 
ATOM      6  C   UNL     1      -1.272   3.120  25.228  0.00  0.00    +0.055 A 
ATOM      7  C   UNL     1      -1.881   3.575  25.548  0.00  0.00    +0.008 A 
ATOM      8  C   UNL     1      -1.847   4.399  25.505  0.00  0.00    +0.037 A 
BRANCH   3   2
ATOM      1  C   UNL     1      -1.863   6.026  24.996  0.00  0.00    +0.252 C 
ATOM      2  O   UNL     1      -1.170   5.590  25.099  0.00  0.00    -0.471 OA
ENDBRANCH   3   2
ENDBRANCH   9   6
ENDBRANCH  12  11
BRANCH  16  20
ATOM     20  O   UNL     1      -2.901  -1.497  24.609  0.00  0.00    -0.342 OA
BRANCH  20  21
ATOM     21  C   UNL     1      -3.628  -1.884  24.557  0.00  0.00    +0.230 C 
BRANCH  21  22
ATOM     22  C   UNL     1      -3.662  -2.707  24.600  0.00  0.00    +0.291 C 
ATOM     23  N   UNL     1      -3.880  -3.146  23.936  0.00  0.00    -0.086 NA
ATOM     24  O   UNL     1      -3.478  -3.091  25.306  0.00  0.00    -0.269 OA
ENDBRANCH  21  22
ENDBRANCH  20  21
ENDBRANCH  16  20
TORSDOF 6
ENDMDL
MODEL 3
REMARK VINA RESULT:      -7.9      2.648      4.193
REMARK  Name = 
REMARK  6 active torsions:
REMARK  status: ('A' for Active; 'I' for Inactive)
REMARK    1  A    between atoms: O_2  and  C_3
REMARK    2  A    between atoms: C_6  and  C_9
REMARK    3  A    between atoms: N_11  and  C_12
REMARK    4  A    between atoms: C_16  and  O_20
REMARK    5  A    between atoms: O_20  and  C_21
REMARK    6  A    between atoms: C_21  and  C_22
REMARK                            x       y       z     vdW  Elec       q    Type
REMARK                         _______ _______ _______ _____ _____    ______ ____
ROOT
ATOM     12  C   UNL     1      -1.855   1.682  24.254  0.00  0.00    +0.155 C 
ATOM     13  C   UNL     1      -1.488   2.307  23.861  0.00  0.00    +0.166 C 
ATOM     14  O   UNL     1      -0.754   2.043  23.592  0.00  0.00    -0.349 OA
ATOM     15  C   UNL     1      -0.667   1.256  23.819  0.00  0.00    +0.173 C 
ATOM     16  C   UNL     1      -0.161   0.605  23.793  0.00  0.00    +0.175 C 
ATOM     17  C   UNL     1      -0.528  -0.021  24.186  0.00  0.00    +0.174 C 
ATOM     18  O   UNL     1      -1.262   0.243  24.455  0.00  0.00    -0.349 OA
ATOM     19  C   UNL     1      -1.348   1.032  24.228  0.00  0.00    +0.167 C 
ENDROOT
BRANCH  12  11
ATOM      9  C   UNL     1      -3.219   2.109  24.249  0.00  0.00    +0.265 C 
ATOM     10  O   UNL     1      -3.094   2.494  23.529  0.00  0.00    -0.268 OA
ATOM     11  N   UNL     1      -2.598   1.703  24.611  0.00  0.00    -0.198 NA
BRANCH   9   6
ATOM      3  C   UNL     1      -5.449   2.174  25.318  0.00  0.00    +0.139 A 
ATOM      4  C   UNL     1      -5.197   1.491  24.931  0.00  0.00    +0.037 A 
ATOM      5  C   UNL     1      -4.454   1.469  24.574  0.00  0.00    +0.008 A 
ATOM      6  C   UNL     1      -3.962   2.131  24.605  0.00  0.00    +0.055 A 
ATOM      7  C   UNL     1      -4.214   2.814  24.993  0.00  0.00    +0.008 A 
ATOM      8  C   UNL     1      -4.958   2.836  25.350  0.00  0.00    +0.037 A 
BRANCH   3   2
ATOM      1  C   UNL     1      -6.296   1.887  26.433  0.00  0.00    +0.252 C 
ATOM      2  O   UNL     1      -6.193   2.196  25.675  0.00  0.00    -0.471 OA
ENDBRANCH   3   2
ENDBRANCH   9   6
ENDBRANCH  12  11
BRANCH  16  20
ATOM     20  O   UNL     1       0.583   0.583  23.436  0.00  0.00    -0.342 OA
BRANCH  20  21
ATOM     21  C   UNL     1       0.860  -0.118  23.103  0.00  0.00    +0.230 C 
BRANCH  21  22
ATOM     22  C   UNL     1       1.514  -0.106  22.600  0.00  0.00    +0.291 C 
ATOM     23  N   UNL     1       2.250   0.137  22.884  0.00  0.00    -0.086 NA
ATOM     24  O   UNL     1       1.432  -0.335  21.812  0.00  0.00    -0.269 OA
ENDBRANCH  21  22
ENDBRANCH  20  21
ENDBRANCH  16  20
TORSDOF 6
ENDMDL
MODEL 4
REMARK VINA RESULT:      -6.7     17.730     19.716
REMARK  Name = 
REMARK  6 active torsions:
REMARK  status: ('A' for Active; 'I' for Inactive)
REMARK    1  A    between atoms: O_2  and  C_3
REMARK    2  A    between atoms: C_6  and  C_9
REMARK    3  A    between atoms: N_11  and  C_12
REMARK    4  A    between atoms: C_16  and  O_20
REMARK    5  A    between atoms: O_20  and  C_21
REMARK    6  A    between atoms: C_21  and  C_22
REMARK                            x       y       z     vdW  Elec       q    Type
REMARK                         _______ _______ _______ _____ _____    ______ ____
ROOT
ATOM     12  C   UNL     1      14.331   7.671  18.088  0.00  0.00    +0.155 C 
ATOM     13  C   UNL     1      14.414   7.367  17.326  0.00  0.00    +0.166 C 
ATOM     14  O   UNL     1      13.760   7.607  16.884  0.00  0.00    -0.349 OA
ATOM     15  C   UNL     1      13.273   8.059  17.372  0.00  0.00    +0.173 C 
ATOM     16  C   UNL     1      12.569   8.487  17.402  0.00  0.00    +0.175 C 
ATOM     17  C   UNL     1      12.486   8.791  18.164  0.00  0.00    +0.174 C 
ATOM     18  O   UNL     1      13.140   8.551  18.606  0.00  0.00    -0.349 OA
ATOM     19  C   UNL     1      13.626   8.099  18.117  0.00  0.00    +0.167 C 
ENDROOT
BRANCH  12  11
ATOM      9  C   UNL     1      15.258   6.848  18.800  0.00  0.00    +0.265 C 
ATOM     10  O   UNL     1      15.126   6.236  18.263  0.00  0.00    -0.268 OA
ATOM     11  N   UNL     1      14.860   7.566  18.713  0.00  0.00    -0.198 NA
BRANCH   9   6
ATOM      3  C   UNL     1      16.845   6.532  20.672  0.00  0.00    +0.139 A 
ATOM      4  C   UNL     1      17.128   6.684  19.912  0.00  0.00    +0.037 A 
ATOM      5  C   UNL     1      16.600   6.789  19.289  0.00  0.00    +0.008 A 
ATOM      6  C   UNL     1      15.787   6.743  19.424  0.00  0.00    +0.055 A 
ATOM      7  C   UNL     1      15.504   6.591  20.184  0.00  0.00    +0.008 A 
ATOM      8  C   UNL     1      16.033   6.486  20.808  0.00  0.00    +0.037 A 
BRANCH   3   2
ATOM      1  C   UNL     1      17.405   6.979  21.909  0.00  0.00    +0.252 C 
ATOM      2  O   UNL     1      17.374   6.427  21.297  0.00  0.00    -0.471 OA
ENDBRANCH   3   2
ENDBRANCH   9   6
ENDBRANCH  12  11
BRANCH  16  20
ATOM     20  O   UNL     1      12.039   8.592  16.777  0.00  0.00    -0.342 OA
BRANCH  20  21
ATOM     21  C   UNL     1      11.232   8.668  16.929  0.00  0.00    +0.230 C 
BRANCH  21  22
ATOM     22  C   UNL     1      10.688   8.608  16.311  0.00  0.00    +0.291 C 
ATOM     23  N   UNL     1      10.796   9.050  15.623  0.00  0.00    -0.086 NA
ATOM     24  O   UNL     1      10.038   8.106  16.383  0.00  0.00    -0.269 OA
ENDBRANCH  21  22
ENDBRANCH  20  21
ENDBRANCH  16  20
TORSDOF 6
ENDMDL
MODEL 5
REMARK VINA RESULT:      -5.7     16.335     18.808
REMARK  Name = 
REMARK  6 active torsions:
REMARK  status: ('A' for Active; 'I' for Inactive)
REMARK    1  A    between atoms: O_2  and  C_3
REMARK    2  A    between atoms: C_6  and  C_9
REMARK    3  A    between atoms: N_11  and  C_12
REMARK    4  A    between atoms: C_16  and  O_20
REMARK    5  A    between atoms: O_20  and  C_21
REMARK    6  A    between atoms: C_21  and  C_22
REMARK                            x       y       z     vdW  Elec       q    Type
REMARK                         _______ _______ _______ _____ _____    ______ ____
ROOT
ATOM     12  C   UNL     1      14.087   7.276  21.103  0.00  0.00    +0.155 C 
ATOM     13  C   UNL     1      14.301   7.791  21.711  0.00  0.00    +0.166 C 
ATOM     14  O   UNL     1      13.610   8.102  22.036  0.00  0.00    -0.349 OA
ATOM     15  C   UNL     1      12.969   7.780  21.630  0.00  0.00    +0.173 C 
ATOM     16  C   UNL     1      12.146   7.773  21.578  0.00  0.00    +0.175 C 
ATOM     17  C   UNL     1      11.932   7.258  20.970  0.00  0.00    +0.174 C 
ATOM     18  O   UNL     1      12.623   6.947  20.645  0.00  0.00    -0.349 OA
ATOM     19  C   UNL     1      13.264   7.270  21.053  0.00  0.00    +0.167 C 
ENDROOT
BRANCH  12  11
ATOM      9  C   UNL     1      15.329   7.171  20.403  0.00  0.00    +0.265 C 
ATOM     10  O   UNL     1      15.533   7.931  20.653  0.00  0.00    -0.268 OA
ATOM     11  N   UNL     1      14.606   6.844  20.629  0.00  0.00    -0.198 NA
BRANCH   9   6
ATOM      3  C   UNL     1      16.886   5.876  18.982  0.00  0.00    +0.139 A 
ATOM      4  C   UNL     1      16.159   6.122  18.679  0.00  0.00    +0.037 A 
ATOM      5  C   UNL     1      15.640   6.554  19.153  0.00  0.00    +0.008 A 
ATOM      6  C   UNL     1      15.848   6.740  19.930  0.00  0.00    +0.055 A 
ATOM      7  C   UNL     1      16.575   6.493  20.232  0.00  0.00    +0.008 A 
ATOM      8  C   UNL     1      17.094   6.061  19.758  0.00  0.00    +0.037 A 
BRANCH   3   2
ATOM      1  C   UNL     1      17.327   5.464  17.686  0.00  0.00    +0.252 C 
ATOM      2  O   UNL     1      17.405   5.444  18.507  0.00  0.00    -0.471 OA
ENDBRANCH   3   2
ENDBRANCH   9   6
ENDBRANCH  12  11
BRANCH  16  20
ATOM     20  O   UNL     1      11.627   8.205  22.052  0.00  0.00    -0.342 OA
BRANCH  20  21
ATOM     21  C   UNL     1      10.817   8.047  22.029  0.00  0.00    +0.230 C 
BRANCH  21  22
ATOM     22  C   UNL     1      10.318   8.366  22.603  0.00  0.00    +0.291 C 
ATOM     23  N   UNL     1       9.617   7.979  22.802  0.00  0.00    -0.086 NA
ATOM     24  O   UNL     1      10.519   9.074  22.977  0.00  0.00    -0.269 OA
ENDBRANCH  21  22
ENDBRANCH  20  21
ENDBRANCH  16  20
TORSDOF 6
ENDMDL
MODEL 6
REMARK VINA RESULT:      -5.6     15.521     18.290
REMARK  Name = 
REMARK  6 active torsions:
REMARK  status: ('A' for Active; 'I' for Inactive)
REMARK    1  A    between atoms: O_2  and  C_3
REMARK    2  A    between atoms: C_6  and  C_9
REMARK    3  A    between atoms: N_11  and  C_12
REMARK    4  A    between atoms: C_16  and  O_20
REMARK    5  A    between atoms: O_20  and  C_21
REMARK    6  A    between atoms: C_21  and  C_22
REMARK                            x       y       z     vdW  Elec       q    Type
REMARK                         _______ _______ _______ _____ _____    ______ ____
ROOT
ATOM     12  C   UNL     1      11.723   8.736  18.635  0.00  0.00    +0.155 C 
ATOM     13  C   UNL     1      10.911   8.635  18.526  0.00  0.00    +0.166 C 
ATOM     14  O   UNL     1      10.564   8.544  19.268  0.00  0.00    -0.349 OA
ATOM     15  C   UNL     1      11.160   8.589  19.836  0.00  0.00    +0.173 C 
ATOM     16  C   UNL     1      11.315   8.561  20.646  0.00  0.00    +0.175 C 
ATOM     17  C   UNL     1      12.126   8.662  20.755  0.00  0.00    +0.174 C 
ATOM     18  O   UNL     1      12.473   8.753  20.013  0.00  0.00    -0.349 OA
ATOM     19  C   UNL     1      11.876   8.708  19.444  0.00  0.00    +0.167 C 
ENDROOT
BRANCH  12  11
ATOM      9  C   UNL     1      12.128   8.580  17.273  0.00  0.00    +0.265 C 
ATOM     10  O   UNL     1      11.413   8.203  17.104  0.00  0.00    -0.268 OA
ATOM     11  N   UNL     1      12.282   8.846  18.038  0.00  0.00    -0.198 NA
BRANCH   9   6
ATOM      3  C   UNL     1      13.804   8.910  15.483  0.00  0.00    +0.139 A 
ATOM      4  C   UNL     1      14.038   8.616  16.218  0.00  0.00    +0.037 A 
ATOM      5  C   UNL     1      13.479   8.506  16.814  0.00  0.00    +0.008 A 
ATOM      6  C   UNL     1      12.686   8.690  16.677  0.00  0.00    +0.055 A 
ATOM      7  C   UNL     1      12.453   8.984  15.942  0.00  0.00    +0.008 A 
ATOM      8  C   UNL     1      13.012   9.094  15.345  0.00  0.00    +0.037 A 
BRANCH   3   2
ATOM      1  C   UNL     1      15.167   9.037  15.072  0.00  0.00    +0.252 C 
ATOM      2  O   UNL     1      14.364   9.020  14.886  0.00  0.00    -0.471 OA
ENDBRANCH   3   2
ENDBRANCH   9   6
ENDBRANCH  12  11
BRANCH  16  20
ATOM     20  O   UNL     1      10.755   8.451  21.242  0.00  0.00    -0.342 OA
BRANCH  20  21
ATOM     21  C   UNL     1      10.988   8.154  21.976  0.00  0.00    +0.230 C 
BRANCH  21  22
ATOM     22  C   UNL     1      10.426   8.030  22.568  0.00  0.00    +0.291 C 
ATOM     23  N   UNL     1      10.341   8.579  23.178  0.00  0.00    -0.086 NA
ATOM     24  O   UNL     1       9.949   7.357  22.549  0.00  0.00    -0.269 OA
ENDBRANCH  21  22
ENDBRANCH  20  21
ENDBRANCH  16  20
TORSDOF 6
ENDMDL
MODEL 7
REMARK VINA RESULT:      -5.6     16.017     18.519
REMARK  Name = 
REMARK  6 active torsions:
REMARK  status: ('A' for Active; 'I' for Inactive)
REMARK    1  A    between atoms: O_2  and  C_3
REMARK    2  A    between atoms: C_6  and  C_9
REMARK    3  A    between atoms: N_11  and  C_12
REMARK    4  A    between atoms: C_16  and  O_20
REMARK    5  A    between atoms: O_20  and  C_21
REMARK    6  A    between atoms: C_21  and  C_22
REMARK                            x       y       z     vdW  Elec       q    Type
REMARK                         _______ _______ _______ _____ _____    ______ ____
ROOT
ATOM     12  C   UNL     1      13.554   7.441  19.922  0.00  0.00    +0.155 C 
ATOM     13  C   UNL     1      13.421   7.403  19.109  0.00  0.00    +0.166 C 
ATOM     14  O   UNL     1      14.102   7.105  18.753  0.00  0.00    -0.349 OA
ATOM     15  C   UNL     1      14.657   6.959  19.345  0.00  0.00    +0.173 C 
ATOM     16  C   UNL     1      15.421   6.684  19.493  0.00  0.00    +0.175 C 
ATOM     17  C   UNL     1      15.554   6.723  20.305  0.00  0.00    +0.174 C 
ATOM     18  O   UNL     1      14.873   7.021  20.661  0.00  0.00    -0.349 OA
ATOM     19  C   UNL     1      14.318   7.167  20.068  0.00  0.00    +0.167 C 
ENDROOT
BRANCH  12  11
ATOM      9  C   UNL     1      12.239   7.433  20.483  0.00  0.00    +0.265 C 
ATOM     10  O   UNL     1      11.998   6.892  19.908  0.00  0.00    -0.268 OA
ATOM     11  N   UNL     1      13.017   7.707  20.490  0.00  0.00    -0.198 NA
BRANCH   9   6
ATOM      3  C   UNL     1      10.629   8.230  22.184  0.00  0.00    +0.139 A 
ATOM      4  C   UNL     1      10.467   7.548  21.750  0.00  0.00    +0.037 A 
ATOM      5  C   UNL     1      11.003   7.282  21.184  0.00  0.00    +0.008 A 
ATOM      6  C   UNL     1      11.703   7.698  21.050  0.00  0.00    +0.055 A 
ATOM      7  C   UNL     1      11.866   8.381  21.483  0.00  0.00    +0.008 A 
ATOM      8  C   UNL     1      11.329   8.647  22.051  0.00  0.00    +0.037 A 
BRANCH   3   2
ATOM      1  C   UNL     1      10.312   9.092  23.279  0.00  0.00    +0.252 C 
ATOM      2  O   UNL     1      10.093   8.497  22.752  0.00  0.00    -0.471 OA
ENDBRANCH   3   2
ENDBRANCH   9   6
ENDBRANCH  12  11
BRANCH  16  20
ATOM     20  O   UNL     1      15.958   6.418  18.925  0.00  0.00    -0.342 OA
BRANCH  20  21
ATOM     21  C   UNL     1      16.708   6.163  19.154  0.00  0.00    +0.230 C 
BRANCH  21  22
ATOM     22  C   UNL     1      17.114   5.611  18.695  0.00  0.00    +0.291 C 
ATOM     23  N   UNL     1      17.405   4.921  19.042  0.00  0.00    -0.086 NA
ATOM     24  O   UNL     1      17.229   5.748  17.890  0.00  0.00    -0.269 OA
ENDBRANCH  21  22
ENDBRANCH  20  21
ENDBRANCH  16  20
TORSDOF 6
ENDMDL
