MODEL 1
REMARK VINA RESULT:      -9.4      0.000      0.000
REMARK  Name = 
REMARK  7 active torsions:
REMARK  status: ('A' for Active; 'I' for Inactive)
REMARK    1  A    between atoms: O_2  and  C_3
REMARK    2  A    between atoms: C_3  and  C_5
REMARK    3  A    between atoms: C_11  and  C_13
REMARK    4  A    between atoms: C_13  and  C_14
REMARK    5  A    between atoms: C_14  and  C_15
REMARK    6  A    between atoms: N_24  and  C_25
REMARK    7  A    between atoms: C_25  and  C_26
REMARK                            x       y       z     vdW  Elec       q    Type
REMARK                         _______ _______ _______ _____ _____    ______ ____
ROOT
ATOM     15  C   UNL     1      -1.154   0.718  23.895  0.00  0.00    +0.080 C 
ATOM     16  C   UNL     1      -1.129   1.432  23.482  0.00  0.00    +0.131 C 
ATOM     17  N   UNL     1      -1.710   2.015  23.425  0.00  0.00    -0.203 NA
ATOM     18  C   UNL     1      -2.460   2.026  23.767  0.00  0.00    +0.257 C 
ATOM     19  O   UNL     1      -2.917   2.695  23.604  0.00  0.00    -0.272 OA
ATOM     20  C   UNL     1      -2.815   1.460  24.249  0.00  0.00    +0.151 C 
ATOM     21  C   UNL     1      -2.507   0.740  24.510  0.00  0.00    +0.083 C 
ATOM     22  C   UNL     1      -3.078   0.374  24.980  0.00  0.00    +0.035 C 
ATOM     23  C   UNL     1      -3.739   0.867  25.010  0.00  0.00    +0.074 C 
ATOM     24  N   UNL     1      -3.577   1.538  24.559  0.00  0.00    -0.262 NA
ATOM     32  N   UNL     1      -1.768   0.410  24.352  0.00  0.00    -0.271 NA
ATOM     33  C   UNL     1      -1.623  -0.326  24.697  0.00  0.00    +0.090 C 
ENDROOT
BRANCH  15  14
ATOM     14  C   UNL     1      -0.477   0.249  23.843  0.00  0.00    +0.027 C 
BRANCH  14  13
ATOM     13  C   UNL     1       0.194   0.536  23.457  0.00  0.00    +0.087 C 
BRANCH  13  11
ATOM      5  C   UNL     1       3.107   0.557  22.858  0.00  0.00    +0.102 C 
ATOM      6  C   UNL     1       2.598   1.079  23.244  0.00  0.00    +0.033 C 
ATOM      7  C   UNL     1       1.797   0.898  23.315  0.00  0.00    +0.094 C 
ATOM      8  N   UNL     1       1.504   0.194  23.000  0.00  0.00    -0.280 N 
ATOM      9  C   UNL     1       2.013  -0.328  22.614  0.00  0.00    +0.094 C 
ATOM     10  C   UNL     1       2.814  -0.147  22.543  0.00  0.00    +0.033 C 
ATOM     11  C   UNL     1       0.703   0.013  23.071  0.00  0.00    +0.226 C 
ATOM     12  O   UNL     1       0.409  -0.691  22.756  0.00  0.00    -0.275 OA
BRANCH   5   3
ATOM      3  C   UNL     1       3.909   0.738  22.787  0.00  0.00    +0.317 C 
ATOM      4  O   UNL     1       4.224   0.934  22.050  0.00  0.00    -0.250 OA
BRANCH   3   2
ATOM      1  C   UNL     1       5.200   0.559  23.372  0.00  0.00    +0.256 C 
ATOM      2  O   UNL     1       4.396   0.723  23.453  0.00  0.00    -0.444 OA
ENDBRANCH   3   2
ENDBRANCH   5   3
ENDBRANCH  13  11
ENDBRANCH  14  13
ENDBRANCH  15  14
BRANCH  24  25
ATOM     25  C   UNL     1      -4.086   2.176  24.437  0.00  0.00    +0.100 C 
BRANCH  25  26
ATOM     26  C   UNL     1      -4.779   2.240  24.881  0.00  0.00    -0.006 A 
ATOM     27  C   UNL     1      -4.801   2.735  25.541  0.00  0.00    -0.003 A 
ATOM     28  C   UNL     1      -5.493   2.799  25.985  0.00  0.00    -0.000 A 
ATOM     29  C   UNL     1      -6.163   2.369  25.769  0.00  0.00    -0.000 A 
ATOM     30  C   UNL     1      -6.141   1.874  25.109  0.00  0.00    -0.000 A 
ATOM     31  C   UNL     1      -5.449   1.810  24.666  0.00  0.00    -0.003 A 
ENDBRANCH  25  26
ENDBRANCH  24  25
TORSDOF 7
ENDMDL
MODEL 2
REMARK VINA RESULT:      -7.5      1.409      6.907
REMARK  Name = 
REMARK  7 active torsions:
REMARK  status: ('A' for Active; 'I' for Inactive)
REMARK    1  A    between atoms: O_2  and  C_3
REMARK    2  A    between atoms: C_3  and  C_5
REMARK    3  A    between atoms: C_11  and  C_13
REMARK    4  A    between atoms: C_13  and  C_14
REMARK    5  A    between atoms: C_14  and  C_15
REMARK    6  A    between atoms: N_24  and  C_25
REMARK    7  A    between atoms: C_25  and  C_26
REMARK                            x       y       z     vdW  Elec       q    Type
REMARK                         _______ _______ _______ _____ _____    ______ ____
ROOT
ATOM     15  C   UNL     1      -0.629   0.327  24.173  0.00  0.00    +0.080 C 
ATOM     16  C   UNL     1      -0.486   1.096  24.437  0.00  0.00    +0.131 C 
ATOM     17  N   UNL     1       0.186   1.561  24.328  0.00  0.00    -0.203 NA
ATOM     18  C   UNL     1       0.883   1.371  23.929  0.00  0.00    +0.257 C 
ATOM     19  O   UNL     1       1.460   1.961  23.917  0.00  0.00    -0.272 OA
ATOM     20  C   UNL     1       1.079   0.671  23.540  0.00  0.00    +0.151 C 
ATOM     21  C   UNL     1       0.626  -0.014  23.454  0.00  0.00    +0.083 C 
ATOM     22  C   UNL     1       1.068  -0.558  23.019  0.00  0.00    +0.035 C 
ATOM     23  C   UNL     1       1.794  -0.210  22.836  0.00  0.00    +0.074 C 
ATOM     24  N   UNL     1       1.800   0.549  23.158  0.00  0.00    -0.262 NA
ATOM     32  N   UNL     1      -0.133  -0.166  23.736  0.00  0.00    -0.271 NA
ATOM     33  C   UNL     1      -0.438  -0.912  23.556  0.00  0.00    +0.090 C 
ENDROOT
BRANCH  15  14
ATOM     14  C   UNL     1      -1.363   0.010  24.374  0.00  0.00    +0.027 C 
BRANCH  14  13
ATOM     13  C   UNL     1      -2.001   0.511  24.526  0.00  0.00    +0.087 C 
BRANCH  13  11
ATOM      5  C   UNL     1      -4.694   1.672  25.026  0.00  0.00    +0.102 C 
ATOM      6  C   UNL     1      -3.972   1.986  24.778  0.00  0.00    +0.033 C 
ATOM      7  C   UNL     1      -3.316   1.494  24.694  0.00  0.00    +0.094 C 
ATOM      8  N   UNL     1      -3.379   0.688  24.858  0.00  0.00    -0.280 N 
ATOM      9  C   UNL     1      -4.101   0.374  25.106  0.00  0.00    +0.094 C 
ATOM     10  C   UNL     1      -4.758   0.866  25.190  0.00  0.00    +0.033 C 
ATOM     11  C   UNL     1      -2.723   0.197  24.774  0.00  0.00    +0.226 C 
ATOM     12  O   UNL     1      -2.787  -0.610  24.938  0.00  0.00    -0.275 OA
BRANCH   5   3
ATOM      3  C   UNL     1      -5.351   2.164  25.110  0.00  0.00    +0.317 C 
ATOM      4  O   UNL     1      -6.084   1.926  24.816  0.00  0.00    -0.250 OA
BRANCH   3   2
ATOM      1  C   UNL     1      -5.943   3.355  25.633  0.00  0.00    +0.256 C 
ATOM      2  O   UNL     1      -5.275   2.892  25.489  0.00  0.00    -0.444 OA
ENDBRANCH   3   2
ENDBRANCH   5   3
ENDBRANCH  13  11
ENDBRANCH  14  13
ENDBRANCH  15  14
BRANCH  24  25
ATOM     25  C   UNL     1       2.420   1.093  23.107  0.00  0.00    +0.100 C 
BRANCH  25  26
ATOM     26  C   UNL     1       3.185   0.831  22.944  0.00  0.00    -0.006 A 
ATOM     27  C   UNL     1       3.452   0.797  22.164  0.00  0.00    -0.003 A 
ATOM     28  C   UNL     1       4.217   0.535  22.002  0.00  0.00    -0.000 A 
ATOM     29  C   UNL     1       4.715   0.307  22.618  0.00  0.00    -0.000 A 
ATOM     30  C   UNL     1       4.448   0.341  23.399  0.00  0.00    -0.000 A 
ATOM     31  C   UNL     1       3.683   0.603  23.561  0.00  0.00    -0.003 A 
ENDBRANCH  25  26
ENDBRANCH  24  25
TORSDOF 7
ENDMDL
MODEL 3
REMARK VINA RESULT:      -7.4     14.154     14.880
REMARK  Name = 
REMARK  7 active torsions:
REMARK  status: ('A' for Active; 'I' for Inactive)
REMARK    1  A    between atoms: O_2  and  C_3
REMARK    2  A    between atoms: C_3  and  C_5
REMARK    3  A    between atoms: C_11  and  C_13
REMARK    4  A    between atoms: C_13  and  C_14
REMARK    5  A    between atoms: C_14  and  C_15
REMARK    6  A    between atoms: N_24  and  C_25
REMARK    7  A    between atoms: C_25  and  C_26
REMARK                            x       y       z     vdW  Elec       q    Type
REMARK                         _______ _______ _______ _____ _____    ______ ____
ROOT
ATOM     15  C   UNL     1      -5.605 -10.258  15.618  0.00  0.00    +0.080 C 
ATOM     16  C   UNL     1      -6.020 -10.337  14.908  0.00  0.00    +0.131 C 
ATOM     17  N   UNL     1      -6.815 -10.178  14.756  0.00  0.00    -0.203 NA
ATOM     18  C   UNL     1      -7.392  -9.901  15.276  0.00  0.00    +0.257 C 
ATOM     19  O   UNL     1      -8.144  -9.796  14.953  0.00  0.00    -0.272 OA
ATOM     20  C   UNL     1      -7.317  -9.714  16.076  0.00  0.00    +0.151 C 
ATOM     21  C   UNL     1      -6.647  -9.759  16.554  0.00  0.00    +0.083 C 
ATOM     22  C   UNL     1      -6.858  -9.512  17.313  0.00  0.00    +0.035 C 
ATOM     23  C   UNL     1      -7.659  -9.315  17.303  0.00  0.00    +0.074 C 
ATOM     24  N   UNL     1      -7.943  -9.440  16.539  0.00  0.00    -0.262 NA
ATOM     32  N   UNL     1      -5.885 -10.001  16.350  0.00  0.00    -0.271 NA
ATOM     33  C   UNL     1      -5.329  -9.983  16.960  0.00  0.00    +0.090 C 
ENDROOT
BRANCH  15  14
ATOM     14  C   UNL     1      -4.807 -10.463  15.592  0.00  0.00    +0.027 C 
BRANCH  14  13
ATOM     13  C   UNL     1      -4.435 -10.580  14.865  0.00  0.00    +0.087 C 
BRANCH  13  11
ATOM      5  C   UNL     1      -2.453 -10.408  12.653  0.00  0.00    +0.102 C 
ATOM      6  C   UNL     1      -3.275 -10.346  12.691  0.00  0.00    +0.033 C 
ATOM      7  C   UNL     1      -3.661 -10.424  13.415  0.00  0.00    +0.094 C 
ATOM      8  N   UNL     1      -3.227 -10.563  14.102  0.00  0.00    -0.280 N 
ATOM      9  C   UNL     1      -2.404 -10.624  14.064  0.00  0.00    +0.094 C 
ATOM     10  C   UNL     1      -2.018 -10.547  13.340  0.00  0.00    +0.033 C 
ATOM     11  C   UNL     1      -3.613 -10.641  14.826  0.00  0.00    +0.226 C 
ATOM     12  O   UNL     1      -3.178 -10.780  15.514  0.00  0.00    -0.275 OA
BRANCH   5   3
ATOM      3  C   UNL     1      -2.066 -10.330  11.928  0.00  0.00    +0.317 C 
ATOM      4  O   UNL     1      -2.388 -10.672  11.250  0.00  0.00    -0.250 OA
BRANCH   3   2
ATOM      1  C   UNL     1      -1.138  -9.548  11.173  0.00  0.00    +0.256 C 
ATOM      2  O   UNL     1      -1.358  -9.910  11.882  0.00  0.00    -0.444 OA
ENDBRANCH   3   2
ENDBRANCH   5   3
ENDBRANCH  13  11
ENDBRANCH  14  13
ENDBRANCH  15  14
BRANCH  24  25
ATOM     25  C   UNL     1      -8.717  -9.313  16.283  0.00  0.00    +0.100 C 
BRANCH  25  26
ATOM     26  C   UNL     1      -9.285  -9.032  16.811  0.00  0.00    -0.006 A 
ATOM     27  C   UNL     1      -9.420  -8.221  16.878  0.00  0.00    -0.003 A 
ATOM     28  C   UNL     1      -9.988  -7.940  17.406  0.00  0.00    -0.000 A 
ATOM     29  C   UNL     1     -10.422  -8.470  17.867  0.00  0.00    -0.000 A 
ATOM     30  C   UNL     1     -10.287  -9.281  17.799  0.00  0.00    -0.000 A 
ATOM     31  C   UNL     1      -9.719  -9.562  17.271  0.00  0.00    -0.003 A 
ENDBRANCH  25  26
ENDBRANCH  24  25
TORSDOF 7
ENDMDL
MODEL 4
REMARK VINA RESULT:      -7.0      3.320      5.123
REMARK  Name = 
REMARK  7 active torsions:
REMARK  status: ('A' for Active; 'I' for Inactive)
REMARK    1  A    between atoms: O_2  and  C_3
REMARK    2  A    between atoms: C_3  and  C_5
REMARK    3  A    between atoms: C_11  and  C_13
REMARK    4  A    between atoms: C_13  and  C_14
REMARK    5  A    between atoms: C_14  and  C_15
REMARK    6  A    between atoms: N_24  and  C_25
REMARK    7  A    between atoms: C_25  and  C_26
REMARK                            x       y       z     vdW  Elec       q    Type
REMARK                         _______ _______ _______ _____ _____    ______ ____
ROOT
ATOM     15  C   UNL     1      -0.505   0.712  25.023  0.00  0.00    +0.080 C 
ATOM     16  C   UNL     1      -0.508   0.829  25.840  0.00  0.00    +0.131 C 
ATOM     17  N   UNL     1      -0.538   1.540  26.257  0.00  0.00    -0.203 NA
ATOM     18  C   UNL     1      -0.571   2.309  25.961  0.00  0.00    +0.257 C 
ATOM     19  O   UNL     1      -0.595   2.910  26.527  0.00  0.00    -0.272 OA
ATOM     20  C   UNL     1      -0.583   2.558  25.175  0.00  0.00    +0.151 C 
ATOM     21  C   UNL     1      -0.565   2.098  24.490  0.00  0.00    +0.083 C 
ATOM     22  C   UNL     1      -0.588   2.607  23.841  0.00  0.00    +0.035 C 
ATOM     23  C   UNL     1      -0.620   3.381  24.125  0.00  0.00    +0.074 C 
ATOM     24  N   UNL     1      -0.617   3.351  24.949  0.00  0.00    -0.262 NA
ATOM     32  N   UNL     1      -0.530   1.277  24.423  0.00  0.00    -0.271 NA
ATOM     33  C   UNL     1      -0.520   0.981  23.652  0.00  0.00    +0.090 C 
ENDROOT
BRANCH  15  14
ATOM     14  C   UNL     1      -0.472  -0.074  24.774  0.00  0.00    +0.027 C 
BRANCH  14  13
ATOM     13  C   UNL     1      -0.932  -0.646  25.152  0.00  0.00    +0.087 C 
BRANCH  13  11
ATOM      5  C   UNL     1      -3.110  -2.526  24.395  0.00  0.00    +0.102 C 
ATOM      6  C   UNL     1      -3.095  -1.752  24.682  0.00  0.00    +0.033 C 
ATOM      7  C   UNL     1      -2.375  -1.384  24.838  0.00  0.00    +0.094 C 
ATOM      8  N   UNL     1      -1.667  -1.788  24.709  0.00  0.00    -0.280 N 
ATOM      9  C   UNL     1      -1.682  -2.562  24.422  0.00  0.00    +0.094 C 
ATOM     10  C   UNL     1      -2.402  -2.930  24.266  0.00  0.00    +0.033 C 
ATOM     11  C   UNL     1      -0.947  -1.419  24.865  0.00  0.00    +0.226 C 
ATOM     12  O   UNL     1      -0.239  -1.824  24.735  0.00  0.00    -0.275 OA
BRANCH   5   3
ATOM      3  C   UNL     1      -3.831  -2.895  24.239  0.00  0.00    +0.317 C 
ATOM      4  O   UNL     1      -3.969  -3.662  24.509  0.00  0.00    -0.250 OA
BRANCH   3   2
ATOM      1  C   UNL     1      -5.030  -2.919  23.461  0.00  0.00    +0.256 C 
ATOM      2  O   UNL     1      -4.414  -2.497  23.812  0.00  0.00    -0.444 OA
ENDBRANCH   3   2
ENDBRANCH   5   3
ENDBRANCH  13  11
ENDBRANCH  14  13
ENDBRANCH  15  14
BRANCH  24  25
ATOM     25  C   UNL     1      -0.644   3.999  25.458  0.00  0.00    +0.100 C 
BRANCH  25  26
ATOM     26  C   UNL     1      -1.064   4.676  25.242  0.00  0.00    -0.006 A 
ATOM     27  C   UNL     1      -1.870   4.732  25.410  0.00  0.00    -0.003 A 
ATOM     28  C   UNL     1      -2.290   5.408  25.194  0.00  0.00    -0.000 A 
ATOM     29  C   UNL     1      -1.904   6.029  24.811  0.00  0.00    -0.000 A 
ATOM     30  C   UNL     1      -1.098   5.973  24.643  0.00  0.00    -0.000 A 
ATOM     31  C   UNL     1      -0.678   5.296  24.859  0.00  0.00    -0.003 A 
ENDBRANCH  25  26
ENDBRANCH  24  25
TORSDOF 7
ENDMDL
MODEL 5
REMARK VINA RESULT:      -6.6     15.196     16.729
REMARK  Name = 
REMARK  7 active torsions:
REMARK  status: ('A' for Active; 'I' for Inactive)
REMARK    1  A    between atoms: O_2  and  C_3
REMARK    2  A    between atoms: C_3  and  C_5
REMARK    3  A    between atoms: C_11  and  C_13
REMARK    4  A    between atoms: C_13  and  C_14
REMARK    5  A    between atoms: C_14  and  C_15
REMARK    6  A    between atoms: N_24  and  C_25
REMARK    7  A    between atoms: C_25  and  C_26
REMARK                            x       y       z     vdW  Elec       q    Type
REMARK                         _______ _______ _______ _____ _____    ______ ____
ROOT
ATOM     15  C   UNL     1      -6.235  -9.972  13.795  0.00  0.00    +0.080 C 
ATOM     16  C   UNL     1      -5.523 -10.348  13.976  0.00  0.00    +0.131 C 
ATOM     17  N   UNL     1      -4.886 -10.511  13.478  0.00  0.00    -0.203 NA
ATOM     18  C   UNL     1      -4.804 -10.340  12.676  0.00  0.00    +0.257 C 
ATOM     19  O   UNL     1      -4.093 -10.577  12.330  0.00  0.00    -0.272 OA
ATOM     20  C   UNL     1      -5.338  -9.963  12.173  0.00  0.00    +0.151 C 
ATOM     21  C   UNL     1      -6.087  -9.664  12.348  0.00  0.00    +0.083 C 
ATOM     22  C   UNL     1      -6.400  -9.339  11.657  0.00  0.00    +0.035 C 
ATOM     23  C   UNL     1      -5.845  -9.438  11.054  0.00  0.00    +0.074 C 
ATOM     24  N   UNL     1      -5.189  -9.823  11.373  0.00  0.00    -0.262 NA
ATOM     32  N   UNL     1      -6.485  -9.668  13.070  0.00  0.00    -0.271 NA
ATOM     33  C   UNL     1      -7.235  -9.322  13.067  0.00  0.00    +0.090 C 
ENDROOT
BRANCH  15  14
ATOM     14  C   UNL     1      -6.767  -9.890  14.420  0.00  0.00    +0.027 C 
BRANCH  14  13
ATOM     13  C   UNL     1      -6.588 -10.213  15.158  0.00  0.00    +0.087 C 
BRANCH  13  11
ATOM      5  C   UNL     1      -6.191 -10.476  18.094  0.00  0.00    +0.102 C 
ATOM      6  C   UNL     1      -5.737 -10.677  17.435  0.00  0.00    +0.033 C 
ATOM      7  C   UNL     1      -6.020 -10.522  16.677  0.00  0.00    +0.094 C 
ATOM      8  N   UNL     1      -6.758 -10.167  16.576  0.00  0.00    -0.280 N 
ATOM      9  C   UNL     1      -7.213  -9.967  17.235  0.00  0.00    +0.094 C 
ATOM     10  C   UNL     1      -6.929 -10.121  17.994  0.00  0.00    +0.033 C 
ATOM     11  C   UNL     1      -7.042 -10.013  15.818  0.00  0.00    +0.226 C 
ATOM     12  O   UNL     1      -7.780  -9.657  15.717  0.00  0.00    -0.275 OA
BRANCH   5   3
ATOM      3  C   UNL     1      -5.907 -10.631  18.854  0.00  0.00    +0.317 C 
ATOM      4  O   UNL     1      -5.104 -10.781  18.971  0.00  0.00    -0.250 OA
BRANCH   3   2
ATOM      1  C   UNL     1      -6.139 -10.770  20.257  0.00  0.00    +0.256 C 
ATOM      2  O   UNL     1      -6.426 -10.636  19.495  0.00  0.00    -0.444 OA
ENDBRANCH   3   2
ENDBRANCH   5   3
ENDBRANCH  13  11
ENDBRANCH  14  13
ENDBRANCH  15  14
BRANCH  24  25
ATOM     25  C   UNL     1      -4.503 -10.032  10.964  0.00  0.00    +0.100 C 
BRANCH  25  26
ATOM     26  C   UNL     1      -4.412  -9.813  10.174  0.00  0.00    -0.006 A 
ATOM     27  C   UNL     1      -4.644 -10.328   9.573  0.00  0.00    -0.003 A 
ATOM     28  C   UNL     1      -4.553 -10.109   8.783  0.00  0.00    -0.000 A 
ATOM     29  C   UNL     1      -4.229  -9.374   8.594  0.00  0.00    -0.000 A 
ATOM     30  C   UNL     1      -3.996  -8.859   9.195  0.00  0.00    -0.000 A 
ATOM     31  C   UNL     1      -4.087  -9.078   9.984  0.00  0.00    -0.003 A 
ENDBRANCH  25  26
ENDBRANCH  24  25
TORSDOF 7
ENDMDL
MODEL 6
REMARK VINA RESULT:      -6.4     14.989     15.752
REMARK  Name = 
REMARK  7 active torsions:
REMARK  status: ('A' for Active; 'I' for Inactive)
REMARK    1  A    between atoms: O_2  and  C_3
REMARK    2  A    between atoms: C_3  and  C_5
REMARK    3  A    between atoms: C_11  and  C_13
REMARK    4  A    between atoms: C_13  and  C_14
REMARK    5  A    between atoms: C_14  and  C_15
REMARK    6  A    between atoms: N_24  and  C_25
REMARK    7  A    between atoms: C_25  and  C_26
REMARK                            x       y       z     vdW  Elec       q    Type
REMARK                         _______ _______ _______ _____ _____    ______ ____
ROOT
ATOM     15  C   UNL     1      -6.652 -10.264  15.060  0.00  0.00    +0.080 C 
ATOM     16  C   UNL     1      -7.246 -10.596  14.592  0.00  0.00    +0.131 C 
ATOM     17  N   UNL     1      -8.042 -10.713  14.777  0.00  0.00    -0.203 NA
ATOM     18  C   UNL     1      -8.439 -10.527  15.475  0.00  0.00    +0.257 C 
ATOM     19  O   UNL     1      -9.244 -10.714  15.490  0.00  0.00    -0.272 OA
ATOM     20  C   UNL     1      -8.141 -10.178  16.161  0.00  0.00    +0.151 C 
ATOM     21  C   UNL     1      -7.370  -9.929  16.317  0.00  0.00    +0.083 C 
ATOM     22  C   UNL     1      -7.354  -9.617  17.081  0.00  0.00    +0.035 C 
ATOM     23  C   UNL     1      -8.115  -9.673  17.396  0.00  0.00    +0.074 C 
ATOM     24  N   UNL     1      -8.601 -10.019  16.827  0.00  0.00    -0.262 NA
ATOM     32  N   UNL     1      -6.708  -9.968  15.827  0.00  0.00    -0.271 NA
ATOM     33  C   UNL     1      -6.008  -9.670  16.148  0.00  0.00    +0.090 C 
ENDROOT
BRANCH  15  14
ATOM     14  C   UNL     1      -5.905 -10.224  14.714  0.00  0.00    +0.027 C 
BRANCH  14  13
ATOM     13  C   UNL     1      -5.832 -10.114  13.900  0.00  0.00    +0.087 C 
BRANCH  13  11
ATOM      5  C   UNL     1      -4.655  -9.383  11.267  0.00  0.00    +0.102 C 
ATOM      6  C   UNL     1      -5.365  -9.202  11.647  0.00  0.00    +0.033 C 
ATOM      7  C   UNL     1      -5.521  -9.505  12.397  0.00  0.00    +0.094 C 
ATOM      8  N   UNL     1      -4.967  -9.991  12.769  0.00  0.00    -0.280 N 
ATOM      9  C   UNL     1      -4.257 -10.173  12.389  0.00  0.00    +0.094 C 
ATOM     10  C   UNL     1      -4.102  -9.869  11.639  0.00  0.00    +0.033 C 
ATOM     11  C   UNL     1      -5.123 -10.295  13.519  0.00  0.00    +0.226 C 
ATOM     12  O   UNL     1      -4.569 -10.781  13.891  0.00  0.00    -0.275 OA
BRANCH   5   3
ATOM      3  C   UNL     1      -4.499  -9.079  10.516  0.00  0.00    +0.317 C 
ATOM      4  O   UNL     1      -4.835  -8.362  10.284  0.00  0.00    -0.250 OA
BRANCH   3   2
ATOM      1  C   UNL     1      -4.055  -9.352   9.186  0.00  0.00    +0.256 C 
ATOM      2  O   UNL     1      -4.009  -9.492   9.998  0.00  0.00    -0.444 OA
ENDBRANCH   3   2
ENDBRANCH   5   3
ENDBRANCH  13  11
ENDBRANCH  14  13
ENDBRANCH  15  14
BRANCH  24  25
ATOM     25  C   UNL     1      -9.406 -10.180  16.911  0.00  0.00    +0.100 C 
BRANCH  25  26
ATOM     26  C   UNL     1      -9.771 -10.090  17.645  0.00  0.00    -0.006 A 
ATOM     27  C   UNL     1      -9.718 -10.692  18.208  0.00  0.00    -0.003 A 
ATOM     28  C   UNL     1     -10.082 -10.602  18.942  0.00  0.00    -0.000 A 
ATOM     29  C   UNL     1     -10.499  -9.912  19.115  0.00  0.00    -0.000 A 
ATOM     30  C   UNL     1     -10.551  -9.310  18.553  0.00  0.00    -0.000 A 
ATOM     31  C   UNL     1     -10.187  -9.399  17.818  0.00  0.00    -0.003 A 
ENDBRANCH  25  26
ENDBRANCH  24  25
TORSDOF 7
ENDMDL
MODEL 7
REMARK VINA RESULT:      -6.2      1.592      2.344
REMARK  Name = 
REMARK  7 active torsions:
REMARK  status: ('A' for Active; 'I' for Inactive)
REMARK    1  A    between atoms: O_2  and  C_3
REMARK    2  A    between atoms: C_3  and  C_5
REMARK    3  A    between atoms: C_11  and  C_13
REMARK    4  A    between atoms: C_13  and  C_14
REMARK    5  A    between atoms: C_14  and  C_15
REMARK    6  A    between atoms: N_24  and  C_25
REMARK    7  A    between atoms: C_25  and  C_26
REMARK                            x       y       z     vdW  Elec       q    Type
REMARK                         _______ _______ _______ _____ _____    ______ ____
ROOT
ATOM     15  C   UNL     1       0.254   0.152  23.473  0.00  0.00    +0.080 C 
ATOM     16  C   UNL     1       0.268  -0.630  23.739  0.00  0.00    +0.131 C 
ATOM     17  N   UNL     1      -0.314  -1.042  24.153  0.00  0.00    -0.203 NA
ATOM     18  C   UNL     1      -1.053  -0.775  24.404  0.00  0.00    +0.257 C 
ATOM     19  O   UNL     1      -1.514  -1.327  24.810  0.00  0.00    -0.272 OA
ATOM     20  C   UNL     1      -1.393  -0.031  24.303  0.00  0.00    +0.151 C 
ATOM     21  C   UNL     1      -1.078   0.632  23.925  0.00  0.00    +0.083 C 
ATOM     22  C   UNL     1      -1.633   1.240  23.972  0.00  0.00    +0.035 C 
ATOM     23  C   UNL     1      -2.292   0.954  24.378  0.00  0.00    +0.074 C 
ATOM     24  N   UNL     1      -2.144   0.169  24.583  0.00  0.00    -0.262 NA
ATOM     32  N   UNL     1      -0.344   0.712  23.556  0.00  0.00    -0.271 NA
ATOM     33  C   UNL     1      -0.190   1.453  23.226  0.00  0.00    +0.090 C 
ENDROOT
BRANCH  15  14
ATOM     14  C   UNL     1       0.929   0.405  23.071  0.00  0.00    +0.027 C 
BRANCH  14  13
ATOM     13  C   UNL     1       1.596  -0.079  23.040  0.00  0.00    +0.087 C 
BRANCH  13  11
ATOM      5  C   UNL     1       4.550   0.258  23.153  0.00  0.00    +0.102 C 
ATOM      6  C   UNL     1       3.967   0.122  23.721  0.00  0.00    +0.033 C 
ATOM      7  C   UNL     1       3.177   0.055  23.494  0.00  0.00    +0.094 C 
ATOM      8  N   UNL     1       2.969   0.124  22.699  0.00  0.00    -0.280 N 
ATOM      9  C   UNL     1       3.552   0.260  22.130  0.00  0.00    +0.094 C 
ATOM     10  C   UNL     1       4.341   0.327  22.357  0.00  0.00    +0.033 C 
ATOM     11  C   UNL     1       2.179   0.057  22.472  0.00  0.00    +0.226 C 
ATOM     12  O   UNL     1       1.970   0.126  21.676  0.00  0.00    -0.275 OA
BRANCH   5   3
ATOM      3  C   UNL     1       5.340   0.325  23.380  0.00  0.00    +0.317 C 
ATOM      4  O   UNL     1       5.567   0.911  23.914  0.00  0.00    -0.250 OA
BRANCH   3   2
ATOM      1  C   UNL     1       6.661  -0.219  23.397  0.00  0.00    +0.256 C 
ATOM      2  O   UNL     1       5.903  -0.193  23.072  0.00  0.00    -0.444 OA
ENDBRANCH   3   2
ENDBRANCH   5   3
ENDBRANCH  13  11
ENDBRANCH  14  13
ENDBRANCH  15  14
BRANCH  24  25
ATOM     25  C   UNL     1      -2.656  -0.330  24.995  0.00  0.00    +0.100 C 
BRANCH  25  26
ATOM     26  C   UNL     1      -3.472  -0.228  24.929  0.00  0.00    -0.006 A 
ATOM     27  C   UNL     1      -3.897  -0.657  24.366  0.00  0.00    -0.003 A 
ATOM     28  C   UNL     1      -4.713  -0.555  24.301  0.00  0.00    -0.000 A 
ATOM     29  C   UNL     1      -5.104  -0.024  24.797  0.00  0.00    -0.000 A 
ATOM     30  C   UNL     1      -4.679   0.404  25.359  0.00  0.00    -0.000 A 
ATOM     31  C   UNL     1      -3.863   0.302  25.425  0.00  0.00    -0.003 A 
ENDBRANCH  25  26
ENDBRANCH  24  25
TORSDOF 7
ENDMDL
MODEL 8
REMARK VINA RESULT:      -6.2     16.905     17.597
REMARK  Name = 
REMARK  7 active torsions:
REMARK  status: ('A' for Active; 'I' for Inactive)
REMARK    1  A    between atoms: O_2  and  C_3
REMARK    2  A    between atoms: C_3  and  C_5
REMARK    3  A    between atoms: C_11  and  C_13
REMARK    4  A    between atoms: C_13  and  C_14
REMARK    5  A    between atoms: C_14  and  C_15
REMARK    6  A    between atoms: N_24  and  C_25
REMARK    7  A    between atoms: C_25  and  C_26
REMARK                            x       y       z     vdW  Elec       q    Type
REMARK                         _______ _______ _______ _____ _____    ______ ____
ROOT
ATOM     15  C   UNL     1      -5.126  -9.782  10.341  0.00  0.00    +0.080 C 
ATOM     16  C   UNL     1      -4.905  -9.763   9.546  0.00  0.00    +0.131 C 
ATOM     17  N   UNL     1      -5.344  -9.505   8.896  0.00  0.00    -0.203 NA
ATOM     18  C   UNL     1      -6.111  -9.203   8.881  0.00  0.00    +0.257 C 
ATOM     19  O   UNL     1      -6.398  -8.991   8.137  0.00  0.00    -0.272 OA
ATOM     20  C   UNL     1      -6.630  -9.084   9.512  0.00  0.00    +0.151 C 
ATOM     21  C   UNL     1      -6.509  -9.238  10.313  0.00  0.00    +0.083 C 
ATOM     22  C   UNL     1      -7.195  -9.024  10.720  0.00  0.00    +0.035 C 
ATOM     23  C   UNL     1      -7.739  -8.738  10.169  0.00  0.00    +0.074 C 
ATOM     24  N   UNL     1      -7.390  -8.775   9.423  0.00  0.00    -0.262 NA
ATOM     32  N   UNL     1      -5.840  -9.549  10.682  0.00  0.00    -0.271 NA
ATOM     33  C   UNL     1      -5.892  -9.638  11.501  0.00  0.00    +0.090 C 
ENDROOT
BRANCH  15  14
ATOM     14  C   UNL     1      -4.559 -10.074  10.863  0.00  0.00    +0.027 C 
BRANCH  14  13
ATOM     13  C   UNL     1      -3.757  -9.947  10.714  0.00  0.00    +0.087 C 
BRANCH  13  11
ATOM      5  C   UNL     1      -0.959  -9.117  11.291  0.00  0.00    +0.102 C 
ATOM      6  C   UNL     1      -1.525  -8.879  10.740  0.00  0.00    +0.033 C 
ATOM      7  C   UNL     1      -2.268  -9.235  10.731  0.00  0.00    +0.094 C 
ATOM      8  N   UNL     1      -2.448  -9.830  11.274  0.00  0.00    -0.280 N 
ATOM      9  C   UNL     1      -1.882 -10.068  11.826  0.00  0.00    +0.094 C 
ATOM     10  C   UNL     1      -1.139  -9.712  11.834  0.00  0.00    +0.033 C 
ATOM     11  C   UNL     1      -3.191 -10.186  11.266  0.00  0.00    +0.226 C 
ATOM     12  O   UNL     1      -3.371 -10.780  11.809  0.00  0.00    -0.275 OA
BRANCH   5   3
ATOM      3  C   UNL     1      -0.215  -8.761  11.300  0.00  0.00    +0.317 C 
ATOM      4  O   UNL     1       0.353  -8.980  10.743  0.00  0.00    -0.250 OA
BRANCH   3   2
ATOM      1  C   UNL     1       0.701  -7.822  11.866  0.00  0.00    +0.256 C 
ATOM      2  O   UNL     1      -0.039  -8.187  11.865  0.00  0.00    -0.444 OA
ENDBRANCH   3   2
ENDBRANCH   5   3
ENDBRANCH  13  11
ENDBRANCH  14  13
ENDBRANCH  15  14
BRANCH  24  25
ATOM     25  C   UNL     1      -7.739  -8.544   8.712  0.00  0.00    +0.100 C 
BRANCH  25  26
ATOM     26  C   UNL     1      -8.484  -8.189   8.715  0.00  0.00    -0.006 A 
ATOM     27  C   UNL     1      -8.550  -7.367   8.743  0.00  0.00    -0.003 A 
ATOM     28  C   UNL     1      -9.295  -7.013   8.746  0.00  0.00    -0.000 A 
ATOM     29  C   UNL     1      -9.974  -7.480   8.722  0.00  0.00    -0.000 A 
ATOM     30  C   UNL     1      -9.909  -8.302   8.694  0.00  0.00    -0.000 A 
ATOM     31  C   UNL     1      -9.164  -8.657   8.691  0.00  0.00    -0.003 A 
ENDBRANCH  25  26
ENDBRANCH  24  25
TORSDOF 7
ENDMDL
MODEL 9
REMARK VINA RESULT:      -5.8      3.141      4.790
REMARK  Name = 
REMARK  7 active torsions:
REMARK  status: ('A' for Active; 'I' for Inactive)
REMARK    1  A    between atoms: O_2  and  C_3
REMARK    2  A    between atoms: C_3  and  C_5
REMARK    3  A    between atoms: C_11  and  C_13
REMARK    4  A    between atoms: C_13  and  C_14
REMARK    5  A    between atoms: C_14  and  C_15
REMARK    6  A    between atoms: N_24  and  C_25
REMARK    7  A    between atoms: C_25  and  C_26
REMARK                            x       y       z     vdW  Elec       q    Type
REMARK                         _______ _______ _______ _____ _____    ______ ____
ROOT
ATOM     15  C   UNL     1      -0.680   0.287  25.101  0.00  0.00    +0.080 C 
ATOM     16  C   UNL     1      -1.192   0.431  25.732  0.00  0.00    +0.131 C 
ATOM     17  N   UNL     1      -1.841  -0.013  25.980  0.00  0.00    -0.203 NA
ATOM     18  C   UNL     1      -2.138  -0.712  25.659  0.00  0.00    +0.257 C 
ATOM     19  O   UNL     1      -2.802  -1.026  26.037  0.00  0.00    -0.272 OA
ATOM     20  C   UNL     1      -1.860  -1.140  25.011  0.00  0.00    +0.151 C 
ATOM     21  C   UNL     1      -1.216  -0.973  24.523  0.00  0.00    +0.083 C 
ATOM     22  C   UNL     1      -1.168  -1.568  23.953  0.00  0.00    +0.035 C 
ATOM     23  C   UNL     1      -1.782  -2.103  24.089  0.00  0.00    +0.074 C 
ATOM     24  N   UNL     1      -2.210  -1.838  24.743  0.00  0.00    -0.262 NA
ATOM     32  N   UNL     1      -0.691  -0.339  24.564  0.00  0.00    -0.271 NA
ATOM     33  C   UNL     1      -0.098  -0.328  23.989  0.00  0.00    +0.090 C 
ENDROOT
BRANCH  15  14
ATOM     14  C   UNL     1      -0.078   0.840  24.994  0.00  0.00    +0.027 C 
BRANCH  14  13
ATOM     13  C   UNL     1      -0.175   1.613  25.267  0.00  0.00    +0.087 C 
BRANCH  13  11
ATOM      5  C   UNL     1      -0.948   4.468  24.949  0.00  0.00    +0.102 C 
ATOM      6  C   UNL     1      -1.257   3.835  25.380  0.00  0.00    +0.033 C 
ATOM      7  C   UNL     1      -0.897   3.095  25.342  0.00  0.00    +0.094 C 
ATOM      8  N   UNL     1      -0.226   2.985  24.874  0.00  0.00    -0.280 N 
ATOM      9  C   UNL     1       0.083   3.618  24.443  0.00  0.00    +0.094 C 
ATOM     10  C   UNL     1      -0.277   4.358  24.480  0.00  0.00    +0.033 C 
ATOM     11  C   UNL     1       0.134   2.245  24.836  0.00  0.00    +0.226 C 
ATOM     12  O   UNL     1       0.805   2.135  24.368  0.00  0.00    -0.275 OA
BRANCH   5   3
ATOM      3  C   UNL     1      -1.309   5.209  24.986  0.00  0.00    +0.317 C 
ATOM      4  O   UNL     1      -0.859   5.892  24.881  0.00  0.00    -0.250 OA
BRANCH   3   2
ATOM      1  C   UNL     1      -2.442   5.978  25.391  0.00  0.00    +0.256 C 
ATOM      2  O   UNL     1      -2.119   5.266  25.129  0.00  0.00    -0.444 OA
ENDBRANCH   3   2
ENDBRANCH   5   3
ENDBRANCH  13  11
ENDBRANCH  14  13
ENDBRANCH  15  14
BRANCH  24  25
ATOM     25  C   UNL     1      -2.872  -2.206  25.071  0.00  0.00    +0.100 C 
BRANCH  25  26
ATOM     26  C   UNL     1      -3.448  -2.532  24.579  0.00  0.00    -0.006 A 
ATOM     27  C   UNL     1      -3.492  -3.351  24.482  0.00  0.00    -0.003 A 
ATOM     28  C   UNL     1      -4.068  -3.677  23.990  0.00  0.00    -0.000 A 
ATOM     29  C   UNL     1      -4.600  -3.185  23.595  0.00  0.00    -0.000 A 
ATOM     30  C   UNL     1      -4.556  -2.367  23.691  0.00  0.00    -0.000 A 
ATOM     31  C   UNL     1      -3.980  -2.041  24.183  0.00  0.00    -0.003 A 
ENDBRANCH  25  26
ENDBRANCH  24  25
TORSDOF 7
ENDMDL
MODEL 10
REMARK VINA RESULT:      -5.8     15.953     17.639
REMARK  Name = 
REMARK  7 active torsions:
REMARK  status: ('A' for Active; 'I' for Inactive)
REMARK    1  A    between atoms: O_2  and  C_3
REMARK    2  A    between atoms: C_3  and  C_5
REMARK    3  A    between atoms: C_11  and  C_13
REMARK    4  A    between atoms: C_13  and  C_14
REMARK    5  A    between atoms: C_14  and  C_15
REMARK    6  A    between atoms: N_24  and  C_25
REMARK    7  A    between atoms: C_25  and  C_26
REMARK                            x       y       z     vdW  Elec       q    Type
REMARK                         _______ _______ _______ _____ _____    ______ ____
ROOT
ATOM     15  C   UNL     1      -7.941  -9.840  13.105  0.00  0.00    +0.080 C 
ATOM     16  C   UNL     1      -7.339  -9.940  13.661  0.00  0.00    +0.131 C 
ATOM     17  N   UNL     1      -6.523  -9.885  13.551  0.00  0.00    -0.203 NA
ATOM     18  C   UNL     1      -6.108  -9.717  12.859  0.00  0.00    +0.257 C 
ATOM     19  O   UNL     1      -5.285  -9.702  12.929  0.00  0.00    -0.272 OA
ATOM     20  C   UNL     1      -6.405  -9.562  12.105  0.00  0.00    +0.151 C 
ATOM     21  C   UNL     1      -7.192  -9.537  11.858  0.00  0.00    +0.083 C 
ATOM     22  C   UNL     1      -7.200  -9.359  11.052  0.00  0.00    +0.035 C 
ATOM     23  C   UNL     1      -6.418  -9.275  10.801  0.00  0.00    +0.074 C 
ATOM     24  N   UNL     1      -5.927  -9.400  11.452  0.00  0.00    -0.262 NA
ATOM     32  N   UNL     1      -7.875  -9.661  12.303  0.00  0.00    -0.271 NA
ATOM     33  C   UNL     1      -8.587  -9.596  11.890  0.00  0.00    +0.090 C 
ENDROOT
BRANCH  15  14
ATOM     14  C   UNL     1      -8.710  -9.931  13.389  0.00  0.00    +0.027 C 
BRANCH  14  13
ATOM     13  C   UNL     1      -8.864  -9.850  14.196  0.00  0.00    +0.087 C 
BRANCH  13  11
ATOM      5  C   UNL     1     -10.162  -9.546  16.855  0.00  0.00    +0.102 C 
ATOM      6  C   UNL     1      -9.419  -9.347  16.554  0.00  0.00    +0.033 C 
ATOM      7  C   UNL     1      -9.234  -9.515  15.769  0.00  0.00    +0.094 C 
ATOM      8  N   UNL     1      -9.791  -9.882  15.282  0.00  0.00    -0.280 N 
ATOM      9  C   UNL     1     -10.533 -10.081  15.583  0.00  0.00    +0.094 C 
ATOM     10  C   UNL     1     -10.718  -9.913  16.369  0.00  0.00    +0.033 C 
ATOM     11  C   UNL     1      -9.606 -10.050  14.497  0.00  0.00    +0.226 C 
ATOM     12  O   UNL     1     -10.162 -10.417  14.011  0.00  0.00    -0.275 OA
BRANCH   5   3
ATOM      3  C   UNL     1     -10.347  -9.378  17.642  0.00  0.00    +0.317 C 
ATOM      4  O   UNL     1     -10.627  -8.630  17.848  0.00  0.00    -0.250 OA
BRANCH   3   2
ATOM      1  C   UNL     1     -10.548  -9.834  18.981  0.00  0.00    +0.256 C 
ATOM      2  O   UNL     1     -10.253  -9.958  18.220  0.00  0.00    -0.444 OA
ENDBRANCH   3   2
ENDBRANCH   5   3
ENDBRANCH  13  11
ENDBRANCH  14  13
ENDBRANCH  15  14
BRANCH  24  25
ATOM     25  C   UNL     1      -5.102  -9.369  11.451  0.00  0.00    +0.100 C 
BRANCH  25  26
ATOM     26  C   UNL     1      -4.692  -9.346  10.735  0.00  0.00    -0.006 A 
ATOM     27  C   UNL     1      -4.536  -8.621  10.373  0.00  0.00    -0.003 A 
ATOM     28  C   UNL     1      -4.126  -8.597   9.657  0.00  0.00    -0.000 A 
ATOM     29  C   UNL     1      -3.872  -9.298   9.305  0.00  0.00    -0.000 A 
ATOM     30  C   UNL     1      -4.027 -10.023   9.667  0.00  0.00    -0.000 A 
ATOM     31  C   UNL     1      -4.437 -10.046  10.383  0.00  0.00    -0.003 A 
ENDBRANCH  25  26
ENDBRANCH  24  25
TORSDOF 7
ENDMDL
