MODEL 1
REMARK VINA RESULT:     -12.3      0.000      0.000
REMARK  Name = 
REMARK  6 active torsions:
REMARK  status: ('A' for Active; 'I' for Inactive)
REMARK    1  A    between atoms: C_2  and  C_4
REMARK    2  A    between atoms: C_4  and  C_5
REMARK    3  A    between atoms: C_10  and  C_11
REMARK    4  A    between atoms: C_11  and  C_12
REMARK    5  A    between atoms: C_12  and  N_13
REMARK    6  A    between atoms: C_25  and  C_27
REMARK                            x       y       z     vdW  Elec       q    Type
REMARK                         _______ _______ _______ _____ _____    ______ ____
ROOT
ATOM      5  C   UNL     1      -4.061   3.387  25.273  0.00  0.00    +0.015 C 
ATOM      6  C   UNL     1      -3.882   4.188  25.360  0.00  0.00    +0.022 C 
ATOM      7  C   UNL     1      -3.095   4.433  25.387  0.00  0.00    +0.093 C 
ATOM      8  N   UNL     1      -2.487   3.878  25.326  0.00  0.00    -0.280 N 
ATOM      9  C   UNL     1      -2.668   3.078  25.239  0.00  0.00    +0.093 C 
ATOM     10  C   UNL     1      -3.455   2.833  25.213  0.00  0.00    +0.022 C 
ATOM     25  C   UNL     1      -1.701   4.123  25.353  0.00  0.00    +0.225 C 
ATOM     26  O   UNL     1      -1.520   4.924  25.440  0.00  0.00    -0.275 OA
ENDROOT
BRANCH  25  27
ATOM     27  C   UNL     1      -1.093   3.568  25.292  0.00  0.00    +0.077 C 
ATOM     28  C   UNL     1      -0.763   3.396  24.556  0.00  0.00    +0.009 C 
ATOM     29  C   UNL     1      -0.156   2.842  24.496  0.00  0.00    +0.000 C 
ATOM     30  C   UNL     1       0.122   2.459  25.173  0.00  0.00    +0.000 C 
ATOM     31  C   UNL     1      -0.208   2.631  25.909  0.00  0.00    +0.000 C 
ATOM     32  C   UNL     1      -0.816   3.186  25.969  0.00  0.00    +0.009 C 
ENDBRANCH  25  27
BRANCH   5   4
ATOM      4  C   UNL     1      -4.850   3.142  25.246  0.00  0.00    +0.114 C 
BRANCH   4   2
ATOM      1  O   UNL     1      -5.786   4.181  25.541  0.00  0.00    -0.246 OA
ATOM      2  C   UNL     1      -5.404   3.481  25.755  0.00  0.00    +0.365 C 
ATOM      3  O   UNL     1      -5.577   3.121  26.476  0.00  0.00    -0.246 OA
ENDBRANCH   4   2
ENDBRANCH   5   4
BRANCH  10  11
ATOM     11  C   UNL     1      -3.634   2.033  25.125  0.00  0.00    +0.019 C 
BRANCH  11  12
ATOM     12  C   UNL     1      -3.327   1.608  24.487  0.00  0.00    +0.072 C 
BRANCH  12  13
ATOM     13  N   UNL     1      -3.395   0.786  24.469  0.00  0.00    -0.270 NA
ATOM     14  C   UNL     1      -2.971   0.323  25.005  0.00  0.00    +0.094 C 
ATOM     15  C   UNL     1      -3.039  -0.498  24.986  0.00  0.00    +0.109 C 
ATOM     16  N   UNL     1      -3.532  -0.858  24.431  0.00  0.00    -0.290 N 
ATOM     17  C   UNL     1      -3.957  -0.397  23.895  0.00  0.00    +0.109 C 
ATOM     18  C   UNL     1      -3.888   0.425  23.914  0.00  0.00    +0.094 C 
ATOM     19  C   UNL     1      -3.601  -1.680  24.411  0.00  0.00    +0.132 A 
ATOM     20  N   UNL     1      -3.176  -2.142  24.948  0.00  0.00    -0.229 NA
ATOM     21  C   UNL     1      -3.245  -2.964  24.928  0.00  0.00    +0.100 A 
ATOM     22  C   UNL     1      -3.738  -3.324  24.374  0.00  0.00    +0.021 A 
ATOM     23  C   UNL     1      -4.162  -2.862  23.838  0.00  0.00    +0.004 A 
ATOM     24  C   UNL     1      -4.094  -2.040  23.857  0.00  0.00    +0.034 A 
ENDBRANCH  12  13
ENDBRANCH  11  12
ENDBRANCH  10  11
TORSDOF 6
ENDMDL
MODEL 2
REMARK VINA RESULT:     -11.3      2.359      4.539
REMARK  Name = 
REMARK  6 active torsions:
REMARK  status: ('A' for Active; 'I' for Inactive)
REMARK    1  A    between atoms: C_2  and  C_4
REMARK    2  A    between atoms: C_4  and  C_5
REMARK    3  A    between atoms: C_10  and  C_11
REMARK    4  A    between atoms: C_11  and  C_12
REMARK    5  A    between atoms: C_12  and  N_13
REMARK    6  A    between atoms: C_25  and  C_27
REMARK                            x       y       z     vdW  Elec       q    Type
REMARK                         _______ _______ _______ _____ _____    ______ ____
ROOT
ATOM      5  C   UNL     1      -3.225   2.423  24.685  0.00  0.00    +0.015 C 
ATOM      6  C   UNL     1      -3.994   2.468  24.981  0.00  0.00    +0.022 C 
ATOM      7  C   UNL     1      -4.423   1.777  25.120  0.00  0.00    +0.093 C 
ATOM      8  N   UNL     1      -4.082   1.041  24.964  0.00  0.00    -0.280 N 
ATOM      9  C   UNL     1      -3.313   0.998  24.669  0.00  0.00    +0.093 C 
ATOM     10  C   UNL     1      -2.885   1.689  24.530  0.00  0.00    +0.022 C 
ATOM     25  C   UNL     1      -4.511   0.351  25.103  0.00  0.00    +0.225 C 
ATOM     26  O   UNL     1      -5.280   0.395  25.398  0.00  0.00    -0.275 OA
ENDROOT
BRANCH  25  27
ATOM     27  C   UNL     1      -4.171  -0.384  24.947  0.00  0.00    +0.077 C 
ATOM     28  C   UNL     1      -3.763  -0.785  25.542  0.00  0.00    +0.009 C 
ATOM     29  C   UNL     1      -3.424  -1.520  25.386  0.00  0.00    +0.000 C 
ATOM     30  C   UNL     1      -3.491  -1.855  24.634  0.00  0.00    +0.000 C 
ATOM     31  C   UNL     1      -3.899  -1.454  24.040  0.00  0.00    +0.000 C 
ATOM     32  C   UNL     1      -4.239  -0.718  24.196  0.00  0.00    +0.009 C 
ENDBRANCH  25  27
BRANCH   5   4
ATOM      4  C   UNL     1      -2.796   3.115  24.546  0.00  0.00    +0.114 C 
BRANCH   4   2
ATOM      1  O   UNL     1      -2.950   4.216  25.443  0.00  0.00    -0.246 OA
ATOM      2  C   UNL     1      -3.127   3.849  24.726  0.00  0.00    +0.365 C 
ATOM      3  O   UNL     1      -3.636   4.215  24.191  0.00  0.00    -0.246 OA
ENDBRANCH   4   2
ENDBRANCH   5   4
BRANCH  10  11
ATOM     11  C   UNL     1      -2.116   1.644  24.235  0.00  0.00    +0.019 C 
BRANCH  11  12
ATOM     12  C   UNL     1      -1.531   1.251  24.664  0.00  0.00    +0.072 C 
BRANCH  12  13
ATOM     13  N   UNL     1      -0.798   1.097  24.318  0.00  0.00    -0.270 NA
ATOM     14  C   UNL     1      -0.156   1.593  24.470  0.00  0.00    +0.094 C 
ATOM     15  C   UNL     1       0.576   1.439  24.123  0.00  0.00    +0.109 C 
ATOM     16  N   UNL     1       0.667   0.789  23.624  0.00  0.00    -0.290 N 
ATOM     17  C   UNL     1       0.026   0.292  23.471  0.00  0.00    +0.109 C 
ATOM     18  C   UNL     1      -0.707   0.447  23.818  0.00  0.00    +0.094 C 
ATOM     19  C   UNL     1       1.399   0.634  23.277  0.00  0.00    +0.132 A 
ATOM     20  N   UNL     1       2.041   1.131  23.430  0.00  0.00    -0.229 NA
ATOM     21  C   UNL     1       2.773   0.976  23.082  0.00  0.00    +0.100 A 
ATOM     22  C   UNL     1       2.864   0.326  22.584  0.00  0.00    +0.021 A 
ATOM     23  C   UNL     1       2.223  -0.170  22.431  0.00  0.00    +0.004 A 
ATOM     24  C   UNL     1       1.490  -0.016  22.778  0.00  0.00    +0.034 A 
ENDBRANCH  12  13
ENDBRANCH  11  12
ENDBRANCH  10  11
TORSDOF 6
ENDMDL
MODEL 3
REMARK VINA RESULT:     -11.2      1.168      3.011
REMARK  Name = 
REMARK  6 active torsions:
REMARK  status: ('A' for Active; 'I' for Inactive)
REMARK    1  A    between atoms: C_2  and  C_4
REMARK    2  A    between atoms: C_4  and  C_5
REMARK    3  A    between atoms: C_10  and  C_11
REMARK    4  A    between atoms: C_11  and  C_12
REMARK    5  A    between atoms: C_12  and  N_13
REMARK    6  A    between atoms: C_25  and  C_27
REMARK                            x       y       z     vdW  Elec       q    Type
REMARK                         _______ _______ _______ _____ _____    ______ ____
ROOT
ATOM      5  C   UNL     1      -0.858   2.506  25.063  0.00  0.00    +0.015 C 
ATOM      6  C   UNL     1      -0.650   3.282  25.248  0.00  0.00    +0.022 C 
ATOM      7  C   UNL     1      -1.238   3.849  25.366  0.00  0.00    +0.093 C 
ATOM      8  N   UNL     1      -2.034   3.640  25.298  0.00  0.00    -0.280 N 
ATOM      9  C   UNL     1      -2.240   2.863  25.112  0.00  0.00    +0.093 C 
ATOM     10  C   UNL     1      -1.653   2.296  24.995  0.00  0.00    +0.022 C 
ATOM     25  C   UNL     1      -2.621   4.206  25.415  0.00  0.00    +0.225 C 
ATOM     26  O   UNL     1      -2.414   4.983  25.601  0.00  0.00    -0.275 OA
ENDROOT
BRANCH  25  27
ATOM     27  C   UNL     1      -3.416   3.997  25.347  0.00  0.00    +0.077 C 
ATOM     28  C   UNL     1      -3.781   3.996  24.608  0.00  0.00    +0.009 C 
ATOM     29  C   UNL     1      -4.576   3.787  24.541  0.00  0.00    +0.000 C 
ATOM     30  C   UNL     1      -5.006   3.578  25.213  0.00  0.00    +0.000 C 
ATOM     31  C   UNL     1      -4.641   3.579  25.953  0.00  0.00    +0.000 C 
ATOM     32  C   UNL     1      -3.845   3.788  26.020  0.00  0.00    +0.009 C 
ENDBRANCH  25  27
BRANCH   5   4
ATOM      4  C   UNL     1      -0.270   1.938  24.945  0.00  0.00    +0.114 C 
BRANCH   4   2
ATOM      1  O   UNL     1       0.945   2.258  24.265  0.00  0.00    -0.246 OA
ATOM      2  C   UNL     1       0.525   2.158  24.968  0.00  0.00    +0.365 C 
ATOM      3  O   UNL     1       0.900   2.278  25.692  0.00  0.00    -0.246 OA
ENDBRANCH   4   2
ENDBRANCH   5   4
BRANCH  10  11
ATOM     11  C   UNL     1      -1.860   1.520  24.809  0.00  0.00    +0.019 C 
BRANCH  11  12
ATOM     12  C   UNL     1      -2.310   1.075  25.339  0.00  0.00    +0.072 C 
BRANCH  12  13
ATOM     13  N   UNL     1      -2.615   0.344  25.108  0.00  0.00    -0.270 NA
ATOM     14  C   UNL     1      -2.291  -0.353  25.408  0.00  0.00    +0.094 C 
ATOM     15  C   UNL     1      -2.596  -1.083  25.177  0.00  0.00    +0.109 C 
ATOM     16  N   UNL     1      -3.226  -1.118  24.646  0.00  0.00    -0.290 N 
ATOM     17  C   UNL     1      -3.551  -0.422  24.345  0.00  0.00    +0.109 C 
ATOM     18  C   UNL     1      -3.245   0.310  24.577  0.00  0.00    +0.094 C 
ATOM     19  C   UNL     1      -3.532  -1.848  24.414  0.00  0.00    +0.132 A 
ATOM     20  N   UNL     1      -3.206  -2.545  24.715  0.00  0.00    -0.229 NA
ATOM     21  C   UNL     1      -3.512  -3.275  24.483  0.00  0.00    +0.100 A 
ATOM     22  C   UNL     1      -4.141  -3.309  23.952  0.00  0.00    +0.021 A 
ATOM     23  C   UNL     1      -4.467  -2.613  23.652  0.00  0.00    +0.004 A 
ATOM     24  C   UNL     1      -4.161  -1.882  23.883  0.00  0.00    +0.034 A 
ENDBRANCH  12  13
ENDBRANCH  11  12
ENDBRANCH  10  11
TORSDOF 6
ENDMDL
MODEL 4
REMARK VINA RESULT:     -10.8      0.841      3.059
REMARK  Name = 
REMARK  6 active torsions:
REMARK  status: ('A' for Active; 'I' for Inactive)
REMARK    1  A    between atoms: C_2  and  C_4
REMARK    2  A    between atoms: C_4  and  C_5
REMARK    3  A    between atoms: C_10  and  C_11
REMARK    4  A    between atoms: C_11  and  C_12
REMARK    5  A    between atoms: C_12  and  N_13
REMARK    6  A    between atoms: C_25  and  C_27
REMARK                            x       y       z     vdW  Elec       q    Type
REMARK                         _______ _______ _______ _____ _____    ______ ____
ROOT
ATOM      5  C   UNL     1      -2.247   3.364  24.999  0.00  0.00    +0.015 C 
ATOM      6  C   UNL     1      -2.542   4.130  25.084  0.00  0.00    +0.022 C 
ATOM      7  C   UNL     1      -3.348   4.249  25.211  0.00  0.00    +0.093 C 
ATOM      8  N   UNL     1      -3.860   3.602  25.252  0.00  0.00    -0.280 N 
ATOM      9  C   UNL     1      -3.564   2.837  25.166  0.00  0.00    +0.093 C 
ATOM     10  C   UNL     1      -2.758   2.718  25.039  0.00  0.00    +0.022 C 
ATOM     25  C   UNL     1      -4.666   3.721  25.379  0.00  0.00    +0.225 C 
ATOM     26  O   UNL     1      -4.961   4.488  25.465  0.00  0.00    -0.275 OA
ENDROOT
BRANCH  25  27
ATOM     27  C   UNL     1      -5.177   3.076  25.420  0.00  0.00    +0.077 C 
ATOM     28  C   UNL     1      -5.306   2.696  26.141  0.00  0.00    +0.009 C 
ATOM     29  C   UNL     1      -5.818   2.051  26.181  0.00  0.00    +0.000 C 
ATOM     30  C   UNL     1      -6.200   1.784  25.500  0.00  0.00    +0.000 C 
ATOM     31  C   UNL     1      -6.071   2.163  24.779  0.00  0.00    +0.000 C 
ATOM     32  C   UNL     1      -5.559   2.810  24.739  0.00  0.00    +0.009 C 
ENDBRANCH  25  27
BRANCH   5   4
ATOM      4  C   UNL     1      -1.440   3.245  24.872  0.00  0.00    +0.114 C 
BRANCH   4   2
ATOM      1  O   UNL     1      -0.550   3.740  25.875  0.00  0.00    -0.246 OA
ATOM      2  C   UNL     1      -0.895   3.809  25.128  0.00  0.00    +0.365 C 
ATOM      3  O   UNL     1      -0.694   4.441  24.639  0.00  0.00    -0.246 OA
ENDBRANCH   4   2
ENDBRANCH   5   4
BRANCH  10  11
ATOM     11  C   UNL     1      -2.463   1.953  24.954  0.00  0.00    +0.019 C 
BRANCH  11  12
ATOM     12  C   UNL     1      -2.611   1.529  24.261  0.00  0.00    +0.072 C 
BRANCH  12  13
ATOM     13  N   UNL     1      -2.798   0.726  24.301  0.00  0.00    -0.270 NA
ATOM     14  C   UNL     1      -2.426   0.243  24.858  0.00  0.00    +0.094 C 
ATOM     15  C   UNL     1      -2.613  -0.559  24.898  0.00  0.00    +0.109 C 
ATOM     16  N   UNL     1      -3.171  -0.879  24.381  0.00  0.00    -0.290 N 
ATOM     17  C   UNL     1      -3.543  -0.397  23.825  0.00  0.00    +0.109 C 
ATOM     18  C   UNL     1      -3.356   0.406  23.785  0.00  0.00    +0.094 C 
ATOM     19  C   UNL     1      -3.358  -1.682  24.421  0.00  0.00    +0.132 A 
ATOM     20  N   UNL     1      -2.986  -2.165  24.978  0.00  0.00    -0.229 NA
ATOM     21  C   UNL     1      -3.174  -2.967  25.017  0.00  0.00    +0.100 A 
ATOM     22  C   UNL     1      -3.731  -3.286  24.502  0.00  0.00    +0.021 A 
ATOM     23  C   UNL     1      -4.103  -2.804  23.945  0.00  0.00    +0.004 A 
ATOM     24  C   UNL     1      -3.916  -2.001  23.905  0.00  0.00    +0.034 A 
ENDBRANCH  12  13
ENDBRANCH  11  12
ENDBRANCH  10  11
TORSDOF 6
ENDMDL
MODEL 5
REMARK VINA RESULT:     -10.8      2.762      4.720
REMARK  Name = 
REMARK  6 active torsions:
REMARK  status: ('A' for Active; 'I' for Inactive)
REMARK    1  A    between atoms: C_2  and  C_4
REMARK    2  A    between atoms: C_4  and  C_5
REMARK    3  A    between atoms: C_10  and  C_11
REMARK    4  A    between atoms: C_11  and  C_12
REMARK    5  A    between atoms: C_12  and  N_13
REMARK    6  A    between atoms: C_25  and  C_27
REMARK                            x       y       z     vdW  Elec       q    Type
REMARK                         _______ _______ _______ _____ _____    ______ ____
ROOT
ATOM      5  C   UNL     1      -3.455  -0.696  24.671  0.00  0.00    +0.015 C 
ATOM      6  C   UNL     1      -4.230  -0.639  24.949  0.00  0.00    +0.022 C 
ATOM      7  C   UNL     1      -4.585   0.101  25.032  0.00  0.00    +0.093 C 
ATOM      8  N   UNL     1      -4.165   0.785  24.837  0.00  0.00    -0.280 N 
ATOM      9  C   UNL     1      -3.390   0.727  24.560  0.00  0.00    +0.093 C 
ATOM     10  C   UNL     1      -3.035  -0.013  24.477  0.00  0.00    +0.022 C 
ATOM     25  C   UNL     1      -4.519   1.524  24.920  0.00  0.00    +0.225 C 
ATOM     26  O   UNL     1      -5.295   1.581  25.197  0.00  0.00    -0.275 OA
ENDROOT
BRANCH  25  27
ATOM     27  C   UNL     1      -4.100   2.207  24.726  0.00  0.00    +0.077 C 
ATOM     28  C   UNL     1      -4.080   2.472  23.945  0.00  0.00    +0.009 C 
ATOM     29  C   UNL     1      -3.661   3.154  23.751  0.00  0.00    +0.000 C 
ATOM     30  C   UNL     1      -3.261   3.574  24.339  0.00  0.00    +0.000 C 
ATOM     31  C   UNL     1      -3.281   3.309  25.120  0.00  0.00    +0.000 C 
ATOM     32  C   UNL     1      -3.701   2.626  25.314  0.00  0.00    +0.009 C 
ENDBRANCH  25  27
BRANCH   5   4
ATOM      4  C   UNL     1      -3.100  -1.437  24.588  0.00  0.00    +0.114 C 
BRANCH   4   2
ATOM      1  O   UNL     1      -3.579  -2.520  25.387  0.00  0.00    -0.246 OA
ATOM      2  C   UNL     1      -3.553  -2.122  24.665  0.00  0.00    +0.365 C 
ATOM      3  O   UNL     1      -3.980  -2.409  24.021  0.00  0.00    -0.246 OA
ENDBRANCH   4   2
ENDBRANCH   5   4
BRANCH  10  11
ATOM     11  C   UNL     1      -2.261  -0.070  24.200  0.00  0.00    +0.019 C 
BRANCH  11  12
ATOM     12  C   UNL     1      -1.643   0.274  24.627  0.00  0.00    +0.072 C 
BRANCH  12  13
ATOM     13  N   UNL     1      -0.890   0.325  24.293  0.00  0.00    -0.270 NA
ATOM     14  C   UNL     1      -0.416   0.984  24.441  0.00  0.00    +0.094 C 
ATOM     15  C   UNL     1       0.336   1.035  24.108  0.00  0.00    +0.109 C 
ATOM     16  N   UNL     1       0.615   0.426  23.626  0.00  0.00    -0.290 N 
ATOM     17  C   UNL     1       0.142  -0.233  23.477  0.00  0.00    +0.109 C 
ATOM     18  C   UNL     1      -0.611  -0.283  23.811  0.00  0.00    +0.094 C 
ATOM     19  C   UNL     1       1.368   0.476  23.292  0.00  0.00    +0.132 A 
ATOM     20  N   UNL     1       1.842   1.136  23.440  0.00  0.00    -0.229 NA
ATOM     21  C   UNL     1       2.594   1.186  23.106  0.00  0.00    +0.100 A 
ATOM     22  C   UNL     1       2.873   0.578  22.625  0.00  0.00    +0.021 A 
ATOM     23  C   UNL     1       2.400  -0.081  22.476  0.00  0.00    +0.004 A 
ATOM     24  C   UNL     1       1.647  -0.132  22.810  0.00  0.00    +0.034 A 
ENDBRANCH  12  13
ENDBRANCH  11  12
ENDBRANCH  10  11
TORSDOF 6
ENDMDL
MODEL 6
REMARK VINA RESULT:     -10.2      2.525      4.890
REMARK  Name = 
REMARK  6 active torsions:
REMARK  status: ('A' for Active; 'I' for Inactive)
REMARK    1  A    between atoms: C_2  and  C_4
REMARK    2  A    between atoms: C_4  and  C_5
REMARK    3  A    between atoms: C_10  and  C_11
REMARK    4  A    between atoms: C_11  and  C_12
REMARK    5  A    between atoms: C_12  and  N_13
REMARK    6  A    between atoms: C_25  and  C_27
REMARK                            x       y       z     vdW  Elec       q    Type
REMARK                         _______ _______ _______ _____ _____    ______ ____
ROOT
ATOM      5  C   UNL     1      -2.823  -1.719  24.579  0.00  0.00    +0.015 C 
ATOM      6  C   UNL     1      -2.163  -2.197  24.451  0.00  0.00    +0.022 C 
ATOM      7  C   UNL     1      -1.409  -1.863  24.442  0.00  0.00    +0.093 C 
ATOM      8  N   UNL     1      -1.315  -1.052  24.560  0.00  0.00    -0.280 N 
ATOM      9  C   UNL     1      -1.976  -0.575  24.688  0.00  0.00    +0.093 C 
ATOM     10  C   UNL     1      -2.730  -0.909  24.698  0.00  0.00    +0.022 C 
ATOM     25  C   UNL     1      -0.561  -0.718  24.551  0.00  0.00    +0.225 C 
ATOM     26  O   UNL     1       0.100  -1.196  24.423  0.00  0.00    -0.275 OA
ENDROOT
BRANCH  25  27
ATOM     27  C   UNL     1      -0.467   0.093  24.669  0.00  0.00    +0.077 C 
ATOM     28  C   UNL     1      -0.522   0.408  25.430  0.00  0.00    +0.009 C 
ATOM     29  C   UNL     1      -0.428   1.219  25.547  0.00  0.00    +0.000 C 
ATOM     30  C   UNL     1      -0.278   1.715  24.905  0.00  0.00    +0.000 C 
ATOM     31  C   UNL     1      -0.222   1.399  24.145  0.00  0.00    +0.000 C 
ATOM     32  C   UNL     1      -0.317   0.588  24.027  0.00  0.00    +0.009 C 
ENDBRANCH  25  27
BRANCH   5   4
ATOM      4  C   UNL     1      -3.579  -2.053  24.589  0.00  0.00    +0.114 C 
BRANCH   4   2
ATOM      1  O   UNL     1      -3.827  -3.268  23.879  0.00  0.00    -0.246 OA
ATOM      2  C   UNL     1      -3.666  -2.874  24.585  0.00  0.00    +0.365 C 
ATOM      3  O   UNL     1      -3.593  -3.300  25.287  0.00  0.00    -0.246 OA
ENDBRANCH   4   2
ENDBRANCH   5   4
BRANCH  10  11
ATOM     11  C   UNL     1      -3.390  -0.432  24.826  0.00  0.00    +0.019 C 
BRANCH  11  12
ATOM     12  C   UNL     1      -3.628   0.108  24.248  0.00  0.00    +0.072 C 
BRANCH  12  13
ATOM     13  N   UNL     1      -3.983   0.819  24.469  0.00  0.00    -0.270 NA
ATOM     14  C   UNL     1      -4.615   0.818  25.000  0.00  0.00    +0.094 C 
ATOM     15  C   UNL     1      -4.969   1.529  25.221  0.00  0.00    +0.109 C 
ATOM     16  N   UNL     1      -4.693   2.241  24.910  0.00  0.00    -0.290 N 
ATOM     17  C   UNL     1      -4.062   2.244  24.379  0.00  0.00    +0.109 C 
ATOM     18  C   UNL     1      -3.707   1.532  24.158  0.00  0.00    +0.094 C 
ATOM     19  C   UNL     1      -5.048   2.953  25.131  0.00  0.00    +0.132 A 
ATOM     20  N   UNL     1      -5.680   2.951  25.663  0.00  0.00    -0.229 NA
ATOM     21  C   UNL     1      -6.034   3.663  25.883  0.00  0.00    +0.100 A 
ATOM     22  C   UNL     1      -5.758   4.375  25.573  0.00  0.00    +0.021 A 
ATOM     23  C   UNL     1      -5.127   4.377  25.041  0.00  0.00    +0.004 A 
ATOM     24  C   UNL     1      -4.772   3.665  24.821  0.00  0.00    +0.034 A 
ENDBRANCH  12  13
ENDBRANCH  11  12
ENDBRANCH  10  11
TORSDOF 6
ENDMDL
MODEL 7
REMARK VINA RESULT:      -9.9      2.437      5.411
REMARK  Name = 
REMARK  6 active torsions:
REMARK  status: ('A' for Active; 'I' for Inactive)
REMARK    1  A    between atoms: C_2  and  C_4
REMARK    2  A    between atoms: C_4  and  C_5
REMARK    3  A    between atoms: C_10  and  C_11
REMARK    4  A    between atoms: C_11  and  C_12
REMARK    5  A    between atoms: C_12  and  N_13
REMARK    6  A    between atoms: C_25  and  C_27
REMARK                            x       y       z     vdW  Elec       q    Type
REMARK                         _______ _______ _______ _____ _____    ______ ____
ROOT
ATOM      5  C   UNL     1      -0.573   0.387  24.280  0.00  0.00    +0.015 C 
ATOM      6  C   UNL     1      -0.069  -0.247  24.121  0.00  0.00    +0.022 C 
ATOM      7  C   UNL     1      -0.348  -1.021  24.183  0.00  0.00    +0.093 C 
ATOM      8  N   UNL     1      -1.130  -1.161  24.405  0.00  0.00    -0.280 N 
ATOM      9  C   UNL     1      -1.633  -0.527  24.564  0.00  0.00    +0.093 C 
ATOM     10  C   UNL     1      -1.355   0.247  24.502  0.00  0.00    +0.022 C 
ATOM     25  C   UNL     1      -1.409  -1.934  24.467  0.00  0.00    +0.225 C 
ATOM     26  O   UNL     1      -0.905  -2.569  24.308  0.00  0.00    -0.275 OA
ENDROOT
BRANCH  25  27
ATOM     27  C   UNL     1      -2.191  -2.075  24.689  0.00  0.00    +0.077 C 
ATOM     28  C   UNL     1      -2.403  -2.059  25.486  0.00  0.00    +0.009 C 
ATOM     29  C   UNL     1      -3.185  -2.200  25.707  0.00  0.00    +0.000 C 
ATOM     30  C   UNL     1      -3.755  -2.356  25.132  0.00  0.00    +0.000 C 
ATOM     31  C   UNL     1      -3.543  -2.372  24.335  0.00  0.00    +0.000 C 
ATOM     32  C   UNL     1      -2.760  -2.231  24.113  0.00  0.00    +0.009 C 
ENDBRANCH  25  27
BRANCH   5   4
ATOM      4  C   UNL     1      -0.294   1.162  24.218  0.00  0.00    +0.114 C 
BRANCH   4   2
ATOM      1  O   UNL     1       0.933   1.153  23.485  0.00  0.00    -0.246 OA
ATOM      2  C   UNL     1       0.518   1.306  24.182  0.00  0.00    +0.365 C 
ATOM      3  O   UNL     1       0.914   1.602  24.841  0.00  0.00    -0.246 OA
ENDBRANCH   4   2
ENDBRANCH   5   4
BRANCH  10  11
ATOM     11  C   UNL     1      -1.858   0.880  24.661  0.00  0.00    +0.019 C 
BRANCH  11  12
ATOM     12  C   UNL     1      -2.520   1.011  24.186  0.00  0.00    +0.072 C 
BRANCH  12  13
ATOM     13  N   UNL     1      -3.114   1.525  24.439  0.00  0.00    -0.270 NA
ATOM     14  C   UNL     1      -3.002   2.341  24.394  0.00  0.00    +0.094 C 
ATOM     15  C   UNL     1      -3.595   2.854  24.647  0.00  0.00    +0.109 C 
ATOM     16  N   UNL     1      -4.303   2.552  24.946  0.00  0.00    -0.290 N 
ATOM     17  C   UNL     1      -4.416   1.736  24.991  0.00  0.00    +0.109 C 
ATOM     18  C   UNL     1      -3.821   1.222  24.738  0.00  0.00    +0.094 C 
ATOM     19  C   UNL     1      -4.897   3.064  25.199  0.00  0.00    +0.132 A 
ATOM     20  N   UNL     1      -4.784   3.881  25.154  0.00  0.00    -0.229 NA
ATOM     21  C   UNL     1      -5.378   4.394  25.407  0.00  0.00    +0.100 A 
ATOM     22  C   UNL     1      -6.084   4.091  25.705  0.00  0.00    +0.021 A 
ATOM     23  C   UNL     1      -6.198   3.276  25.751  0.00  0.00    +0.004 A 
ATOM     24  C   UNL     1      -5.603   2.762  25.497  0.00  0.00    +0.034 A 
ENDBRANCH  12  13
ENDBRANCH  11  12
ENDBRANCH  10  11
TORSDOF 6
ENDMDL
