MODEL 1
REMARK VINA RESULT:      -7.9      0.000      0.000
REMARK  Name = 
REMARK  8 active torsions:
REMARK  status: ('A' for Active; 'I' for Inactive)
REMARK    1  A    between atoms: O_2  and  C_3
REMARK    2  A    between atoms: C_3  and  C_4
REMARK    3  A    between atoms: C_11  and  C_12
REMARK    4  A    between atoms: N_14  and  C_15
REMARK    5  A    between atoms: C_22  and  C_24
REMARK    6  A    between atoms: C_24  and  S_25
REMARK    7  A    between atoms: S_25  and  C_26
REMARK    8  A    between atoms: C_26  and  C_27
REMARK                            x       y       z     vdW  Elec       q    Type
REMARK                         _______ _______ _______ _____ _____    ______ ____
ROOT
ATOM      4  C   UNL     1      -5.096   2.724  25.335  0.00  0.00    +0.256 C 
ATOM      5  O   UNL     1      -5.895   2.688  25.538  0.00  0.00    -0.272 OA
ATOM      6  N   UNL     1      -4.702   2.042  25.087  0.00  0.00    -0.268 N 
ATOM      7  C   UNL     1      -5.107   1.325  25.042  0.00  0.00    +0.115 C 
ATOM      8  C   UNL     1      -4.713   0.644  24.794  0.00  0.00    +0.115 C 
ATOM      9  N   UNL     1      -3.915   0.680  24.591  0.00  0.00    -0.275 N 
ATOM     10  C   UNL     1      -3.510   1.398  24.636  0.00  0.00    +0.123 C 
ATOM     11  C   UNL     1      -3.904   2.078  24.884  0.00  0.00    +0.174 C 
ATOM     22  C   UNL     1      -3.521  -0.001  24.343  0.00  0.00    +0.237 C 
ATOM     23  O   UNL     1      -2.722   0.035  24.140  0.00  0.00    -0.274 OA
ENDROOT
BRANCH  11  12
ATOM     12  C   UNL     1      -3.498   2.796  24.930  0.00  0.00    +0.262 C 
ATOM     13  O   UNL     1      -3.913   3.508  24.883  0.00  0.00    -0.271 OA
ATOM     14  N   UNL     1      -2.679   2.801  25.022  0.00  0.00    -0.196 NA
BRANCH  14  15
ATOM     15  C   UNL     1      -2.273   3.519  25.067  0.00  0.00    +0.173 C 
ATOM     16  C   UNL     1      -2.384   4.092  24.485  0.00  0.00    +0.033 C 
ATOM     17  C   UNL     1      -1.979   4.809  24.530  0.00  0.00    +0.026 C 
ATOM     18  C   UNL     1      -1.463   4.953  25.158  0.00  0.00    +0.115 C 
ATOM     19  N   UNL     1      -1.352   4.379  25.740  0.00  0.00    -0.204 NA
ATOM     20  C   UNL     1      -1.758   3.661  25.695  0.00  0.00    +0.261 C 
ATOM     21  O   UNL     1      -1.647   3.088  26.277  0.00  0.00    -0.271 OA
ENDBRANCH  14  15
ENDBRANCH  11  12
BRANCH   4   3
ATOM      3  C   UNL     1      -4.691   3.441  25.381  0.00  0.00    +0.227 C 
BRANCH   3   2
ATOM      1  C   UNL     1      -5.558   4.567  25.533  0.00  0.00    +0.175 C 
ATOM      2  O   UNL     1      -4.990   4.055  25.843  0.00  0.00    -0.342 OA
ENDBRANCH   3   2
ENDBRANCH   4   3
BRANCH  22  24
ATOM     24  C   UNL     1      -3.926  -0.718  24.298  0.00  0.00    +0.143 C 
BRANCH  24  25
ATOM     25  S   UNL     1      -3.507  -1.428  24.283  0.00  0.00    -0.119 S 
BRANCH  25  26
ATOM     26  C   UNL     1      -3.913  -2.147  24.253  0.00  0.00    +0.172 C 
BRANCH  26  27
ATOM     27  C   UNL     1      -3.531  -2.845  24.470  0.00  0.00    +0.376 C 
ATOM     28  O   UNL     1      -3.163  -3.309  23.896  0.00  0.00    -0.245 OA
ATOM     29  O   UNL     1      -3.518  -3.079  25.261  0.00  0.00    -0.245 OA
ENDBRANCH  26  27
ENDBRANCH  25  26
ENDBRANCH  24  25
ENDBRANCH  22  24
TORSDOF 8
ENDMDL
MODEL 2
REMARK VINA RESULT:      -7.6      3.112      4.166
REMARK  Name = 
REMARK  8 active torsions:
REMARK  status: ('A' for Active; 'I' for Inactive)
REMARK    1  A    between atoms: O_2  and  C_3
REMARK    2  A    between atoms: C_3  and  C_4
REMARK    3  A    between atoms: C_11  and  C_12
REMARK    4  A    between atoms: N_14  and  C_15
REMARK    5  A    between atoms: C_22  and  C_24
REMARK    6  A    between atoms: C_24  and  S_25
REMARK    7  A    between atoms: S_25  and  C_26
REMARK    8  A    between atoms: C_26  and  C_27
REMARK                            x       y       z     vdW  Elec       q    Type
REMARK                         _______ _______ _______ _____ _____    ______ ____
ROOT
ATOM      4  C   UNL     1      -2.791  -0.243  24.749  0.00  0.00    +0.256 C 
ATOM      5  O   UNL     1      -2.970  -1.047  24.796  0.00  0.00    -0.272 OA
ATOM      6  N   UNL     1      -2.045   0.000  24.494  0.00  0.00    -0.268 N 
ATOM      7  C   UNL     1      -1.478  -0.561  24.286  0.00  0.00    +0.115 C 
ATOM      8  C   UNL     1      -0.731  -0.318  24.031  0.00  0.00    +0.115 C 
ATOM      9  N   UNL     1      -0.553   0.486  23.984  0.00  0.00    -0.275 N 
ATOM     10  C   UNL     1      -1.121   1.047  24.193  0.00  0.00    +0.123 C 
ATOM     11  C   UNL     1      -1.867   0.804  24.448  0.00  0.00    +0.174 C 
ATOM     22  C   UNL     1       0.193   0.729  23.729  0.00  0.00    +0.237 C 
ATOM     23  O   UNL     1       0.371   1.533  23.683  0.00  0.00    -0.274 OA
ENDROOT
BRANCH  11  12
ATOM     12  C   UNL     1      -2.435   1.365  24.656  0.00  0.00    +0.262 C 
ATOM     13  O   UNL     1      -2.992   1.192  25.240  0.00  0.00    -0.271 OA
ATOM     14  N   UNL     1      -2.445   2.100  24.281  0.00  0.00    -0.196 NA
BRANCH  14  15
ATOM     15  C   UNL     1      -3.013   2.662  24.490  0.00  0.00    +0.173 C 
ATOM     16  C   UNL     1      -3.076   2.913  25.273  0.00  0.00    +0.033 C 
ATOM     17  C   UNL     1      -3.643   3.474  25.481  0.00  0.00    +0.026 C 
ATOM     18  C   UNL     1      -4.148   3.784  24.907  0.00  0.00    +0.115 C 
ATOM     19  N   UNL     1      -4.085   3.533  24.123  0.00  0.00    -0.204 NA
ATOM     20  C   UNL     1      -3.517   2.971  23.915  0.00  0.00    +0.261 C 
ATOM     21  O   UNL     1      -3.453   2.720  23.133  0.00  0.00    -0.271 OA
ENDBRANCH  14  15
ENDBRANCH  11  12
BRANCH   4   3
ATOM      3  C   UNL     1      -3.358   0.319  24.958  0.00  0.00    +0.227 C 
BRANCH   3   2
ATOM      1  C   UNL     1      -4.726  -0.098  24.952  0.00  0.00    +0.175 C 
ATOM      2  O   UNL     1      -4.037   0.087  25.367  0.00  0.00    -0.342 OA
ENDBRANCH   3   2
ENDBRANCH   4   3
BRANCH  22  24
ATOM     24  C   UNL     1       0.760   0.168  23.521  0.00  0.00    +0.143 C 
BRANCH  24  25
ATOM     25  S   UNL     1       1.447   0.402  23.127  0.00  0.00    -0.119 S 
BRANCH  25  26
ATOM     26  C   UNL     1       1.978  -0.166  22.850  0.00  0.00    +0.172 C 
BRANCH  26  27
ATOM     27  C   UNL     1       2.628   0.064  22.398  0.00  0.00    +0.376 C 
ATOM     28  O   UNL     1       2.586   0.040  21.574  0.00  0.00    -0.245 OA
ATOM     29  O   UNL     1       3.320   0.318  22.769  0.00  0.00    -0.245 OA
ENDBRANCH  26  27
ENDBRANCH  25  26
ENDBRANCH  24  25
ENDBRANCH  22  24
TORSDOF 8
ENDMDL
MODEL 3
REMARK VINA RESULT:      -7.5      2.787      4.107
REMARK  Name = 
REMARK  8 active torsions:
REMARK  status: ('A' for Active; 'I' for Inactive)
REMARK    1  A    between atoms: O_2  and  C_3
REMARK    2  A    between atoms: C_3  and  C_4
REMARK    3  A    between atoms: C_11  and  C_12
REMARK    4  A    between atoms: N_14  and  C_15
REMARK    5  A    between atoms: C_22  and  C_24
REMARK    6  A    between atoms: C_24  and  S_25
REMARK    7  A    between atoms: S_25  and  C_26
REMARK    8  A    between atoms: C_26  and  C_27
REMARK                            x       y       z     vdW  Elec       q    Type
REMARK                         _______ _______ _______ _____ _____    ______ ____
ROOT
ATOM      4  C   UNL     1      -1.553   3.256  25.393  0.00  0.00    +0.256 C 
ATOM      5  O   UNL     1      -1.050   3.811  25.739  0.00  0.00    -0.272 OA
ATOM      6  N   UNL     1      -1.238   2.613  24.982  0.00  0.00    -0.268 N 
ATOM      7  C   UNL     1      -0.420   2.526  24.918  0.00  0.00    +0.115 C 
ATOM      8  C   UNL     1      -0.106   1.882  24.507  0.00  0.00    +0.115 C 
ATOM      9  N   UNL     1      -0.608   1.328  24.161  0.00  0.00    -0.275 N 
ATOM     10  C   UNL     1      -1.427   1.416  24.226  0.00  0.00    +0.123 C 
ATOM     11  C   UNL     1      -1.741   2.059  24.637  0.00  0.00    +0.174 C 
ATOM     22  C   UNL     1      -0.294   0.686  23.751  0.00  0.00    +0.237 C 
ATOM     23  O   UNL     1      -0.797   0.131  23.405  0.00  0.00    -0.274 OA
ENDROOT
BRANCH  11  12
ATOM     12  C   UNL     1      -2.559   2.147  24.701  0.00  0.00    +0.262 C 
ATOM     13  O   UNL     1      -2.883   2.888  24.862  0.00  0.00    -0.271 OA
ATOM     14  N   UNL     1      -3.052   1.493  24.604  0.00  0.00    -0.196 NA
BRANCH  14  15
ATOM     15  C   UNL     1      -3.871   1.581  24.669  0.00  0.00    +0.173 C 
ATOM     16  C   UNL     1      -4.255   2.184  24.257  0.00  0.00    +0.033 C 
ATOM     17  C   UNL     1      -5.072   2.271  24.321  0.00  0.00    +0.026 C 
ATOM     18  C   UNL     1      -5.506   1.756  24.798  0.00  0.00    +0.115 C 
ATOM     19  N   UNL     1      -5.122   1.153  25.210  0.00  0.00    -0.204 NA
ATOM     20  C   UNL     1      -4.304   1.065  25.145  0.00  0.00    +0.261 C 
ATOM     21  O   UNL     1      -3.920   0.463  25.556  0.00  0.00    -0.271 OA
ENDBRANCH  14  15
ENDBRANCH  11  12
BRANCH   4   3
ATOM      3  C   UNL     1      -2.371   3.344  25.457  0.00  0.00    +0.227 C 
BRANCH   3   2
ATOM      1  C   UNL     1      -2.928   4.207  26.451  0.00  0.00    +0.175 C 
ATOM      2  O   UNL     1      -2.691   4.074  25.672  0.00  0.00    -0.342 OA
ENDBRANCH   3   2
ENDBRANCH   4   3
BRANCH  22  24
ATOM     24  C   UNL     1       0.523   0.598  23.687  0.00  0.00    +0.143 C 
BRANCH  24  25
ATOM     25  S   UNL     1       0.845   0.183  23.049  0.00  0.00    -0.119 S 
BRANCH  25  26
ATOM     26  C   UNL     1       1.635  -0.056  23.069  0.00  0.00    +0.172 C 
BRANCH  26  27
ATOM     27  C   UNL     1       2.094  -0.018  22.384  0.00  0.00    +0.376 C 
ATOM     28  O   UNL     1       2.852   0.305  22.415  0.00  0.00    -0.245 OA
ATOM     29  O   UNL     1       1.794  -0.302  21.670  0.00  0.00    -0.245 OA
ENDBRANCH  26  27
ENDBRANCH  25  26
ENDBRANCH  24  25
ENDBRANCH  22  24
TORSDOF 8
ENDMDL
MODEL 4
REMARK VINA RESULT:      -7.3      3.447      5.041
REMARK  Name = 
REMARK  8 active torsions:
REMARK  status: ('A' for Active; 'I' for Inactive)
REMARK    1  A    between atoms: O_2  and  C_3
REMARK    2  A    between atoms: C_3  and  C_4
REMARK    3  A    between atoms: C_11  and  C_12
REMARK    4  A    between atoms: N_14  and  C_15
REMARK    5  A    between atoms: C_22  and  C_24
REMARK    6  A    between atoms: C_24  and  S_25
REMARK    7  A    between atoms: S_25  and  C_26
REMARK    8  A    between atoms: C_26  and  C_27
REMARK                            x       y       z     vdW  Elec       q    Type
REMARK                         _______ _______ _______ _____ _____    ______ ____
ROOT
ATOM      4  C   UNL     1      -1.874   2.136  24.582  0.00  0.00    +0.256 C 
ATOM      5  O   UNL     1      -1.806   2.941  24.753  0.00  0.00    -0.272 OA
ATOM      6  N   UNL     1      -1.218   1.715  24.312  0.00  0.00    -0.268 N 
ATOM      7  C   UNL     1      -0.494   2.098  24.213  0.00  0.00    +0.115 C 
ATOM      8  C   UNL     1       0.162   1.676  23.942  0.00  0.00    +0.115 C 
ATOM      9  N   UNL     1       0.094   0.873  23.772  0.00  0.00    -0.275 N 
ATOM     10  C   UNL     1      -0.631   0.490  23.871  0.00  0.00    +0.123 C 
ATOM     11  C   UNL     1      -1.286   0.911  24.141  0.00  0.00    +0.174 C 
ATOM     22  C   UNL     1       0.749   0.451  23.502  0.00  0.00    +0.237 C 
ATOM     23  O   UNL     1       0.681  -0.353  23.331  0.00  0.00    -0.274 OA
ENDROOT
BRANCH  11  12
ATOM     12  C   UNL     1      -2.010   0.528  24.241  0.00  0.00    +0.262 C 
ATOM     13  O   UNL     1      -2.715   0.932  24.094  0.00  0.00    -0.271 OA
ATOM     14  N   UNL     1      -2.029  -0.259  24.487  0.00  0.00    -0.196 NA
BRANCH  14  15
ATOM     15  C   UNL     1      -2.754  -0.643  24.586  0.00  0.00    +0.173 C 
ATOM     16  C   UNL     1      -3.301  -0.658  23.968  0.00  0.00    +0.033 C 
ATOM     17  C   UNL     1      -4.024  -1.041  24.068  0.00  0.00    +0.026 C 
ATOM     18  C   UNL     1      -4.201  -1.409  24.785  0.00  0.00    +0.115 C 
ATOM     19  N   UNL     1      -3.655  -1.394  25.402  0.00  0.00    -0.204 NA
ATOM     20  C   UNL     1      -2.930  -1.010  25.303  0.00  0.00    +0.261 C 
ATOM     21  O   UNL     1      -2.384  -0.995  25.920  0.00  0.00    -0.271 OA
ENDBRANCH  14  15
ENDBRANCH  11  12
BRANCH   4   3
ATOM      3  C   UNL     1      -2.598   1.753  24.682  0.00  0.00    +0.227 C 
BRANCH   3   2
ATOM      1  C   UNL     1      -3.647   2.470  25.337  0.00  0.00    +0.175 C 
ATOM      2  O   UNL     1      -3.301   2.184  24.644  0.00  0.00    -0.342 OA
ENDBRANCH   3   2
ENDBRANCH   4   3
BRANCH  22  24
ATOM     24  C   UNL     1       1.473   0.835  23.402  0.00  0.00    +0.143 C 
BRANCH  24  25
ATOM     25  S   UNL     1       2.103   0.439  23.045  0.00  0.00    -0.119 S 
BRANCH  25  26
ATOM     26  C   UNL     1       2.847   0.797  23.008  0.00  0.00    +0.172 C 
BRANCH  26  27
ATOM     27  C   UNL     1       3.462   0.426  22.602  0.00  0.00    +0.376 C 
ATOM     28  O   UNL     1       3.478   0.442  21.777  0.00  0.00    -0.245 OA
ATOM     29  O   UNL     1       4.060   0.041  23.020  0.00  0.00    -0.245 OA
ENDBRANCH  26  27
ENDBRANCH  25  26
ENDBRANCH  24  25
ENDBRANCH  22  24
TORSDOF 8
ENDMDL
MODEL 5
REMARK VINA RESULT:      -7.3      1.941      5.505
REMARK  Name = 
REMARK  8 active torsions:
REMARK  status: ('A' for Active; 'I' for Inactive)
REMARK    1  A    between atoms: O_2  and  C_3
REMARK    2  A    between atoms: C_3  and  C_4
REMARK    3  A    between atoms: C_11  and  C_12
REMARK    4  A    between atoms: N_14  and  C_15
REMARK    5  A    between atoms: C_22  and  C_24
REMARK    6  A    between atoms: C_24  and  S_25
REMARK    7  A    between atoms: S_25  and  C_26
REMARK    8  A    between atoms: C_26  and  C_27
REMARK                            x       y       z     vdW  Elec       q    Type
REMARK                         _______ _______ _______ _____ _____    ______ ____
ROOT
ATOM      4  C   UNL     1      -1.549   0.577  24.689  0.00  0.00    +0.256 C 
ATOM      5  O   UNL     1      -0.861   1.023  24.598  0.00  0.00    -0.272 OA
ATOM      6  N   UNL     1      -2.276   0.956  24.791  0.00  0.00    -0.268 N 
ATOM      7  C   UNL     1      -2.313   1.780  24.802  0.00  0.00    +0.115 C 
ATOM      8  C   UNL     1      -3.040   2.158  24.904  0.00  0.00    +0.115 C 
ATOM      9  N   UNL     1      -3.727   1.713  24.994  0.00  0.00    -0.275 N 
ATOM     10  C   UNL     1      -3.690   0.888  24.983  0.00  0.00    +0.123 C 
ATOM     11  C   UNL     1      -2.964   0.511  24.881  0.00  0.00    +0.174 C 
ATOM     22  C   UNL     1      -4.454   2.091  25.096  0.00  0.00    +0.237 C 
ATOM     23  O   UNL     1      -5.142   1.645  25.186  0.00  0.00    -0.274 OA
ENDROOT
BRANCH  11  12
ATOM     12  C   UNL     1      -2.926  -0.314  24.869  0.00  0.00    +0.262 C 
ATOM     13  O   UNL     1      -2.206  -0.696  24.998  0.00  0.00    -0.271 OA
ATOM     14  N   UNL     1      -3.609  -0.755  24.729  0.00  0.00    -0.196 NA
BRANCH  14  15
ATOM     15  C   UNL     1      -3.571  -1.580  24.718  0.00  0.00    +0.173 C 
ATOM     16  C   UNL     1      -3.292  -1.990  25.377  0.00  0.00    +0.033 C 
ATOM     17  C   UNL     1      -3.254  -2.813  25.365  0.00  0.00    +0.026 C 
ATOM     18  C   UNL     1      -3.496  -3.228  24.694  0.00  0.00    +0.115 C 
ATOM     19  N   UNL     1      -3.776  -2.819  24.035  0.00  0.00    -0.204 NA
ATOM     20  C   UNL     1      -3.813  -1.994  24.046  0.00  0.00    +0.261 C 
ATOM     21  O   UNL     1      -4.093  -1.585  23.388  0.00  0.00    -0.271 OA
ENDBRANCH  14  15
ENDBRANCH  11  12
BRANCH   4   3
ATOM      3  C   UNL     1      -1.512  -0.247  24.677  0.00  0.00    +0.227 C 
BRANCH   3   2
ATOM      1  C   UNL     1      -0.332  -0.859  24.152  0.00  0.00    +0.175 C 
ATOM      2  O   UNL     1      -0.790  -0.628  24.798  0.00  0.00    -0.342 OA
ENDBRANCH   3   2
ENDBRANCH   4   3
BRANCH  22  24
ATOM     24  C   UNL     1      -4.491   2.915  25.107  0.00  0.00    +0.143 C 
BRANCH  24  25
ATOM     25  S   UNL     1      -5.182   3.293  25.354  0.00  0.00    -0.119 S 
BRANCH  25  26
ATOM     26  C   UNL     1      -5.209   4.117  25.394  0.00  0.00    +0.172 C 
BRANCH  26  27
ATOM     27  C   UNL     1      -5.914   4.496  25.594  0.00  0.00    +0.376 C 
ATOM     28  O   UNL     1      -6.487   4.096  26.031  0.00  0.00    -0.245 OA
ATOM     29  O   UNL     1      -6.046   5.275  25.355  0.00  0.00    -0.245 OA
ENDBRANCH  26  27
ENDBRANCH  25  26
ENDBRANCH  24  25
ENDBRANCH  22  24
TORSDOF 8
ENDMDL
MODEL 6
REMARK VINA RESULT:      -7.2      2.304      5.844
REMARK  Name = 
REMARK  8 active torsions:
REMARK  status: ('A' for Active; 'I' for Inactive)
REMARK    1  A    between atoms: O_2  and  C_3
REMARK    2  A    between atoms: C_3  and  C_4
REMARK    3  A    between atoms: C_11  and  C_12
REMARK    4  A    between atoms: N_14  and  C_15
REMARK    5  A    between atoms: C_22  and  C_24
REMARK    6  A    between atoms: C_24  and  S_25
REMARK    7  A    between atoms: S_25  and  C_26
REMARK    8  A    between atoms: C_26  and  C_27
REMARK                            x       y       z     vdW  Elec       q    Type
REMARK                         _______ _______ _______ _____ _____    ______ ____
ROOT
ATOM      4  C   UNL     1      -0.546  -0.453  24.612  0.00  0.00    +0.256 C 
ATOM      5  O   UNL     1       0.274  -0.534  24.656  0.00  0.00    -0.272 OA
ATOM      6  N   UNL     1      -0.895   0.285  24.741  0.00  0.00    -0.268 N 
ATOM      7  C   UNL     1      -0.423   0.939  24.912  0.00  0.00    +0.115 C 
ATOM      8  C   UNL     1      -0.772   1.676  25.041  0.00  0.00    +0.115 C 
ATOM      9  N   UNL     1      -1.590   1.758  24.998  0.00  0.00    -0.275 N 
ATOM     10  C   UNL     1      -2.062   1.103  24.826  0.00  0.00    +0.123 C 
ATOM     11  C   UNL     1      -1.714   0.367  24.698  0.00  0.00    +0.174 C 
ATOM     22  C   UNL     1      -1.939   2.495  25.126  0.00  0.00    +0.237 C 
ATOM     23  O   UNL     1      -2.759   2.577  25.083  0.00  0.00    -0.274 OA
ENDROOT
BRANCH  11  12
ATOM     12  C   UNL     1      -2.186  -0.289  24.526  0.00  0.00    +0.262 C 
ATOM     13  O   UNL     1      -1.891  -0.897  24.054  0.00  0.00    -0.271 OA
ATOM     14  N   UNL     1      -2.952  -0.334  24.827  0.00  0.00    -0.196 NA
BRANCH  14  15
ATOM     15  C   UNL     1      -3.425  -0.989  24.655  0.00  0.00    +0.173 C 
ATOM     16  C   UNL     1      -3.615  -1.166  23.872  0.00  0.00    +0.033 C 
ATOM     17  C   UNL     1      -4.087  -1.821  23.701  0.00  0.00    +0.026 C 
ATOM     18  C   UNL     1      -4.368  -2.299  24.312  0.00  0.00    +0.115 C 
ATOM     19  N   UNL     1      -4.177  -2.121  25.094  0.00  0.00    -0.204 NA
ATOM     20  C   UNL     1      -3.705  -1.466  25.266  0.00  0.00    +0.261 C 
ATOM     21  O   UNL     1      -3.515  -1.289  26.048  0.00  0.00    -0.271 OA
ENDBRANCH  14  15
ENDBRANCH  11  12
BRANCH   4   3
ATOM      3  C   UNL     1      -1.018  -1.107  24.441  0.00  0.00    +0.227 C 
BRANCH   3   2
ATOM      1  C   UNL     1      -0.497  -2.405  24.737  0.00  0.00    +0.175 C 
ATOM      2  O   UNL     1      -0.669  -1.812  24.190  0.00  0.00    -0.342 OA
ENDBRANCH   3   2
ENDBRANCH   4   3
BRANCH  22  24
ATOM     24  C   UNL     1      -1.467   3.149  25.298  0.00  0.00    +0.143 C 
BRANCH  24  25
ATOM     25  S   UNL     1      -1.766   3.912  25.194  0.00  0.00    -0.119 S 
BRANCH  25  26
ATOM     26  C   UNL     1      -1.371   4.558  25.521  0.00  0.00    +0.172 C 
BRANCH  26  27
ATOM     27  C   UNL     1      -1.295   5.257  25.089  0.00  0.00    +0.376 C 
ATOM     28  O   UNL     1      -0.600   5.409  24.672  0.00  0.00    -0.245 OA
ATOM     29  O   UNL     1      -1.914   5.802  25.074  0.00  0.00    -0.245 OA
ENDBRANCH  26  27
ENDBRANCH  25  26
ENDBRANCH  24  25
ENDBRANCH  22  24
TORSDOF 8
ENDMDL
MODEL 7
REMARK VINA RESULT:      -6.9      2.589      4.632
REMARK  Name = 
REMARK  8 active torsions:
REMARK  status: ('A' for Active; 'I' for Inactive)
REMARK    1  A    between atoms: O_2  and  C_3
REMARK    2  A    between atoms: C_3  and  C_4
REMARK    3  A    between atoms: C_11  and  C_12
REMARK    4  A    between atoms: N_14  and  C_15
REMARK    5  A    between atoms: C_22  and  C_24
REMARK    6  A    between atoms: C_24  and  S_25
REMARK    7  A    between atoms: S_25  and  C_26
REMARK    8  A    between atoms: C_26  and  C_27
REMARK                            x       y       z     vdW  Elec       q    Type
REMARK                         _______ _______ _______ _____ _____    ______ ____
ROOT
ATOM      4  C   UNL     1      -1.981  -0.979  25.063  0.00  0.00    +0.256 C 
ATOM      5  O   UNL     1      -2.335  -1.613  25.456  0.00  0.00    -0.272 OA
ATOM      6  N   UNL     1      -2.416  -0.295  24.908  0.00  0.00    -0.268 N 
ATOM      7  C   UNL     1      -3.204  -0.245  25.147  0.00  0.00    +0.115 C 
ATOM      8  C   UNL     1      -3.639   0.440  24.992  0.00  0.00    +0.115 C 
ATOM      9  N   UNL     1      -3.286   1.072  24.599  0.00  0.00    -0.275 N 
ATOM     10  C   UNL     1      -2.497   1.022  24.360  0.00  0.00    +0.123 C 
ATOM     11  C   UNL     1      -2.063   0.338  24.515  0.00  0.00    +0.174 C 
ATOM     22  C   UNL     1      -3.720   1.757  24.445  0.00  0.00    +0.237 C 
ATOM     23  O   UNL     1      -3.367   2.390  24.051  0.00  0.00    -0.274 OA
ENDROOT
BRANCH  11  12
ATOM     12  C   UNL     1      -1.274   0.287  24.276  0.00  0.00    +0.262 C 
ATOM     13  O   UNL     1      -0.907  -0.449  24.217  0.00  0.00    -0.271 OA
ATOM     14  N   UNL     1      -0.854   0.974  24.097  0.00  0.00    -0.196 NA
BRANCH  14  15
ATOM     15  C   UNL     1      -0.065   0.923  23.858  0.00  0.00    +0.173 C 
ATOM     16  C   UNL     1       0.149   0.415  23.245  0.00  0.00    +0.033 C 
ATOM     17  C   UNL     1       0.936   0.365  23.006  0.00  0.00    +0.026 C 
ATOM     18  C   UNL     1       1.511   0.823  23.381  0.00  0.00    +0.115 C 
ATOM     19  N   UNL     1       1.298   1.331  23.995  0.00  0.00    -0.204 NA
ATOM     20  C   UNL     1       0.509   1.382  24.234  0.00  0.00    +0.261 C 
ATOM     21  O   UNL     1       0.296   1.889  24.846  0.00  0.00    -0.271 OA
ENDBRANCH  14  15
ENDBRANCH  11  12
BRANCH   4   3
ATOM      3  C   UNL     1      -1.193  -1.029  24.824  0.00  0.00    +0.227 C 
BRANCH   3   2
ATOM      1  C   UNL     1      -0.322  -1.976  25.446  0.00  0.00    +0.175 C 
ATOM      2  O   UNL     1      -0.810  -1.761  24.817  0.00  0.00    -0.342 OA
ENDBRANCH   3   2
ENDBRANCH   4   3
BRANCH  22  24
ATOM     24  C   UNL     1      -4.508   1.807  24.683  0.00  0.00    +0.143 C 
BRANCH  24  25
ATOM     25  S   UNL     1      -4.819   2.531  24.929  0.00  0.00    -0.119 S 
BRANCH  25  26
ATOM     26  C   UNL     1      -5.608   2.582  25.167  0.00  0.00    +0.172 C 
BRANCH  26  27
ATOM     27  C   UNL     1      -5.821   3.089  25.781  0.00  0.00    +0.376 C 
ATOM     28  O   UNL     1      -5.978   2.783  26.531  0.00  0.00    -0.245 OA
ATOM     29  O   UNL     1      -5.877   3.901  25.646  0.00  0.00    -0.245 OA
ENDBRANCH  26  27
ENDBRANCH  25  26
ENDBRANCH  24  25
ENDBRANCH  22  24
TORSDOF 8
ENDMDL
MODEL 8
REMARK VINA RESULT:      -6.8      1.645      2.922
REMARK  Name = 
REMARK  8 active torsions:
REMARK  status: ('A' for Active; 'I' for Inactive)
REMARK    1  A    between atoms: O_2  and  C_3
REMARK    2  A    between atoms: C_3  and  C_4
REMARK    3  A    between atoms: C_11  and  C_12
REMARK    4  A    between atoms: N_14  and  C_15
REMARK    5  A    between atoms: C_22  and  C_24
REMARK    6  A    between atoms: C_24  and  S_25
REMARK    7  A    between atoms: S_25  and  C_26
REMARK    8  A    between atoms: C_26  and  C_27
REMARK                            x       y       z     vdW  Elec       q    Type
REMARK                         _______ _______ _______ _____ _____    ______ ____
ROOT
ATOM      4  C   UNL     1      -0.472   1.934  24.456  0.00  0.00    +0.256 C 
ATOM      5  O   UNL     1       0.263   1.759  24.126  0.00  0.00    -0.272 OA
ATOM      6  N   UNL     1      -1.018   1.331  24.593  0.00  0.00    -0.268 N 
ATOM      7  C   UNL     1      -0.828   0.552  24.399  0.00  0.00    +0.115 C 
ATOM      8  C   UNL     1      -1.375  -0.052  24.535  0.00  0.00    +0.115 C 
ATOM      9  N   UNL     1      -2.109   0.124  24.866  0.00  0.00    -0.275 N 
ATOM     10  C   UNL     1      -2.299   0.903  25.060  0.00  0.00    +0.123 C 
ATOM     11  C   UNL     1      -1.752   1.506  24.924  0.00  0.00    +0.174 C 
ATOM     22  C   UNL     1      -2.655  -0.479  25.002  0.00  0.00    +0.237 C 
ATOM     23  O   UNL     1      -3.390  -0.303  25.333  0.00  0.00    -0.274 OA
ENDROOT
BRANCH  11  12
ATOM     12  C   UNL     1      -1.942   2.286  25.118  0.00  0.00    +0.262 C 
ATOM     13  O   UNL     1      -1.346   2.814  25.335  0.00  0.00    -0.271 OA
ATOM     14  N   UNL     1      -2.727   2.537  25.095  0.00  0.00    -0.196 NA
BRANCH  14  15
ATOM     15  C   UNL     1      -2.917   3.316  25.290  0.00  0.00    +0.173 C 
ATOM     16  C   UNL     1      -2.672   3.633  26.011  0.00  0.00    +0.033 C 
ATOM     17  C   UNL     1      -2.861   4.411  26.205  0.00  0.00    +0.026 C 
ATOM     18  C   UNL     1      -3.296   4.875  25.678  0.00  0.00    +0.115 C 
ATOM     19  N   UNL     1      -3.541   4.558  24.957  0.00  0.00    -0.204 NA
ATOM     20  C   UNL     1      -3.352   3.778  24.763  0.00  0.00    +0.261 C 
ATOM     21  O   UNL     1      -3.597   3.462  24.042  0.00  0.00    -0.271 OA
ENDBRANCH  14  15
ENDBRANCH  11  12
BRANCH   4   3
ATOM      3  C   UNL     1      -0.662   2.713  24.651  0.00  0.00    +0.227 C 
BRANCH   3   2
ATOM      1  C   UNL     1       0.048   3.808  24.067  0.00  0.00    +0.175 C 
ATOM      2  O   UNL     1      -0.066   3.284  24.693  0.00  0.00    -0.342 OA
ENDBRANCH   3   2
ENDBRANCH   4   3
BRANCH  22  24
ATOM     24  C   UNL     1      -2.465  -1.258  24.808  0.00  0.00    +0.143 C 
BRANCH  24  25
ATOM     25  S   UNL     1      -3.044  -1.846  24.849  0.00  0.00    -0.119 S 
BRANCH  25  26
ATOM     26  C   UNL     1      -2.938  -2.558  24.444  0.00  0.00    +0.172 C 
BRANCH  26  27
ATOM     27  C   UNL     1      -3.542  -3.120  24.435  0.00  0.00    +0.376 C 
ATOM     28  O   UNL     1      -3.620  -3.650  25.062  0.00  0.00    -0.245 OA
ATOM     29  O   UNL     1      -4.067  -3.151  23.800  0.00  0.00    -0.245 OA
ENDBRANCH  26  27
ENDBRANCH  25  26
ENDBRANCH  24  25
ENDBRANCH  22  24
TORSDOF 8
ENDMDL
MODEL 9
REMARK VINA RESULT:      -6.6      2.389      5.283
REMARK  Name = 
REMARK  8 active torsions:
REMARK  status: ('A' for Active; 'I' for Inactive)
REMARK    1  A    between atoms: O_2  and  C_3
REMARK    2  A    between atoms: C_3  and  C_4
REMARK    3  A    between atoms: C_11  and  C_12
REMARK    4  A    between atoms: N_14  and  C_15
REMARK    5  A    between atoms: C_22  and  C_24
REMARK    6  A    between atoms: C_24  and  S_25
REMARK    7  A    between atoms: S_25  and  C_26
REMARK    8  A    between atoms: C_26  and  C_27
REMARK                            x       y       z     vdW  Elec       q    Type
REMARK                         _______ _______ _______ _____ _____    ______ ____
ROOT
ATOM      4  C   UNL     1      -0.708   1.451  23.858  0.00  0.00    +0.256 C 
ATOM      5  O   UNL     1      -0.281   2.058  23.496  0.00  0.00    -0.272 OA
ATOM      6  N   UNL     1      -1.470   1.595  24.142  0.00  0.00    -0.268 N 
ATOM      7  C   UNL     1      -1.804   2.345  24.064  0.00  0.00    +0.115 C 
ATOM      8  C   UNL     1      -2.566   2.488  24.348  0.00  0.00    +0.115 C 
ATOM      9  N   UNL     1      -2.992   1.882  24.709  0.00  0.00    -0.275 N 
ATOM     10  C   UNL     1      -2.657   1.132  24.787  0.00  0.00    +0.123 C 
ATOM     11  C   UNL     1      -1.896   0.989  24.503  0.00  0.00    +0.174 C 
ATOM     22  C   UNL     1      -3.753   2.025  24.993  0.00  0.00    +0.237 C 
ATOM     23  O   UNL     1      -4.179   1.418  25.355  0.00  0.00    -0.274 OA
ENDROOT
BRANCH  11  12
ATOM     12  C   UNL     1      -1.561   0.238  24.581  0.00  0.00    +0.262 C 
ATOM     13  O   UNL     1      -0.752   0.132  24.454  0.00  0.00    -0.271 OA
ATOM     14  N   UNL     1      -2.035  -0.405  24.787  0.00  0.00    -0.196 NA
BRANCH  14  15
ATOM     15  C   UNL     1      -1.700  -1.155  24.865  0.00  0.00    +0.173 C 
ATOM     16  C   UNL     1      -1.063  -1.272  25.376  0.00  0.00    +0.033 C 
ATOM     17  C   UNL     1      -0.729  -2.022  25.454  0.00  0.00    +0.026 C 
ATOM     18  C   UNL     1      -1.030  -2.656  25.021  0.00  0.00    +0.115 C 
ATOM     19  N   UNL     1      -1.667  -2.539  24.509  0.00  0.00    -0.204 NA
ATOM     20  C   UNL     1      -2.002  -1.789  24.431  0.00  0.00    +0.261 C 
ATOM     21  O   UNL     1      -2.638  -1.672  23.920  0.00  0.00    -0.271 OA
ENDBRANCH  14  15
ENDBRANCH  11  12
BRANCH   4   3
ATOM      3  C   UNL     1      -0.374   0.701  23.936  0.00  0.00    +0.227 C 
BRANCH   3   2
ATOM      1  C   UNL     1       0.698   0.259  23.099  0.00  0.00    +0.175 C 
ATOM      2  O   UNL     1       0.435   0.595  23.805  0.00  0.00    -0.342 OA
ENDBRANCH   3   2
ENDBRANCH   4   3
BRANCH  22  24
ATOM     24  C   UNL     1      -4.087   2.775  24.915  0.00  0.00    +0.143 C 
BRANCH  24  25
ATOM     25  S   UNL     1      -4.803   2.948  25.288  0.00  0.00    -0.119 S 
BRANCH  25  26
ATOM     26  C   UNL     1      -5.071   3.728  25.325  0.00  0.00    +0.172 C 
BRANCH  26  27
ATOM     27  C   UNL     1      -5.794   3.899  25.683  0.00  0.00    +0.376 C 
ATOM     28  O   UNL     1      -6.208   3.304  26.078  0.00  0.00    -0.245 OA
ATOM     29  O   UNL     1      -6.103   4.663  25.646  0.00  0.00    -0.245 OA
ENDBRANCH  26  27
ENDBRANCH  25  26
ENDBRANCH  24  25
ENDBRANCH  22  24
TORSDOF 8
ENDMDL
MODEL 10
REMARK VINA RESULT:      -6.5      2.057      5.025
REMARK  Name = 
REMARK  8 active torsions:
REMARK  status: ('A' for Active; 'I' for Inactive)
REMARK    1  A    between atoms: O_2  and  C_3
REMARK    2  A    between atoms: C_3  and  C_4
REMARK    3  A    between atoms: C_11  and  C_12
REMARK    4  A    between atoms: N_14  and  C_15
REMARK    5  A    between atoms: C_22  and  C_24
REMARK    6  A    between atoms: C_24  and  S_25
REMARK    7  A    between atoms: S_25  and  C_26
REMARK    8  A    between atoms: C_26  and  C_27
REMARK                            x       y       z     vdW  Elec       q    Type
REMARK                         _______ _______ _______ _____ _____    ______ ____
ROOT
ATOM      4  C   UNL     1      -4.002  -1.359  24.255  0.00  0.00    +0.256 C 
ATOM      5  O   UNL     1      -4.701  -1.731  24.023  0.00  0.00    -0.272 OA
ATOM      6  N   UNL     1      -4.007  -0.557  24.453  0.00  0.00    -0.268 N 
ATOM      7  C   UNL     1      -4.711  -0.129  24.418  0.00  0.00    +0.115 C 
ATOM      8  C   UNL     1      -4.716   0.673  24.616  0.00  0.00    +0.115 C 
ATOM      9  N   UNL     1      -4.018   1.044  24.848  0.00  0.00    -0.275 N 
ATOM     10  C   UNL     1      -3.314   0.615  24.883  0.00  0.00    +0.123 C 
ATOM     11  C   UNL     1      -3.309  -0.186  24.685  0.00  0.00    +0.174 C 
ATOM     22  C   UNL     1      -4.023   1.845  25.046  0.00  0.00    +0.237 C 
ATOM     23  O   UNL     1      -3.324   2.217  25.279  0.00  0.00    -0.274 OA
ENDROOT
BRANCH  11  12
ATOM     12  C   UNL     1      -2.605  -0.615  24.720  0.00  0.00    +0.262 C 
ATOM     13  O   UNL     1      -2.624  -1.440  24.732  0.00  0.00    -0.271 OA
ATOM     14  N   UNL     1      -1.882  -0.218  24.743  0.00  0.00    -0.196 NA
BRANCH  14  15
ATOM     15  C   UNL     1      -1.177  -0.648  24.778  0.00  0.00    +0.173 C 
ATOM     16  C   UNL     1      -1.059  -1.199  25.380  0.00  0.00    +0.033 C 
ATOM     17  C   UNL     1      -0.356  -1.627  25.414  0.00  0.00    +0.026 C 
ATOM     18  C   UNL     1       0.231  -1.505  24.847  0.00  0.00    +0.115 C 
ATOM     19  N   UNL     1       0.113  -0.953  24.245  0.00  0.00    -0.204 NA
ATOM     20  C   UNL     1      -0.592  -0.524  24.210  0.00  0.00    +0.261 C 
ATOM     21  O   UNL     1      -0.709   0.027  23.609  0.00  0.00    -0.271 OA
ENDBRANCH  14  15
ENDBRANCH  11  12
BRANCH   4   3
ATOM      3  C   UNL     1      -3.298  -1.787  24.290  0.00  0.00    +0.227 C 
BRANCH   3   2
ATOM      1  C   UNL     1      -3.441  -3.206  24.392  0.00  0.00    +0.175 C 
ATOM      2  O   UNL     1      -3.254  -2.537  23.947  0.00  0.00    -0.342 OA
ENDBRANCH   3   2
ENDBRANCH   4   3
BRANCH  22  24
ATOM     24  C   UNL     1      -4.727   2.273  25.011  0.00  0.00    +0.143 C 
BRANCH  24  25
ATOM     25  S   UNL     1      -4.750   3.051  25.287  0.00  0.00    -0.119 S 
BRANCH  25  26
ATOM     26  C   UNL     1      -5.468   3.384  25.523  0.00  0.00    +0.172 C 
BRANCH  26  27
ATOM     27  C   UNL     1      -5.551   4.204  25.555  0.00  0.00    +0.376 C 
ATOM     28  O   UNL     1      -4.910   4.690  25.370  0.00  0.00    -0.245 OA
ATOM     29  O   UNL     1      -6.273   4.538  25.771  0.00  0.00    -0.245 OA
ENDBRANCH  26  27
ENDBRANCH  25  26
ENDBRANCH  24  25
ENDBRANCH  22  24
TORSDOF 8
ENDMDL
