MODEL 1
REMARK VINA RESULT:      -9.0      0.000      0.000
REMARK  Name = 
REMARK  5 active torsions:
REMARK  status: ('A' for Active; 'I' for Inactive)
REMARK    1  A    between atoms: C_2  and  C_3
REMARK    2  A    between atoms: C_5  and  C_6
REMARK    3  A    between atoms: C_6  and  C_7
REMARK    4  A    between atoms: C_10  and  C_11
REMARK    5  A    between atoms: C_11  and  N_12
REMARK                            x       y       z     vdW  Elec       q    Type
REMARK                         _______ _______ _______ _____ _____    ______ ____
ROOT
ATOM      7  C   UNL     1      -4.224   1.035  24.382  0.00  0.00    +0.103 A 
ATOM      8  N   UNL     1      -3.589   1.037  23.856  0.00  0.00    -0.082 NA
ATOM      9  O   UNL     1      -3.337   1.818  23.762  0.00  0.00    -0.357 OA
ATOM     10  C   UNL     1      -3.817   2.298  24.230  0.00  0.00    +0.170 A 
ATOM     18  C   UNL     1      -4.365   1.815  24.614  0.00  0.00    +0.055 A 
ENDROOT
BRANCH   7   6
ATOM      6  C   UNL     1      -4.644   0.371  24.633  0.00  0.00    +0.079 C 
BRANCH   6   5
ATOM      3  C   UNL     1      -3.806  -1.642  24.544  0.00  0.00    +0.164 C 
ATOM      4  O   UNL     1      -4.210  -0.956  24.329  0.00  0.00    -0.354 OA
ATOM      5  C   UNL     1      -4.241  -0.315  24.848  0.00  0.00    +0.121 C 
ATOM     19  C   UNL     1      -3.868  -0.360  25.582  0.00  0.00    +0.033 C 
ATOM     20  C   UNL     1      -3.464  -1.047  25.798  0.00  0.00    +0.038 C 
ATOM     21  C   UNL     1      -3.433  -1.687  25.279  0.00  0.00    +0.180 C 
ATOM     22  O   UNL     1      -3.029  -2.374  25.495  0.00  0.00    -0.220 OA
BRANCH   3   2
ATOM      1  N   UNL     1      -4.446  -2.503  23.600  0.00  0.00    -0.129 NA
ATOM      2  C   UNL     1      -3.775  -2.283  24.026  0.00  0.00    +0.141 C 
ENDBRANCH   3   2
ENDBRANCH   6   5
ENDBRANCH   7   6
BRANCH  10  11
ATOM     11  C   UNL     1      -3.759   3.118  24.302  0.00  0.00    +0.141 C 
BRANCH  11  12
ATOM     12  N   UNL     1      -3.219   3.449  24.830  0.00  0.00    -0.264 NA
ATOM     13  C   UNL     1      -3.465   3.680  25.582  0.00  0.00    +0.091 C 
ATOM     14  C   UNL     1      -2.924   4.011  26.110  0.00  0.00    +0.106 C 
ATOM     15  N   UNL     1      -2.137   4.110  25.885  0.00  0.00    -0.215 NA
ATOM     16  C   UNL     1      -1.890   3.879  25.133  0.00  0.00    +0.106 C 
ATOM     17  C   UNL     1      -2.431   3.548  24.605  0.00  0.00    +0.091 C 
ENDBRANCH  11  12
ENDBRANCH  10  11
TORSDOF 5
ENDMDL
MODEL 2
REMARK VINA RESULT:      -8.9      1.283      4.943
REMARK  Name = 
REMARK  5 active torsions:
REMARK  status: ('A' for Active; 'I' for Inactive)
REMARK    1  A    between atoms: C_2  and  C_3
REMARK    2  A    between atoms: C_5  and  C_6
REMARK    3  A    between atoms: C_6  and  C_7
REMARK    4  A    between atoms: C_10  and  C_11
REMARK    5  A    between atoms: C_11  and  N_12
REMARK                            x       y       z     vdW  Elec       q    Type
REMARK                         _______ _______ _______ _____ _____    ______ ____
ROOT
ATOM      7  C   UNL     1      -3.179   1.287  24.465  0.00  0.00    +0.103 A 
ATOM      8  N   UNL     1      -2.493   0.851  24.606  0.00  0.00    -0.082 NA
ATOM      9  O   UNL     1      -2.716   0.111  24.897  0.00  0.00    -0.357 OA
ATOM     10  C   UNL     1      -3.540   0.091  24.936  0.00  0.00    +0.170 A 
ATOM     18  C   UNL     1      -3.826   0.818  24.669  0.00  0.00    +0.055 A 
ENDROOT
BRANCH   7   6
ATOM      6  C   UNL     1      -3.212   2.058  24.172  0.00  0.00    +0.079 C 
BRANCH   6   5
ATOM      3  C   UNL     1      -2.270   3.642  25.340  0.00  0.00    +0.164 C 
ATOM      4  O   UNL     1      -2.364   3.003  24.829  0.00  0.00    -0.354 OA
ATOM      5  C   UNL     1      -3.117   2.697  24.684  0.00  0.00    +0.121 C 
ATOM     19  C   UNL     1      -3.776   3.033  25.051  0.00  0.00    +0.033 C 
ATOM     20  C   UNL     1      -3.681   3.673  25.563  0.00  0.00    +0.038 C 
ATOM     21  C   UNL     1      -2.928   3.978  25.707  0.00  0.00    +0.180 C 
ATOM     22  O   UNL     1      -2.834   4.618  26.219  0.00  0.00    -0.220 OA
BRANCH   3   2
ATOM      1  N   UNL     1      -0.978   4.028  24.867  0.00  0.00    -0.129 NA
ATOM      2  C   UNL     1      -1.517   3.948  25.485  0.00  0.00    +0.141 C 
ENDBRANCH   3   2
ENDBRANCH   6   5
ENDBRANCH   7   6
BRANCH  10  11
ATOM     11  C   UNL     1      -3.998  -0.544  25.196  0.00  0.00    +0.141 C 
BRANCH  11  12
ATOM     12  N   UNL     1      -3.900  -1.289  24.857  0.00  0.00    -0.264 NA
ATOM     13  C   UNL     1      -3.441  -1.859  25.237  0.00  0.00    +0.091 C 
ATOM     14  C   UNL     1      -3.344  -2.605  24.898  0.00  0.00    +0.106 C 
ATOM     15  N   UNL     1      -3.705  -2.780  24.177  0.00  0.00    -0.215 NA
ATOM     16  C   UNL     1      -4.164  -2.210  23.797  0.00  0.00    +0.106 C 
ATOM     17  C   UNL     1      -4.262  -1.465  24.136  0.00  0.00    +0.091 C 
ENDBRANCH  11  12
ENDBRANCH  10  11
TORSDOF 5
ENDMDL
MODEL 3
REMARK VINA RESULT:      -8.9      1.895      4.171
REMARK  Name = 
REMARK  5 active torsions:
REMARK  status: ('A' for Active; 'I' for Inactive)
REMARK    1  A    between atoms: C_2  and  C_3
REMARK    2  A    between atoms: C_5  and  C_6
REMARK    3  A    between atoms: C_6  and  C_7
REMARK    4  A    between atoms: C_10  and  C_11
REMARK    5  A    between atoms: C_11  and  N_12
REMARK                            x       y       z     vdW  Elec       q    Type
REMARK                         _______ _______ _______ _____ _____    ______ ____
ROOT
ATOM      7  C   UNL     1      -4.418   0.179  24.811  0.00  0.00    +0.103 A 
ATOM      8  N   UNL     1      -4.243  -0.071  25.577  0.00  0.00    -0.082 NA
ATOM      9  O   UNL     1      -3.610  -0.599  25.534  0.00  0.00    -0.357 OA
ATOM     10  C   UNL     1      -3.394  -0.675  24.742  0.00  0.00    +0.170 A 
ATOM     18  C   UNL     1      -3.894  -0.194  24.294  0.00  0.00    +0.055 A 
ENDROOT
BRANCH   7   6
ATOM      6  C   UNL     1      -5.013   0.709  24.598  0.00  0.00    +0.079 C 
BRANCH   6   5
ATOM      3  C   UNL     1      -4.427   2.808  24.717  0.00  0.00    +0.164 C 
ATOM      4  O   UNL     1      -4.466   2.023  24.468  0.00  0.00    -0.354 OA
ATOM      5  C   UNL     1      -4.974   1.494  24.847  0.00  0.00    +0.121 C 
ATOM     19  C   UNL     1      -5.443   1.751  25.475  0.00  0.00    +0.033 C 
ATOM     20  C   UNL     1      -5.404   2.537  25.724  0.00  0.00    +0.038 C 
ATOM     21  C   UNL     1      -4.896   3.065  25.345  0.00  0.00    +0.180 C 
ATOM     22  O   UNL     1      -4.857   3.851  25.595  0.00  0.00    -0.220 OA
BRANCH   3   2
ATOM      1  N   UNL     1      -3.762   3.254  23.534  0.00  0.00    -0.129 NA
ATOM      2  C   UNL     1      -3.919   3.337  24.339  0.00  0.00    +0.141 C 
ENDBRANCH   3   2
ENDBRANCH   6   5
ENDBRANCH   7   6
BRANCH  10  11
ATOM     11  C   UNL     1      -2.786  -1.149  24.448  0.00  0.00    +0.141 C 
BRANCH  11  12
ATOM     12  N   UNL     1      -2.001  -0.971  24.627  0.00  0.00    -0.264 NA
ATOM     13  C   UNL     1      -1.626  -0.337  24.257  0.00  0.00    +0.091 C 
ATOM     14  C   UNL     1      -0.841  -0.159  24.437  0.00  0.00    +0.106 C 
ATOM     15  N   UNL     1      -0.430  -0.617  24.987  0.00  0.00    -0.215 NA
ATOM     16  C   UNL     1      -0.805  -1.252  25.357  0.00  0.00    +0.106 C 
ATOM     17  C   UNL     1      -1.590  -1.429  25.178  0.00  0.00    +0.091 C 
ENDBRANCH  11  12
ENDBRANCH  10  11
TORSDOF 5
ENDMDL
MODEL 4
REMARK VINA RESULT:      -8.8      1.299      1.524
REMARK  Name = 
REMARK  5 active torsions:
REMARK  status: ('A' for Active; 'I' for Inactive)
REMARK    1  A    between atoms: C_2  and  C_3
REMARK    2  A    between atoms: C_5  and  C_6
REMARK    3  A    between atoms: C_6  and  C_7
REMARK    4  A    between atoms: C_10  and  C_11
REMARK    5  A    between atoms: C_11  and  N_12
REMARK                            x       y       z     vdW  Elec       q    Type
REMARK                         _______ _______ _______ _____ _____    ______ ____
ROOT
ATOM      7  C   UNL     1      -4.332   0.938  24.571  0.00  0.00    +0.103 A 
ATOM      8  N   UNL     1      -4.796   1.079  25.238  0.00  0.00    -0.082 NA
ATOM      9  O   UNL     1      -4.839   1.895  25.353  0.00  0.00    -0.357 OA
ATOM     10  C   UNL     1      -4.402   2.259  24.756  0.00  0.00    +0.170 A 
ATOM     18  C   UNL     1      -4.088   1.668  24.272  0.00  0.00    +0.055 A 
ENDROOT
BRANCH   7   6
ATOM      6  C   UNL     1      -4.145   0.199  24.257  0.00  0.00    +0.079 C 
BRANCH   6   5
ATOM      3  C   UNL     1      -2.172  -0.607  24.728  0.00  0.00    +0.164 C 
ATOM      4  O   UNL     1      -2.765  -0.151  24.382  0.00  0.00    -0.354 OA
ATOM      5  C   UNL     1      -3.552  -0.258  24.604  0.00  0.00    +0.121 C 
ATOM     19  C   UNL     1      -3.746  -0.822  25.174  0.00  0.00    +0.033 C 
ATOM     20  C   UNL     1      -3.153  -1.279  25.521  0.00  0.00    +0.038 C 
ATOM     21  C   UNL     1      -2.366  -1.171  25.298  0.00  0.00    +0.180 C 
ATOM     22  O   UNL     1      -1.773  -1.629  25.645  0.00  0.00    -0.220 OA
BRANCH   3   2
ATOM      1  N   UNL     1      -1.068   0.259  24.461  0.00  0.00    -0.129 NA
ATOM      2  C   UNL     1      -1.385  -0.500  24.506  0.00  0.00    +0.141 C 
ENDBRANCH   3   2
ENDBRANCH   6   5
ENDBRANCH   7   6
BRANCH  10  11
ATOM     11  C   UNL     1      -4.296   3.071  24.658  0.00  0.00    +0.141 C 
BRANCH  11  12
ATOM     12  N   UNL     1      -3.678   3.456  25.045  0.00  0.00    -0.264 NA
ATOM     13  C   UNL     1      -3.783   3.739  25.812  0.00  0.00    +0.091 C 
ATOM     14  C   UNL     1      -3.164   4.124  26.200  0.00  0.00    +0.106 C 
ATOM     15  N   UNL     1      -2.440   4.227  25.818  0.00  0.00    -0.215 NA
ATOM     16  C   UNL     1      -2.335   3.944  25.050  0.00  0.00    +0.106 C 
ATOM     17  C   UNL     1      -2.953   3.559  24.664  0.00  0.00    +0.091 C 
ENDBRANCH  11  12
ENDBRANCH  10  11
TORSDOF 5
ENDMDL
MODEL 5
REMARK VINA RESULT:      -8.8      1.510      4.764
REMARK  Name = 
REMARK  5 active torsions:
REMARK  status: ('A' for Active; 'I' for Inactive)
REMARK    1  A    between atoms: C_2  and  C_3
REMARK    2  A    between atoms: C_5  and  C_6
REMARK    3  A    between atoms: C_6  and  C_7
REMARK    4  A    between atoms: C_10  and  C_11
REMARK    5  A    between atoms: C_11  and  N_12
REMARK                            x       y       z     vdW  Elec       q    Type
REMARK                         _______ _______ _______ _____ _____    ______ ____
ROOT
ATOM      7  C   UNL     1      -3.660   0.873  24.573  0.00  0.00    +0.103 A 
ATOM      8  N   UNL     1      -2.851   0.948  24.715  0.00  0.00    -0.082 NA
ATOM      9  O   UNL     1      -2.593   0.263  25.096  0.00  0.00    -0.357 OA
ATOM     10  C   UNL     1      -3.244  -0.235  25.191  0.00  0.00    +0.170 A 
ATOM     18  C   UNL     1      -3.903   0.141  24.868  0.00  0.00    +0.055 A 
ENDROOT
BRANCH   7   6
ATOM      6  C   UNL     1      -4.142   1.431  24.203  0.00  0.00    +0.079 C 
BRANCH   6   5
ATOM      3  C   UNL     1      -4.569   3.247  25.335  0.00  0.00    +0.164 C 
ATOM      4  O   UNL     1      -4.166   2.687  24.884  0.00  0.00    -0.354 OA
ATOM      5  C   UNL     1      -4.545   1.991  24.654  0.00  0.00    +0.121 C 
ATOM     19  C   UNL     1      -5.328   1.856  24.874  0.00  0.00    +0.033 C 
ATOM     20  C   UNL     1      -5.733   2.417  25.326  0.00  0.00    +0.038 C 
ATOM     21  C   UNL     1      -5.353   3.112  25.556  0.00  0.00    +0.180 C 
ATOM     22  O   UNL     1      -5.757   3.673  26.007  0.00  0.00    -0.220 OA
BRANCH   3   2
ATOM      1  N   UNL     1      -3.436   3.912  25.898  0.00  0.00    -0.129 NA
ATOM      2  C   UNL     1      -4.190   3.943  25.565  0.00  0.00    +0.141 C 
ENDBRANCH   3   2
ENDBRANCH   6   5
ENDBRANCH   7   6
BRANCH  10  11
ATOM     11  C   UNL     1      -3.236  -0.980  25.546  0.00  0.00    +0.141 C 
BRANCH  11  12
ATOM     12  N   UNL     1      -3.022  -1.644  25.108  0.00  0.00    -0.264 NA
ATOM     13  C   UNL     1      -3.603  -2.147  24.808  0.00  0.00    +0.091 C 
ATOM     14  C   UNL     1      -3.388  -2.812  24.369  0.00  0.00    +0.106 C 
ATOM     15  N   UNL     1      -2.591  -2.974  24.230  0.00  0.00    -0.215 NA
ATOM     16  C   UNL     1      -2.010  -2.471  24.530  0.00  0.00    +0.106 C 
ATOM     17  C   UNL     1      -2.224  -1.807  24.968  0.00  0.00    +0.091 C 
ENDBRANCH  11  12
ENDBRANCH  10  11
TORSDOF 5
ENDMDL
MODEL 6
REMARK VINA RESULT:      -8.7      2.238      4.005
REMARK  Name = 
REMARK  5 active torsions:
REMARK  status: ('A' for Active; 'I' for Inactive)
REMARK    1  A    between atoms: C_2  and  C_3
REMARK    2  A    between atoms: C_5  and  C_6
REMARK    3  A    between atoms: C_6  and  C_7
REMARK    4  A    between atoms: C_10  and  C_11
REMARK    5  A    between atoms: C_11  and  N_12
REMARK                            x       y       z     vdW  Elec       q    Type
REMARK                         _______ _______ _______ _____ _____    ______ ____
ROOT
ATOM      7  C   UNL     1      -2.920   2.369  23.811  0.00  0.00    +0.103 A 
ATOM      8  N   UNL     1      -2.243   2.696  24.150  0.00  0.00    -0.082 NA
ATOM      9  O   UNL     1      -1.669   2.105  24.195  0.00  0.00    -0.357 OA
ATOM     10  C   UNL     1      -1.992   1.412  23.883  0.00  0.00    +0.170 A 
ATOM     18  C   UNL     1      -2.765   1.576  23.646  0.00  0.00    +0.055 A 
ENDROOT
BRANCH   7   6
ATOM      6  C   UNL     1      -3.628   2.766  23.663  0.00  0.00    +0.079 C 
BRANCH   6   5
ATOM      3  C   UNL     1      -5.229   2.574  25.134  0.00  0.00    +0.164 C 
ATOM      4  O   UNL     1      -4.717   2.398  24.512  0.00  0.00    -0.354 OA
ATOM      5  C   UNL     1      -4.140   2.942  24.285  0.00  0.00    +0.121 C 
ATOM     19  C   UNL     1      -4.075   3.663  24.681  0.00  0.00    +0.033 C 
ATOM     20  C   UNL     1      -4.588   3.839  25.304  0.00  0.00    +0.038 C 
ATOM     21  C   UNL     1      -5.164   3.295  25.530  0.00  0.00    +0.180 C 
ATOM     22  O   UNL     1      -5.676   3.471  26.153  0.00  0.00    -0.220 OA
BRANCH   3   2
ATOM      1  N   UNL     1      -6.250   1.635  24.789  0.00  0.00    -0.129 NA
ATOM      2  C   UNL     1      -5.806   2.029  25.361  0.00  0.00    +0.141 C 
ENDBRANCH   3   2
ENDBRANCH   6   5
ENDBRANCH   7   6
BRANCH  10  11
ATOM     11  C   UNL     1      -1.609   0.684  23.820  0.00  0.00    +0.141 C 
BRANCH  11  12
ATOM     12  N   UNL     1      -1.563   0.184  24.474  0.00  0.00    -0.264 NA
ATOM     13  C   UNL     1      -2.162  -0.363  24.619  0.00  0.00    +0.091 C 
ATOM     14  C   UNL     1      -2.116  -0.864  25.273  0.00  0.00    +0.106 C 
ATOM     15  N   UNL     1      -1.469  -0.816  25.783  0.00  0.00    -0.215 NA
ATOM     16  C   UNL     1      -0.869  -0.269  25.638  0.00  0.00    +0.106 C 
ATOM     17  C   UNL     1      -0.915   0.231  24.984  0.00  0.00    +0.091 C 
ENDBRANCH  11  12
ENDBRANCH  10  11
TORSDOF 5
ENDMDL
MODEL 7
REMARK VINA RESULT:      -8.4      2.034      2.551
REMARK  Name = 
REMARK  5 active torsions:
REMARK  status: ('A' for Active; 'I' for Inactive)
REMARK    1  A    between atoms: C_2  and  C_3
REMARK    2  A    between atoms: C_5  and  C_6
REMARK    3  A    between atoms: C_6  and  C_7
REMARK    4  A    between atoms: C_10  and  C_11
REMARK    5  A    between atoms: C_11  and  N_12
REMARK                            x       y       z     vdW  Elec       q    Type
REMARK                         _______ _______ _______ _____ _____    ______ ____
ROOT
ATOM      7  C   UNL     1      -2.263   1.860  23.919  0.00  0.00    +0.103 A 
ATOM      8  N   UNL     1      -2.084   2.436  24.481  0.00  0.00    -0.082 NA
ATOM      9  O   UNL     1      -2.755   2.904  24.590  0.00  0.00    -0.357 OA
ATOM     10  C   UNL     1      -3.349   2.617  24.094  0.00  0.00    +0.170 A 
ATOM     18  C   UNL     1      -3.045   1.971  23.680  0.00  0.00    +0.055 A 
ENDROOT
BRANCH   7   6
ATOM      6  C   UNL     1      -1.750   1.274  23.644  0.00  0.00    +0.079 C 
BRANCH   6   5
ATOM      3  C   UNL     1      -1.790  -0.623  24.721  0.00  0.00    +0.164 C 
ATOM      4  O   UNL     1      -2.014  -0.005  24.224  0.00  0.00    -0.354 OA
ATOM      5  C   UNL     1      -1.526   0.656  24.141  0.00  0.00    +0.121 C 
ATOM     19  C   UNL     1      -0.815   0.698  24.556  0.00  0.00    +0.033 C 
ATOM     20  C   UNL     1      -0.590   0.078  25.053  0.00  0.00    +0.038 C 
ATOM     21  C   UNL     1      -1.078  -0.582  25.136  0.00  0.00    +0.180 C 
ATOM     22  O   UNL     1      -0.853  -1.201  25.633  0.00  0.00    -0.220 OA
BRANCH   3   2
ATOM      1  N   UNL     1      -3.083  -1.188  24.945  0.00  0.00    -0.129 NA
ATOM      2  C   UNL     1      -2.277  -1.284  24.804  0.00  0.00    +0.141 C 
ENDBRANCH   3   2
ENDBRANCH   6   5
ENDBRANCH   7   6
BRANCH  10  11
ATOM     11  C   UNL     1      -4.112   2.921  24.026  0.00  0.00    +0.141 C 
BRANCH  11  12
ATOM     12  N   UNL     1      -4.661   2.800  24.629  0.00  0.00    -0.264 NA
ATOM     13  C   UNL     1      -5.116   2.112  24.641  0.00  0.00    +0.091 C 
ATOM     14  C   UNL     1      -5.665   1.990  25.246  0.00  0.00    +0.106 C 
ATOM     15  N   UNL     1      -5.758   2.557  25.837  0.00  0.00    -0.215 NA
ATOM     16  C   UNL     1      -5.303   3.245  25.825  0.00  0.00    +0.106 C 
ATOM     17  C   UNL     1      -4.755   3.366  25.222  0.00  0.00    +0.091 C 
ENDBRANCH  11  12
ENDBRANCH  10  11
TORSDOF 5
ENDMDL
