MODEL 1
REMARK VINA RESULT:     -10.2      0.000      0.000
REMARK  Name = 
REMARK  6 active torsions:
REMARK  status: ('A' for Active; 'I' for Inactive)
REMARK    1  A    between atoms: N_2  and  C_4
REMARK    2  A    between atoms: C_7  and  C_10
REMARK    3  A    between atoms: C_15  and  C_17
REMARK    4  A    between atoms: C_24  and  C_25
REMARK    5  A    between atoms: C_25  and  N_26
REMARK    6  A    between atoms: C_27  and  C_29
REMARK                            x       y       z     vdW  Elec       q    Type
REMARK                         _______ _______ _______ _____ _____    ______ ____
ROOT
ATOM     17  C   UNL     1      -0.559   2.558  24.281  0.00  0.00    +0.056 C 
ATOM     18  C   UNL     1      -0.550   2.392  23.521  0.00  0.00    +0.078 C 
ATOM     19  N   UNL     1      -0.066   2.056  24.099  0.00  0.00    -0.272 NA
ATOM     20  C   UNL     1      -0.328   2.494  25.015  0.00  0.00    +0.072 C 
ATOM     21  C   UNL     1      -0.247   2.552  25.660  0.00  0.00    +0.018 C 
ATOM     22  C   UNL     1      -0.081   2.224  24.842  0.00  0.00    +0.010 C 
ATOM     23  C   UNL     1       0.551   1.617  24.791  0.00  0.00    +0.018 C 
ATOM     24  C   UNL     1       0.592   1.425  24.053  0.00  0.00    +0.079 C 
ENDROOT
BRANCH  17  15
ATOM     10  C   UNL     1      -2.437   3.483  24.900  0.00  0.00    +0.084 A 
ATOM     11  N   UNL     1      -2.189   4.256  25.050  0.00  0.00    -0.231 NA
ATOM     12  C   UNL     1      -1.397   4.463  24.943  0.00  0.00    +0.139 A 
ATOM     13  C   UNL     1      -1.148   5.235  25.093  0.00  0.00    +0.074 C 
ATOM     14  N   UNL     1      -0.854   3.897  24.687  0.00  0.00    -0.235 NA
ATOM     15  C   UNL     1      -1.103   3.125  24.537  0.00  0.00    +0.063 A 
ATOM     16  C   UNL     1      -1.894   2.918  24.643  0.00  0.00    +0.034 A 
BRANCH  10   7
ATOM      4  C   UNL     1      -4.812   2.866  25.218  0.00  0.00    +0.048 A 
ATOM      5  C   UNL     1      -4.369   3.142  25.856  0.00  0.00    +0.015 A 
ATOM      6  C   UNL     1      -3.577   3.348  25.750  0.00  0.00    +0.003 A 
ATOM      7  C   UNL     1      -3.228   3.278  25.006  0.00  0.00    +0.018 A 
ATOM      8  C   UNL     1      -3.672   3.001  24.368  0.00  0.00    +0.003 A 
ATOM      9  C   UNL     1      -4.464   2.795  24.473  0.00  0.00    +0.015 A 
BRANCH   4   2
ATOM      1  C   UNL     1      -5.895   1.957  25.003  0.00  0.00    +0.112 C 
ATOM      2  N   UNL     1      -5.604   2.660  25.324  0.00  0.00    -0.304 N 
ATOM      3  C   UNL     1      -6.106   3.156  25.750  0.00  0.00    +0.112 C 
ENDBRANCH   4   2
ENDBRANCH  10   7
ENDBRANCH  17  15
BRANCH  24  25
ATOM     25  C   UNL     1       0.994   0.936  23.526  0.00  0.00    +0.131 C 
BRANCH  25  26
ATOM     26  N   UNL     1       1.819   0.927  23.517  0.00  0.00    -0.200 NA
ATOM     27  C   UNL     1       2.221   0.441  22.985  0.00  0.00    +0.265 C 
ATOM     28  O   UNL     1       1.798  -0.035  22.461  0.00  0.00    -0.268 OA
BRANCH  27  29
ATOM     29  C   UNL     1       3.045   0.433  22.977  0.00  0.00    +0.055 A 
ATOM     30  C   UNL     1       3.462   1.083  22.686  0.00  0.00    +0.005 A 
ATOM     31  C   UNL     1       4.287   1.074  22.677  0.00  0.00    +0.000 A 
ATOM     32  C   UNL     1       4.695   0.415  22.960  0.00  0.00    +0.000 A 
ATOM     33  C   UNL     1       4.279  -0.235  23.252  0.00  0.00    +0.000 A 
ATOM     34  C   UNL     1       3.455  -0.226  23.260  0.00  0.00    +0.005 A 
ENDBRANCH  27  29
ENDBRANCH  25  26
ENDBRANCH  24  25
TORSDOF 6
ENDMDL
MODEL 2
REMARK VINA RESULT:      -9.9      1.544      2.542
REMARK  Name = 
REMARK  6 active torsions:
REMARK  status: ('A' for Active; 'I' for Inactive)
REMARK    1  A    between atoms: N_2  and  C_4
REMARK    2  A    between atoms: C_7  and  C_10
REMARK    3  A    between atoms: C_15  and  C_17
REMARK    4  A    between atoms: C_24  and  C_25
REMARK    5  A    between atoms: C_25  and  N_26
REMARK    6  A    between atoms: C_27  and  C_29
REMARK                            x       y       z     vdW  Elec       q    Type
REMARK                         _______ _______ _______ _____ _____    ______ ____
ROOT
ATOM     17  C   UNL     1       0.130   0.381  24.010  0.00  0.00    +0.056 C 
ATOM     18  C   UNL     1       0.653   0.947  24.117  0.00  0.00    +0.078 C 
ATOM     19  N   UNL     1       0.705   0.331  23.569  0.00  0.00    -0.272 NA
ATOM     20  C   UNL     1      -0.157  -0.255  23.679  0.00  0.00    +0.072 C 
ATOM     21  C   UNL     1      -0.520  -0.769  23.505  0.00  0.00    +0.018 C 
ATOM     22  C   UNL     1       0.188  -0.220  23.470  0.00  0.00    +0.010 C 
ATOM     23  C   UNL     1       0.803  -0.420  22.877  0.00  0.00    +0.018 C 
ATOM     24  C   UNL     1       1.341   0.117  22.950  0.00  0.00    +0.079 C 
ENDROOT
BRANCH  17  15
ATOM     10  C   UNL     1      -1.775   1.006  24.874  0.00  0.00    +0.084 A 
ATOM     11  N   UNL     1      -1.888   0.420  25.444  0.00  0.00    -0.231 NA
ATOM     12  C   UNL     1      -1.328  -0.179  25.536  0.00  0.00    +0.139 A 
ATOM     13  C   UNL     1      -1.441  -0.765  26.106  0.00  0.00    +0.074 C 
ATOM     14  N   UNL     1      -0.656  -0.192  25.058  0.00  0.00    -0.235 NA
ATOM     15  C   UNL     1      -0.544   0.394  24.488  0.00  0.00    +0.063 A 
ATOM     16  C   UNL     1      -1.103   0.993  24.396  0.00  0.00    +0.034 A 
BRANCH  10   7
ATOM      4  C   UNL     1      -3.457   2.801  24.598  0.00  0.00    +0.048 A 
ATOM      5  C   UNL     1      -2.774   2.940  25.038  0.00  0.00    +0.015 A 
ATOM      6  C   UNL     1      -2.213   2.342  25.130  0.00  0.00    +0.003 A 
ATOM      7  C   UNL     1      -2.336   1.604  24.782  0.00  0.00    +0.018 A 
ATOM      8  C   UNL     1      -3.020   1.465  24.342  0.00  0.00    +0.003 A 
ATOM      9  C   UNL     1      -3.581   2.063  24.250  0.00  0.00    +0.015 A 
BRANCH   4   2
ATOM      1  C   UNL     1      -4.631   3.478  25.053  0.00  0.00    +0.112 C 
ATOM      2  N   UNL     1      -4.018   3.399  24.506  0.00  0.00    -0.304 N 
ATOM      3  C   UNL     1      -3.966   3.918  23.867  0.00  0.00    +0.112 C 
ENDBRANCH   4   2
ENDBRANCH  10   7
ENDBRANCH  17  15
BRANCH  24  25
ATOM     25  C   UNL     1       2.068   0.360  22.647  0.00  0.00    +0.131 C 
BRANCH  25  26
ATOM     26  N   UNL     1       2.766   0.154  23.034  0.00  0.00    -0.200 NA
ATOM     27  C   UNL     1       3.494   0.381  22.719  0.00  0.00    +0.265 C 
ATOM     28  O   UNL     1       3.524   0.814  22.018  0.00  0.00    -0.268 OA
BRANCH  27  29
ATOM     29  C   UNL     1       4.193   0.174  23.107  0.00  0.00    +0.055 A 
ATOM     30  C   UNL     1       4.776   0.743  23.237  0.00  0.00    +0.005 A 
ATOM     31  C   UNL     1       5.475   0.536  23.624  0.00  0.00    +0.000 A 
ATOM     32  C   UNL     1       5.590  -0.239  23.881  0.00  0.00    +0.000 A 
ATOM     33  C   UNL     1       5.007  -0.808  23.751  0.00  0.00    +0.000 A 
ATOM     34  C   UNL     1       4.309  -0.602  23.364  0.00  0.00    +0.005 A 
ENDBRANCH  27  29
ENDBRANCH  25  26
ENDBRANCH  24  25
TORSDOF 6
ENDMDL
MODEL 3
REMARK VINA RESULT:      -9.0      2.694      3.695
REMARK  Name = 
REMARK  6 active torsions:
REMARK  status: ('A' for Active; 'I' for Inactive)
REMARK    1  A    between atoms: N_2  and  C_4
REMARK    2  A    between atoms: C_7  and  C_10
REMARK    3  A    between atoms: C_15  and  C_17
REMARK    4  A    between atoms: C_24  and  C_25
REMARK    5  A    between atoms: C_25  and  N_26
REMARK    6  A    between atoms: C_27  and  C_29
REMARK                            x       y       z     vdW  Elec       q    Type
REMARK                         _______ _______ _______ _____ _____    ______ ____
ROOT
ATOM     17  C   UNL     1      -1.313   1.621  24.902  0.00  0.00    +0.056 C 
ATOM     18  C   UNL     1      -1.602   1.180  24.330  0.00  0.00    +0.078 C 
ATOM     19  N   UNL     1      -1.092   0.929  24.929  0.00  0.00    -0.272 NA
ATOM     20  C   UNL     1      -0.893   1.762  25.534  0.00  0.00    +0.072 C 
ATOM     21  C   UNL     1      -0.596   2.031  26.050  0.00  0.00    +0.018 C 
ATOM     22  C   UNL     1      -0.814   1.368  25.487  0.00  0.00    +0.010 C 
ATOM     23  C   UNL     1      -0.460   0.584  25.659  0.00  0.00    +0.018 C 
ATOM     24  C   UNL     1      -0.721   0.117  25.115  0.00  0.00    +0.079 C 
ENDROOT
BRANCH  17  15
ATOM     10  C   UNL     1      -2.546   3.416  25.052  0.00  0.00    +0.084 A 
ATOM     11  N   UNL     1      -1.980   4.005  24.938  0.00  0.00    -0.231 NA
ATOM     12  C   UNL     1      -1.190   3.800  24.813  0.00  0.00    +0.139 A 
ATOM     13  C   UNL     1      -0.623   4.388  24.700  0.00  0.00    +0.074 C 
ATOM     14  N   UNL     1      -0.968   3.005  24.801  0.00  0.00    -0.235 NA
ATOM     15  C   UNL     1      -1.536   2.417  24.914  0.00  0.00    +0.063 A 
ATOM     16  C   UNL     1      -2.324   2.622  25.039  0.00  0.00    +0.034 A 
BRANCH  10   7
ATOM      4  C   UNL     1      -4.912   4.037  25.429  0.00  0.00    +0.048 A 
ATOM      5  C   UNL     1      -4.649   3.859  24.668  0.00  0.00    +0.015 A 
ATOM      6  C   UNL     1      -3.860   3.652  24.542  0.00  0.00    +0.003 A 
ATOM      7  C   UNL     1      -3.335   3.623  25.177  0.00  0.00    +0.018 A 
ATOM      8  C   UNL     1      -3.598   3.801  25.939  0.00  0.00    +0.003 A 
ATOM      9  C   UNL     1      -4.387   4.007  26.065  0.00  0.00    +0.015 A 
BRANCH   4   2
ATOM      1  C   UNL     1      -5.935   5.033  25.504  0.00  0.00    +0.112 C 
ATOM      2  N   UNL     1      -5.701   4.243  25.555  0.00  0.00    -0.304 N 
ATOM      3  C   UNL     1      -6.257   3.660  25.733  0.00  0.00    +0.112 C 
ENDBRANCH   4   2
ENDBRANCH  10   7
ENDBRANCH  17  15
BRANCH  24  25
ATOM     25  C   UNL     1      -0.687  -0.663  24.850  0.00  0.00    +0.131 C 
BRANCH  25  26
ATOM     26  N   UNL     1      -1.383  -1.081  24.704  0.00  0.00    -0.200 NA
ATOM     27  C   UNL     1      -1.405  -1.898  24.819  0.00  0.00    +0.265 C 
ATOM     28  O   UNL     1      -0.732  -2.297  25.079  0.00  0.00    -0.268 OA
BRANCH  27  29
ATOM     29  C   UNL     1      -2.101  -2.315  24.673  0.00  0.00    +0.055 A 
ATOM     30  C   UNL     1      -2.132  -2.865  24.058  0.00  0.00    +0.005 A 
ATOM     31  C   UNL     1      -2.829  -3.282  23.912  0.00  0.00    +0.000 A 
ATOM     32  C   UNL     1      -3.494  -3.151  24.381  0.00  0.00    +0.000 A 
ATOM     33  C   UNL     1      -3.463  -2.601  24.996  0.00  0.00    +0.000 A 
ATOM     34  C   UNL     1      -2.768  -2.184  25.142  0.00  0.00    +0.005 A 
ENDBRANCH  27  29
ENDBRANCH  25  26
ENDBRANCH  24  25
TORSDOF 6
ENDMDL
