MODEL 1
REMARK VINA RESULT:     -12.2      0.000      0.000
REMARK  Name = 
REMARK  7 active torsions:
REMARK  status: ('A' for Active; 'I' for Inactive)
REMARK    1  A    between atoms: N_2  and  C_4
REMARK    2  A    between atoms: C_7  and  C_8
REMARK    3  A    between atoms: C_8  and  N_9
REMARK    4  A    between atoms: N_9  and  C_10
REMARK    5  A    between atoms: C_15  and  C_16
REMARK    6  A    between atoms: C_16  and  C_17
REMARK    7  A    between atoms: C_17  and  C_18
REMARK                            x       y       z     vdW  Elec       q    Type
REMARK                         _______ _______ _______ _____ _____    ______ ____
ROOT
ATOM     10  C   UNL     1      -4.761   1.306  24.909  0.00  0.00    +0.091 C 
ATOM     11  C   UNL     1      -5.384   1.596  25.366  0.00  0.00    +0.044 C 
ATOM     12  C   UNL     1      -5.265   2.406  25.473  0.00  0.00    +0.138 C 
ATOM     13  N   UNL     1      -4.570   2.616  25.082  0.00  0.00    -0.265 NA
ATOM     14  C   UNL     1      -4.258   1.935  24.734  0.00  0.00    +0.090 C 
ATOM     15  C   UNL     1      -4.310   3.398  25.094  0.00  0.00    +0.080 C 
ATOM     29  C   UNL     1      -4.745   3.972  25.496  0.00  0.00    +0.131 C 
ATOM     30  N   UNL     1      -5.441   3.763  25.887  0.00  0.00    -0.203 NA
ATOM     31  C   UNL     1      -5.702   2.980  25.875  0.00  0.00    +0.256 C 
ATOM     32  O   UNL     1      -6.397   2.770  26.265  0.00  0.00    -0.272 OA
ENDROOT
BRANCH  10   9
ATOM      9  N   UNL     1      -4.660   0.523  24.670  0.00  0.00    -0.213 NA
BRANCH   9   8
ATOM      8  C   UNL     1      -4.489  -0.060  25.229  0.00  0.00    +0.115 C 
BRANCH   8   7
ATOM      4  C   UNL     1      -3.120  -2.020  24.592  0.00  0.00    +0.048 A 
ATOM      5  C   UNL     1      -2.933  -1.590  25.270  0.00  0.00    +0.014 A 
ATOM      6  C   UNL     1      -3.389  -0.936  25.483  0.00  0.00    -0.002 A 
ATOM      7  C   UNL     1      -4.033  -0.713  25.017  0.00  0.00    -0.005 A 
ATOM     33  C   UNL     1      -4.219  -1.145  24.338  0.00  0.00    -0.002 A 
ATOM     34  C   UNL     1      -3.762  -1.798  24.126  0.00  0.00    +0.014 A 
BRANCH   4   2
ATOM      1  C   UNL     1      -1.843  -2.603  24.322  0.00  0.00    +0.112 C 
ATOM      2  N   UNL     1      -2.662  -2.675  24.379  0.00  0.00    -0.304 N 
ATOM      3  C   UNL     1      -3.027  -3.398  24.225  0.00  0.00    +0.112 C 
ENDBRANCH   4   2
ENDBRANCH   8   7
ENDBRANCH   9   8
ENDBRANCH  10   9
BRANCH  15  16
ATOM     16  C   UNL     1      -3.614   3.607  24.704  0.00  0.00    +0.027 C 
BRANCH  16  17
ATOM     17  C   UNL     1      -2.915   3.708  25.131  0.00  0.00    +0.087 C 
BRANCH  17  18
ATOM     18  C   UNL     1      -2.369   4.281  24.900  0.00  0.00    +0.229 C 
ATOM     19  O   UNL     1      -2.628   4.979  24.545  0.00  0.00    -0.275 OA
ATOM     20  N   UNL     1      -1.562   4.157  25.024  0.00  0.00    -0.259 N 
ATOM     21  C   UNL     1      -0.955   4.678  24.823  0.00  0.00    +0.103 C 
ATOM     22  C   UNL     1      -0.239   4.332  25.046  0.00  0.00    +0.049 C 
ATOM     23  C   UNL     1      -0.405   3.599  25.384  0.00  0.00    -0.007 A 
ATOM     24  C   UNL     1       0.083   3.015  25.703  0.00  0.00    -0.003 A 
ATOM     25  C   UNL     1      -0.246   2.323  26.008  0.00  0.00    -0.000 A 
ATOM     26  C   UNL     1      -1.063   2.215  25.994  0.00  0.00    +0.001 A 
ATOM     27  C   UNL     1      -1.552   2.798  25.676  0.00  0.00    +0.015 A 
ATOM     28  C   UNL     1      -1.222   3.490  25.371  0.00  0.00    +0.050 A 
ENDBRANCH  17  18
ENDBRANCH  16  17
ENDBRANCH  15  16
TORSDOF 7
ENDMDL
MODEL 2
REMARK VINA RESULT:     -11.5      2.184      5.841
REMARK  Name = 
REMARK  7 active torsions:
REMARK  status: ('A' for Active; 'I' for Inactive)
REMARK    1  A    between atoms: N_2  and  C_4
REMARK    2  A    between atoms: C_7  and  C_8
REMARK    3  A    between atoms: C_8  and  N_9
REMARK    4  A    between atoms: N_9  and  C_10
REMARK    5  A    between atoms: C_15  and  C_16
REMARK    6  A    between atoms: C_16  and  C_17
REMARK    7  A    between atoms: C_17  and  C_18
REMARK                            x       y       z     vdW  Elec       q    Type
REMARK                         _______ _______ _______ _____ _____    ______ ____
ROOT
ATOM     10  C   UNL     1      -1.223   2.031  25.038  0.00  0.00    +0.091 C 
ATOM     11  C   UNL     1      -0.567   2.148  24.552  0.00  0.00    +0.044 C 
ATOM     12  C   UNL     1      -0.238   1.409  24.384  0.00  0.00    +0.138 C 
ATOM     13  N   UNL     1      -0.691   0.836  24.767  0.00  0.00    -0.265 NA
ATOM     14  C   UNL     1      -1.300   1.221  25.172  0.00  0.00    +0.090 C 
ATOM     15  C   UNL     1      -0.491   0.039  24.698  0.00  0.00    +0.080 C 
ATOM     29  C   UNL     1       0.162  -0.185  24.246  0.00  0.00    +0.131 C 
ATOM     30  N   UNL     1       0.615   0.388  23.863  0.00  0.00    -0.203 NA
ATOM     31  C   UNL     1       0.415   1.186  23.932  0.00  0.00    +0.256 C 
ATOM     32  O   UNL     1       0.868   1.759  23.549  0.00  0.00    -0.272 OA
ENDROOT
BRANCH  10   9
ATOM      9  N   UNL     1      -1.715   2.620  25.339  0.00  0.00    -0.213 NA
BRANCH   9   8
ATOM      8  C   UNL     1      -2.194   3.057  24.829  0.00  0.00    +0.115 C 
BRANCH   8   7
ATOM      4  C   UNL     1      -4.573   3.440  25.390  0.00  0.00    +0.048 A 
ATOM      5  C   UNL     1      -3.982   3.738  25.880  0.00  0.00    +0.014 A 
ATOM      6  C   UNL     1      -3.188   3.610  25.694  0.00  0.00    -0.002 A 
ATOM      7  C   UNL     1      -2.987   3.185  25.016  0.00  0.00    -0.005 A 
ATOM     33  C   UNL     1      -3.580   2.887  24.525  0.00  0.00    -0.002 A 
ATOM     34  C   UNL     1      -4.373   3.015  24.712  0.00  0.00    +0.014 A 
BRANCH   4   2
ATOM      1  C   UNL     1      -5.834   2.941  25.840  0.00  0.00    +0.112 C 
ATOM      2  N   UNL     1      -5.368   3.567  25.577  0.00  0.00    -0.304 N 
ATOM      3  C   UNL     1      -5.692   4.322  25.501  0.00  0.00    +0.112 C 
ENDBRANCH   4   2
ENDBRANCH   8   7
ENDBRANCH   9   8
ENDBRANCH  10   9
BRANCH  15  16
ATOM     16  C   UNL     1      -0.944  -0.534  25.081  0.00  0.00    +0.027 C 
BRANCH  16  17
ATOM     17  C   UNL     1      -1.495  -0.977  24.656  0.00  0.00    +0.087 C 
BRANCH  17  18
ATOM     18  C   UNL     1      -1.623  -1.770  24.847  0.00  0.00    +0.229 C 
ATOM     19  O   UNL     1      -1.016  -2.217  25.183  0.00  0.00    -0.275 OA
ATOM     20  N   UNL     1      -2.358  -2.115  24.702  0.00  0.00    -0.259 N 
ATOM     21  C   UNL     1      -2.566  -2.897  24.863  0.00  0.00    +0.103 C 
ATOM     22  C   UNL     1      -3.351  -3.005  24.631  0.00  0.00    +0.049 C 
ATOM     23  C   UNL     1      -3.627  -2.290  24.327  0.00  0.00    -0.007 A 
ATOM     24  C   UNL     1      -4.358  -2.067  24.016  0.00  0.00    -0.003 A 
ATOM     25  C   UNL     1      -4.476  -1.296  23.749  0.00  0.00    -0.000 A 
ATOM     26  C   UNL     1      -3.862  -0.746  23.793  0.00  0.00    +0.001 A 
ATOM     27  C   UNL     1      -3.131  -0.968  24.104  0.00  0.00    +0.015 A 
ATOM     28  C   UNL     1      -3.013  -1.740  24.371  0.00  0.00    +0.050 A 
ENDBRANCH  17  18
ENDBRANCH  16  17
ENDBRANCH  15  16
TORSDOF 7
ENDMDL
MODEL 3
REMARK VINA RESULT:     -10.9      1.472      3.684
REMARK  Name = 
REMARK  7 active torsions:
REMARK  status: ('A' for Active; 'I' for Inactive)
REMARK    1  A    between atoms: N_2  and  C_4
REMARK    2  A    between atoms: C_7  and  C_8
REMARK    3  A    between atoms: C_8  and  N_9
REMARK    4  A    between atoms: N_9  and  C_10
REMARK    5  A    between atoms: C_15  and  C_16
REMARK    6  A    between atoms: C_16  and  C_17
REMARK    7  A    between atoms: C_17  and  C_18
REMARK                            x       y       z     vdW  Elec       q    Type
REMARK                         _______ _______ _______ _____ _____    ______ ____
ROOT
ATOM     10  C   UNL     1      -0.763   0.573  25.140  0.00  0.00    +0.091 C 
ATOM     11  C   UNL     1      -0.145   0.876  24.686  0.00  0.00    +0.044 C 
ATOM     12  C   UNL     1      -0.198   1.700  24.700  0.00  0.00    +0.138 C 
ATOM     13  N   UNL     1      -0.849   1.905  25.163  0.00  0.00    -0.265 NA
ATOM     14  C   UNL     1      -1.199   1.209  25.435  0.00  0.00    +0.090 C 
ATOM     15  C   UNL     1      -1.040   2.699  25.277  0.00  0.00    +0.080 C 
ATOM     29  C   UNL     1      -0.580   3.289  24.928  0.00  0.00    +0.131 C 
ATOM     30  N   UNL     1       0.072   3.084  24.465  0.00  0.00    -0.203 NA
ATOM     31  C   UNL     1       0.263   2.289  24.351  0.00  0.00    +0.256 C 
ATOM     32  O   UNL     1       0.914   2.084  23.888  0.00  0.00    -0.272 OA
ENDROOT
BRANCH  10   9
ATOM      9  N   UNL     1      -0.919  -0.225  25.275  0.00  0.00    -0.213 NA
BRANCH   9   8
ATOM      8  C   UNL     1      -1.595  -0.449  25.693  0.00  0.00    +0.115 C 
BRANCH   8   7
ATOM      4  C   UNL     1      -3.110  -2.170  24.764  0.00  0.00    +0.048 A 
ATOM      5  C   UNL     1      -2.309  -2.178  24.569  0.00  0.00    +0.014 A 
ATOM      6  C   UNL     1      -1.803  -1.604  24.878  0.00  0.00    -0.002 A 
ATOM      7  C   UNL     1      -2.100  -1.023  25.384  0.00  0.00    -0.005 A 
ATOM     33  C   UNL     1      -2.901  -1.016  25.578  0.00  0.00    -0.002 A 
ATOM     34  C   UNL     1      -3.406  -1.590  25.269  0.00  0.00    +0.014 A 
BRANCH   4   2
ATOM      1  C   UNL     1      -3.523  -3.535  24.669  0.00  0.00    +0.112 C 
ATOM      2  N   UNL     1      -3.616  -2.745  24.454  0.00  0.00    -0.304 N 
ATOM      3  C   UNL     1      -4.214  -2.527  23.929  0.00  0.00    +0.112 C 
ENDBRANCH   4   2
ENDBRANCH   8   7
ENDBRANCH   9   8
ENDBRANCH  10   9
BRANCH  15  16
ATOM     16  C   UNL     1      -1.691   2.905  25.740  0.00  0.00    +0.027 C 
BRANCH  16  17
ATOM     17  C   UNL     1      -2.397   3.134  25.380  0.00  0.00    +0.087 C 
BRANCH  17  18
ATOM     18  C   UNL     1      -2.917   3.638  25.776  0.00  0.00    +0.229 C 
ATOM     19  O   UNL     1      -2.623   4.229  26.271  0.00  0.00    -0.275 OA
ATOM     20  N   UNL     1      -3.732   3.551  25.676  0.00  0.00    -0.259 N 
ATOM     21  C   UNL     1      -4.316   4.011  26.033  0.00  0.00    +0.103 C 
ATOM     22  C   UNL     1      -5.050   3.733  25.780  0.00  0.00    +0.049 C 
ATOM     23  C   UNL     1      -4.920   3.102  25.266  0.00  0.00    -0.007 A 
ATOM     24  C   UNL     1      -5.438   2.614  24.848  0.00  0.00    -0.003 A 
ATOM     25  C   UNL     1      -5.141   2.014  24.366  0.00  0.00    -0.000 A 
ATOM     26  C   UNL     1      -4.327   1.901  24.302  0.00  0.00    +0.001 A 
ATOM     27  C   UNL     1      -3.808   2.388  24.720  0.00  0.00    +0.015 A 
ATOM     28  C   UNL     1      -4.105   2.989  25.202  0.00  0.00    +0.050 A 
ENDBRANCH  17  18
ENDBRANCH  16  17
ENDBRANCH  15  16
TORSDOF 7
ENDMDL
MODEL 4
REMARK VINA RESULT:     -10.6      1.394      3.923
REMARK  Name = 
REMARK  7 active torsions:
REMARK  status: ('A' for Active; 'I' for Inactive)
REMARK    1  A    between atoms: N_2  and  C_4
REMARK    2  A    between atoms: C_7  and  C_8
REMARK    3  A    between atoms: C_8  and  N_9
REMARK    4  A    between atoms: N_9  and  C_10
REMARK    5  A    between atoms: C_15  and  C_16
REMARK    6  A    between atoms: C_16  and  C_17
REMARK    7  A    between atoms: C_17  and  C_18
REMARK                            x       y       z     vdW  Elec       q    Type
REMARK                         _______ _______ _______ _____ _____    ______ ____
ROOT
ATOM     10  C   UNL     1      -0.788   2.696  25.497  0.00  0.00    +0.091 C 
ATOM     11  C   UNL     1      -0.456   3.380  25.178  0.00  0.00    +0.044 C 
ATOM     12  C   UNL     1      -1.020   3.981  25.220  0.00  0.00    +0.138 C 
ATOM     13  N   UNL     1      -1.700   3.668  25.566  0.00  0.00    -0.265 NA
ATOM     14  C   UNL     1      -1.556   2.873  25.737  0.00  0.00    +0.090 C 
ATOM     15  C   UNL     1      -2.362   4.146  25.681  0.00  0.00    +0.080 C 
ATOM     29  C   UNL     1      -2.344   4.938  25.450  0.00  0.00    +0.131 C 
ATOM     30  N   UNL     1      -1.664   5.251  25.104  0.00  0.00    -0.203 NA
ATOM     31  C   UNL     1      -1.002   4.773  24.989  0.00  0.00    +0.256 C 
ATOM     32  O   UNL     1      -0.321   5.086  24.643  0.00  0.00    -0.272 OA
ENDROOT
BRANCH  10   9
ATOM      9  N   UNL     1      -0.416   1.962  25.564  0.00  0.00    -0.213 NA
BRANCH   9   8
ATOM      8  C   UNL     1      -0.291   1.500  24.892  0.00  0.00    +0.115 C 
BRANCH   8   7
ATOM      4  C   UNL     1      -0.824  -0.916  24.936  0.00  0.00    +0.048 A 
ATOM      5  C   UNL     1      -0.558  -0.566  24.239  0.00  0.00    +0.014 A 
ATOM      6  C   UNL     1      -0.380   0.240  24.224  0.00  0.00    -0.002 A 
ATOM      7  C   UNL     1      -0.469   0.695  24.907  0.00  0.00    -0.005 A 
ATOM     33  C   UNL     1      -0.735   0.344  25.604  0.00  0.00    -0.002 A 
ATOM     34  C   UNL     1      -0.913  -0.462  25.619  0.00  0.00    +0.014 A 
BRANCH   4   2
ATOM      1  C   UNL     1      -0.465  -2.257  25.275  0.00  0.00    +0.112 C 
ATOM      2  N   UNL     1      -1.002  -1.723  24.951  0.00  0.00    -0.304 N 
ATOM      3  C   UNL     1      -1.718  -1.991  24.642  0.00  0.00    +0.112 C 
ENDBRANCH   4   2
ENDBRANCH   8   7
ENDBRANCH   9   8
ENDBRANCH  10   9
BRANCH  15  16
ATOM     16  C   UNL     1      -3.042   3.833  26.027  0.00  0.00    +0.027 C 
BRANCH  16  17
ATOM     17  C   UNL     1      -3.644   3.529  25.552  0.00  0.00    +0.087 C 
BRANCH  17  18
ATOM     18  C   UNL     1      -4.428   3.563  25.806  0.00  0.00    +0.229 C 
ATOM     19  O   UNL     1      -4.691   4.209  26.247  0.00  0.00    -0.275 OA
ATOM     20  N   UNL     1      -4.950   2.952  25.620  0.00  0.00    -0.259 N 
ATOM     21  C   UNL     1      -5.745   2.911  25.835  0.00  0.00    +0.103 C 
ATOM     22  C   UNL     1      -6.055   2.207  25.534  0.00  0.00    +0.049 C 
ATOM     23  C   UNL     1      -5.451   1.815  25.133  0.00  0.00    -0.007 A 
ATOM     24  C   UNL     1      -5.434   1.098  24.725  0.00  0.00    -0.003 A 
ATOM     25  C   UNL     1      -4.735   0.840  24.371  0.00  0.00    -0.000 A 
ATOM     26  C   UNL     1      -4.053   1.300  24.424  0.00  0.00    +0.001 A 
ATOM     27  C   UNL     1      -4.068   2.018  24.831  0.00  0.00    +0.015 A 
ATOM     28  C   UNL     1      -4.768   2.275  25.186  0.00  0.00    +0.050 A 
ENDBRANCH  17  18
ENDBRANCH  16  17
ENDBRANCH  15  16
TORSDOF 7
ENDMDL
