MODEL 1
REMARK VINA RESULT:     -12.3      0.000      0.000
REMARK  Name = 
REMARK  7 active torsions:
REMARK  status: ('A' for Active; 'I' for Inactive)
REMARK    1  A    between atoms: O_2  and  C_3
REMARK    2  A    between atoms: C_6  and  C_7
REMARK    3  A    between atoms: C_7  and  N_8
REMARK    4  A    between atoms: N_8  and  C_9
REMARK    5  A    between atoms: C_14  and  C_15
REMARK    6  A    between atoms: C_15  and  C_16
REMARK    7  A    between atoms: C_16  and  C_17
REMARK                            x       y       z     vdW  Elec       q    Type
REMARK                         _______ _______ _______ _____ _____    ______ ____
ROOT
ATOM      9  C   UNL     1      -4.706   1.113  24.913  0.00  0.00    +0.091 C 
ATOM     10  C   UNL     1      -5.327   1.361  25.396  0.00  0.00    +0.044 C 
ATOM     11  C   UNL     1      -5.248   2.174  25.516  0.00  0.00    +0.138 C 
ATOM     12  N   UNL     1      -4.579   2.428  25.106  0.00  0.00    -0.265 NA
ATOM     13  C   UNL     1      -4.244   1.772  24.734  0.00  0.00    +0.090 C 
ATOM     14  C   UNL     1      -4.360   3.223  25.126  0.00  0.00    +0.080 C 
ATOM     28  C   UNL     1      -4.811   3.765  25.554  0.00  0.00    +0.131 C 
ATOM     29  N   UNL     1      -5.481   3.511  25.964  0.00  0.00    -0.203 NA
ATOM     30  C   UNL     1      -5.700   2.715  25.945  0.00  0.00    +0.256 C 
ATOM     31  O   UNL     1      -6.369   2.462  26.354  0.00  0.00    -0.272 OA
ENDROOT
BRANCH   9   8
ATOM      8  N   UNL     1      -4.572   0.341  24.654  0.00  0.00    -0.213 NA
BRANCH   8   7
ATOM      7  C   UNL     1      -4.385  -0.249  25.199  0.00  0.00    +0.115 C 
BRANCH   7   6
ATOM      3  C   UNL     1      -3.059  -2.214  24.488  0.00  0.00    +0.139 A 
ATOM      4  C   UNL     1      -2.822  -1.773  25.143  0.00  0.00    +0.037 A 
ATOM      5  C   UNL     1      -3.264  -1.117  25.381  0.00  0.00    +0.000 A 
ATOM      6  C   UNL     1      -3.943  -0.904  24.962  0.00  0.00    -0.005 A 
ATOM     32  C   UNL     1      -4.179  -1.347  24.307  0.00  0.00    +0.000 A 
ATOM     33  C   UNL     1      -3.737  -2.001  24.070  0.00  0.00    +0.037 A 
BRANCH   3   2
ATOM      1  C   UNL     1      -1.793  -2.836  24.261  0.00  0.00    +0.252 C 
ATOM      2  O   UNL     1      -2.616  -2.870  24.251  0.00  0.00    -0.471 OA
ENDBRANCH   3   2
ENDBRANCH   7   6
ENDBRANCH   8   7
ENDBRANCH   9   8
BRANCH  14  15
ATOM     15  C   UNL     1      -3.691   3.476  24.716  0.00  0.00    +0.027 C 
BRANCH  15  16
ATOM     16  C   UNL     1      -2.990   3.626  25.124  0.00  0.00    +0.087 C 
BRANCH  16  17
ATOM     17  C   UNL     1      -2.484   4.227  24.870  0.00  0.00    +0.229 C 
ATOM     18  O   UNL     1      -2.791   4.891  24.489  0.00  0.00    -0.275 OA
ATOM     19  N   UNL     1      -1.671   4.163  24.996  0.00  0.00    -0.259 N 
ATOM     20  C   UNL     1      -1.101   4.716  24.773  0.00  0.00    +0.103 C 
ATOM     21  C   UNL     1      -0.363   4.429  25.006  0.00  0.00    +0.049 C 
ATOM     22  C   UNL     1      -0.477   3.699  25.373  0.00  0.00    -0.007 A 
ATOM     23  C   UNL     1       0.050   3.163  25.712  0.00  0.00    -0.003 A 
ATOM     24  C   UNL     1      -0.231   2.462  26.044  0.00  0.00    -0.000 A 
ATOM     25  C   UNL     1      -1.039   2.298  26.037  0.00  0.00    +0.001 A 
ATOM     26  C   UNL     1      -1.567   2.833  25.699  0.00  0.00    +0.015 A 
ATOM     27  C   UNL     1      -1.286   3.535  25.366  0.00  0.00    +0.050 A 
ENDBRANCH  16  17
ENDBRANCH  15  16
ENDBRANCH  14  15
TORSDOF 7
ENDMDL
MODEL 2
REMARK VINA RESULT:     -11.5      1.988      5.855
REMARK  Name = 
REMARK  7 active torsions:
REMARK  status: ('A' for Active; 'I' for Inactive)
REMARK    1  A    between atoms: O_2  and  C_3
REMARK    2  A    between atoms: C_6  and  C_7
REMARK    3  A    between atoms: C_7  and  N_8
REMARK    4  A    between atoms: N_8  and  C_9
REMARK    5  A    between atoms: C_14  and  C_15
REMARK    6  A    between atoms: C_15  and  C_16
REMARK    7  A    between atoms: C_16  and  C_17
REMARK                            x       y       z     vdW  Elec       q    Type
REMARK                         _______ _______ _______ _____ _____    ______ ____
ROOT
ATOM      9  C   UNL     1      -1.170   1.994  25.082  0.00  0.00    +0.091 C 
ATOM     10  C   UNL     1      -0.511   2.106  24.598  0.00  0.00    +0.044 C 
ATOM     11  C   UNL     1      -0.199   1.363  24.417  0.00  0.00    +0.138 C 
ATOM     12  N   UNL     1      -0.665   0.793  24.789  0.00  0.00    -0.265 NA
ATOM     13  C   UNL     1      -1.265   1.184  25.200  0.00  0.00    +0.090 C 
ATOM     14  C   UNL     1      -0.483  -0.007  24.706  0.00  0.00    +0.080 C 
ATOM     28  C   UNL     1       0.165  -0.238  24.251  0.00  0.00    +0.131 C 
ATOM     29  N   UNL     1       0.631   0.332  23.879  0.00  0.00    -0.203 NA
ATOM     30  C   UNL     1       0.449   1.133  23.962  0.00  0.00    +0.256 C 
ATOM     31  O   UNL     1       0.916   1.703  23.590  0.00  0.00    -0.272 OA
ENDROOT
BRANCH   9   8
ATOM      8  N   UNL     1      -1.649   2.589  25.393  0.00  0.00    -0.213 NA
BRANCH   8   7
ATOM      7  C   UNL     1      -2.081   3.077  24.887  0.00  0.00    +0.115 C 
BRANCH   7   6
ATOM      3  C   UNL     1      -4.406   3.703  25.459  0.00  0.00    +0.139 A 
ATOM      4  C   UNL     1      -3.787   3.917  25.959  0.00  0.00    +0.037 A 
ATOM      5  C   UNL     1      -3.011   3.709  25.769  0.00  0.00    +0.000 A 
ATOM      6  C   UNL     1      -2.856   3.286  25.078  0.00  0.00    -0.005 A 
ATOM     32  C   UNL     1      -3.476   3.072  24.578  0.00  0.00    +0.000 A 
ATOM     33  C   UNL     1      -4.251   3.280  24.768  0.00  0.00    +0.037 A 
BRANCH   3   2
ATOM      1  C   UNL     1      -5.768   3.333  25.683  0.00  0.00    +0.252 C 
ATOM      2  O   UNL     1      -5.182   3.912  25.650  0.00  0.00    -0.471 OA
ENDBRANCH   3   2
ENDBRANCH   7   6
ENDBRANCH   8   7
ENDBRANCH   9   8
BRANCH  14  15
ATOM     15  C   UNL     1      -0.950  -0.576  25.078  0.00  0.00    +0.027 C 
BRANCH  15  16
ATOM     16  C   UNL     1      -1.511  -0.997  24.645  0.00  0.00    +0.087 C 
BRANCH  16  17
ATOM     17  C   UNL     1      -1.659  -1.790  24.820  0.00  0.00    +0.229 C 
ATOM     18  O   UNL     1      -1.061  -2.261  25.137  0.00  0.00    -0.275 OA
ATOM     19  N   UNL     1      -2.406  -2.111  24.678  0.00  0.00    -0.259 N 
ATOM     20  C   UNL     1      -2.634  -2.890  24.824  0.00  0.00    +0.103 C 
ATOM     21  C   UNL     1      -3.424  -2.971  24.601  0.00  0.00    +0.049 C 
ATOM     22  C   UNL     1      -3.684  -2.242  24.317  0.00  0.00    -0.007 A 
ATOM     23  C   UNL     1      -4.413  -1.992  24.021  0.00  0.00    -0.003 A 
ATOM     24  C   UNL     1      -4.512  -1.213  23.773  0.00  0.00    -0.000 A 
ATOM     25  C   UNL     1      -3.883  -0.681  23.820  0.00  0.00    +0.001 A 
ATOM     26  C   UNL     1      -3.154  -0.930  24.116  0.00  0.00    +0.015 A 
ATOM     27  C   UNL     1      -3.055  -1.711  24.364  0.00  0.00    +0.050 A 
ENDBRANCH  16  17
ENDBRANCH  15  16
ENDBRANCH  14  15
TORSDOF 7
ENDMDL
MODEL 3
REMARK VINA RESULT:     -11.3      1.603      3.703
REMARK  Name = 
REMARK  7 active torsions:
REMARK  status: ('A' for Active; 'I' for Inactive)
REMARK    1  A    between atoms: O_2  and  C_3
REMARK    2  A    between atoms: C_6  and  C_7
REMARK    3  A    between atoms: C_7  and  N_8
REMARK    4  A    between atoms: N_8  and  C_9
REMARK    5  A    between atoms: C_14  and  C_15
REMARK    6  A    between atoms: C_15  and  C_16
REMARK    7  A    between atoms: C_16  and  C_17
REMARK                            x       y       z     vdW  Elec       q    Type
REMARK                         _______ _______ _______ _____ _____    ______ ____
ROOT
ATOM      9  C   UNL     1      -0.840   0.425  25.065  0.00  0.00    +0.091 C 
ATOM     10  C   UNL     1      -0.209   0.715  24.621  0.00  0.00    +0.044 C 
ATOM     11  C   UNL     1      -0.233   1.540  24.652  0.00  0.00    +0.138 C 
ATOM     12  N   UNL     1      -0.879   1.758  25.116  0.00  0.00    -0.265 NA
ATOM     13  C   UNL     1      -1.254   1.069  25.371  0.00  0.00    +0.090 C 
ATOM     14  C   UNL     1      -1.042   2.556  25.246  0.00  0.00    +0.080 C 
ATOM     28  C   UNL     1      -0.559   3.136  24.912  0.00  0.00    +0.131 C 
ATOM     29  N   UNL     1       0.087   2.918  24.448  0.00  0.00    -0.203 NA
ATOM     30  C   UNL     1       0.250   2.119  24.318  0.00  0.00    +0.256 C 
ATOM     31  O   UNL     1       0.896   1.901  23.854  0.00  0.00    -0.272 OA
ENDROOT
BRANCH   9   8
ATOM      8  N   UNL     1      -1.024  -0.371  25.183  0.00  0.00    -0.213 NA
BRANCH   8   7
ATOM      7  C   UNL     1      -1.692  -0.579  25.621  0.00  0.00    +0.115 C 
BRANCH   7   6
ATOM      3  C   UNL     1      -3.172  -2.398  24.831  0.00  0.00    +0.139 A 
ATOM      4  C   UNL     1      -2.374  -2.398  24.626  0.00  0.00    +0.037 A 
ATOM      5  C   UNL     1      -1.879  -1.792  24.889  0.00  0.00    +0.000 A 
ATOM      6  C   UNL     1      -2.185  -1.185  25.358  0.00  0.00    -0.005 A 
ATOM     32  C   UNL     1      -2.984  -1.186  25.563  0.00  0.00    +0.000 A 
ATOM     33  C   UNL     1      -3.477  -1.793  25.300  0.00  0.00    +0.037 A 
BRANCH   3   2
ATOM      1  C   UNL     1      -4.174  -2.876  23.932  0.00  0.00    +0.252 C 
ATOM      2  O   UNL     1      -3.666  -3.006  24.568  0.00  0.00    -0.471 OA
ENDBRANCH   3   2
ENDBRANCH   7   6
ENDBRANCH   8   7
ENDBRANCH   9   8
BRANCH  14  15
ATOM     15  C   UNL     1      -1.688   2.774  25.710  0.00  0.00    +0.027 C 
BRANCH  15  16
ATOM     16  C   UNL     1      -2.386   3.029  25.352  0.00  0.00    +0.087 C 
BRANCH  16  17
ATOM     17  C   UNL     1      -2.877   3.566  25.740  0.00  0.00    +0.229 C 
ATOM     18  O   UNL     1      -2.550   4.158  26.213  0.00  0.00    -0.275 OA
ATOM     19  N   UNL     1      -3.697   3.512  25.656  0.00  0.00    -0.259 N 
ATOM     20  C   UNL     1      -4.254   4.008  26.009  0.00  0.00    +0.103 C 
ATOM     21  C   UNL     1      -5.004   3.755  25.775  0.00  0.00    +0.049 C 
ATOM     22  C   UNL     1      -4.910   3.104  25.278  0.00  0.00    -0.007 A 
ATOM     23  C   UNL     1      -5.455   2.627  24.883  0.00  0.00    -0.003 A 
ATOM     24  C   UNL     1      -5.193   2.001  24.414  0.00  0.00    -0.000 A 
ATOM     25  C   UNL     1      -4.385   1.851  24.341  0.00  0.00    +0.001 A 
ATOM     26  C   UNL     1      -3.839   2.327  24.736  0.00  0.00    +0.015 A 
ATOM     27  C   UNL     1      -4.102   2.954  25.205  0.00  0.00    +0.050 A 
ENDBRANCH  16  17
ENDBRANCH  15  16
ENDBRANCH  14  15
TORSDOF 7
ENDMDL
MODEL 4
REMARK VINA RESULT:     -10.8      1.147      4.876
REMARK  Name = 
REMARK  7 active torsions:
REMARK  status: ('A' for Active; 'I' for Inactive)
REMARK    1  A    between atoms: O_2  and  C_3
REMARK    2  A    between atoms: C_6  and  C_7
REMARK    3  A    between atoms: C_7  and  N_8
REMARK    4  A    between atoms: N_8  and  C_9
REMARK    5  A    between atoms: C_14  and  C_15
REMARK    6  A    between atoms: C_15  and  C_16
REMARK    7  A    between atoms: C_16  and  C_17
REMARK                            x       y       z     vdW  Elec       q    Type
REMARK                         _______ _______ _______ _____ _____    ______ ____
ROOT
ATOM      9  C   UNL     1      -4.096   3.059  25.208  0.00  0.00    +0.091 C 
ATOM     10  C   UNL     1      -4.773   3.116  25.676  0.00  0.00    +0.044 C 
ATOM     11  C   UNL     1      -5.167   2.391  25.644  0.00  0.00    +0.138 C 
ATOM     12  N   UNL     1      -4.734   1.887  25.156  0.00  0.00    -0.265 NA
ATOM     13  C   UNL     1      -4.072   2.300  24.887  0.00  0.00    +0.090 C 
ATOM     14  C   UNL     1      -4.997   1.118  25.021  0.00  0.00    +0.080 C 
ATOM     28  C   UNL     1      -5.695   0.852  25.373  0.00  0.00    +0.131 C 
ATOM     29  N   UNL     1      -6.128   1.356  25.861  0.00  0.00    -0.203 NA
ATOM     30  C   UNL     1      -5.864   2.126  25.997  0.00  0.00    +0.256 C 
ATOM     31  O   UNL     1      -6.298   2.631  26.485  0.00  0.00    -0.272 OA
ENDROOT
BRANCH   9   8
ATOM      8  N   UNL     1      -3.541   3.656  25.083  0.00  0.00    -0.213 NA
BRANCH   8   7
ATOM      7  C   UNL     1      -2.922   3.763  25.618  0.00  0.00    +0.115 C 
BRANCH   7   6
ATOM      3  C   UNL     1      -0.822   4.843  24.880  0.00  0.00    +0.139 A 
ATOM      4  C   UNL     1      -1.482   5.304  25.055  0.00  0.00    +0.037 A 
ATOM      5  C   UNL     1      -2.183   4.944  25.302  0.00  0.00    +0.000 A 
ATOM      6  C   UNL     1      -2.222   4.123  25.372  0.00  0.00    -0.005 A 
ATOM     32  C   UNL     1      -1.561   3.663  25.196  0.00  0.00    +0.000 A 
ATOM     33  C   UNL     1      -0.861   4.023  24.950  0.00  0.00    +0.037 A 
BRANCH   3   2
ATOM      1  C   UNL     1       0.192   5.032  23.891  0.00  0.00    +0.252 C 
ATOM      2  O   UNL     1      -0.120   5.204  24.634  0.00  0.00    -0.471 OA
ENDBRANCH   3   2
ENDBRANCH   7   6
ENDBRANCH   8   7
ENDBRANCH   9   8
BRANCH  14  15
ATOM     15  C   UNL     1      -4.564   0.613  24.533  0.00  0.00    +0.027 C 
BRANCH  15  16
ATOM     16  C   UNL     1      -4.141  -0.015  24.860  0.00  0.00    +0.087 C 
BRANCH  16  17
ATOM     17  C   UNL     1      -4.119  -0.744  24.474  0.00  0.00    +0.229 C 
ATOM     18  O   UNL     1      -4.763  -0.990  24.020  0.00  0.00    -0.275 OA
ATOM     19  N   UNL     1      -3.454  -1.227  24.542  0.00  0.00    -0.259 N 
ATOM     20  C   UNL     1      -3.354  -1.966  24.190  0.00  0.00    +0.103 C 
ATOM     21  C   UNL     1      -2.609  -2.252  24.404  0.00  0.00    +0.049 C 
ATOM     22  C   UNL     1      -2.251  -1.689  24.888  0.00  0.00    -0.007 A 
ATOM     23  C   UNL     1      -1.516  -1.671  25.264  0.00  0.00    -0.003 A 
ATOM     24  C   UNL     1      -1.303  -1.021  25.723  0.00  0.00    -0.000 A 
ATOM     25  C   UNL     1      -1.824  -0.387  25.808  0.00  0.00    +0.001 A 
ATOM     26  C   UNL     1      -2.559  -0.404  25.434  0.00  0.00    +0.015 A 
ATOM     27  C   UNL     1      -2.772  -1.056  24.974  0.00  0.00    +0.050 A 
ENDBRANCH  16  17
ENDBRANCH  15  16
ENDBRANCH  14  15
TORSDOF 7
ENDMDL
MODEL 5
REMARK VINA RESULT:     -10.5      1.455      3.946
REMARK  Name = 
REMARK  7 active torsions:
REMARK  status: ('A' for Active; 'I' for Inactive)
REMARK    1  A    between atoms: O_2  and  C_3
REMARK    2  A    between atoms: C_6  and  C_7
REMARK    3  A    between atoms: C_7  and  N_8
REMARK    4  A    between atoms: N_8  and  C_9
REMARK    5  A    between atoms: C_14  and  C_15
REMARK    6  A    between atoms: C_15  and  C_16
REMARK    7  A    between atoms: C_16  and  C_17
REMARK                            x       y       z     vdW  Elec       q    Type
REMARK                         _______ _______ _______ _____ _____    ______ ____
ROOT
ATOM      9  C   UNL     1      -0.812   2.496  25.499  0.00  0.00    +0.091 C 
ATOM     10  C   UNL     1      -0.446   3.161  25.176  0.00  0.00    +0.044 C 
ATOM     11  C   UNL     1      -0.979   3.790  25.218  0.00  0.00    +0.138 C 
ATOM     12  N   UNL     1      -1.673   3.513  25.567  0.00  0.00    -0.265 NA
ATOM     13  C   UNL     1      -1.570   2.713  25.740  0.00  0.00    +0.090 C 
ATOM     14  C   UNL     1      -2.309   4.025  25.682  0.00  0.00    +0.080 C 
ATOM     28  C   UNL     1      -2.252   4.814  25.448  0.00  0.00    +0.131 C 
ATOM     29  N   UNL     1      -1.557   5.092  25.100  0.00  0.00    -0.203 NA
ATOM     30  C   UNL     1      -0.920   4.579  24.985  0.00  0.00    +0.256 C 
ATOM     31  O   UNL     1      -0.226   4.857  24.636  0.00  0.00    -0.272 OA
ENDROOT
BRANCH   9   8
ATOM      8  N   UNL     1      -0.478   1.744  25.567  0.00  0.00    -0.213 NA
BRANCH   8   7
ATOM      7  C   UNL     1      -0.380   1.274  24.896  0.00  0.00    +0.115 C 
BRANCH   7   6
ATOM      3  C   UNL     1      -0.854  -1.152  25.009  0.00  0.00    +0.139 A 
ATOM      4  C   UNL     1      -0.544  -0.825  24.319  0.00  0.00    +0.037 A 
ATOM      5  C   UNL     1      -0.385  -0.016  24.281  0.00  0.00    +0.000 A 
ATOM      6  C   UNL     1      -0.538   0.465  24.934  0.00  0.00    -0.005 A 
ATOM     32  C   UNL     1      -0.848   0.136  25.624  0.00  0.00    +0.000 A 
ATOM     33  C   UNL     1      -1.006  -0.672  25.661  0.00  0.00    +0.037 A 
BRANCH   3   2
ATOM      1  C   UNL     1      -1.680  -2.269  24.674  0.00  0.00    +0.252 C 
ATOM      2  O   UNL     1      -1.012  -1.963  25.046  0.00  0.00    -0.471 OA
ENDBRANCH   3   2
ENDBRANCH   7   6
ENDBRANCH   8   7
ENDBRANCH   9   8
BRANCH  14  15
ATOM     15  C   UNL     1      -3.004   3.748  26.030  0.00  0.00    +0.027 C 
BRANCH  15  16
ATOM     16  C   UNL     1      -3.619   3.466  25.558  0.00  0.00    +0.087 C 
BRANCH  16  17
ATOM     17  C   UNL     1      -4.400   3.537  25.813  0.00  0.00    +0.229 C 
ATOM     18  O   UNL     1      -4.633   4.196  26.251  0.00  0.00    -0.275 OA
ATOM     19  N   UNL     1      -4.949   2.949  25.629  0.00  0.00    -0.259 N 
ATOM     20  C   UNL     1      -5.745   2.945  25.844  0.00  0.00    +0.103 C 
ATOM     21  C   UNL     1      -6.087   2.255  25.546  0.00  0.00    +0.049 C 
ATOM     22  C   UNL     1      -5.501   1.834  25.146  0.00  0.00    -0.007 A 
ATOM     23  C   UNL     1      -5.516   1.115  24.742  0.00  0.00    -0.003 A 
ATOM     24  C   UNL     1      -4.830   0.825  24.389  0.00  0.00    -0.000 A 
ATOM     25  C   UNL     1      -4.127   1.254  24.440  0.00  0.00    +0.001 A 
ATOM     26  C   UNL     1      -4.111   1.973  24.844  0.00  0.00    +0.015 A 
ATOM     27  C   UNL     1      -4.798   2.263  25.198  0.00  0.00    +0.050 A 
ENDBRANCH  16  17
ENDBRANCH  15  16
ENDBRANCH  14  15
TORSDOF 7
ENDMDL
MODEL 6
REMARK VINA RESULT:     -10.4      1.707      4.336
REMARK  Name = 
REMARK  7 active torsions:
REMARK  status: ('A' for Active; 'I' for Inactive)
REMARK    1  A    between atoms: O_2  and  C_3
REMARK    2  A    between atoms: C_6  and  C_7
REMARK    3  A    between atoms: C_7  and  N_8
REMARK    4  A    between atoms: N_8  and  C_9
REMARK    5  A    between atoms: C_14  and  C_15
REMARK    6  A    between atoms: C_15  and  C_16
REMARK    7  A    between atoms: C_16  and  C_17
REMARK                            x       y       z     vdW  Elec       q    Type
REMARK                         _______ _______ _______ _____ _____    ______ ____
ROOT
ATOM      9  C   UNL     1      -3.944  -0.281  24.834  0.00  0.00    +0.091 C 
ATOM     10  C   UNL     1      -3.959  -1.049  25.137  0.00  0.00    +0.044 C 
ATOM     11  C   UNL     1      -3.225  -1.396  24.989  0.00  0.00    +0.138 C 
ATOM     12  N   UNL     1      -2.756  -0.842  24.595  0.00  0.00    -0.265 NA
ATOM     13  C   UNL     1      -3.201  -0.154  24.500  0.00  0.00    +0.090 C 
ATOM     14  C   UNL     1      -1.986  -1.037  24.375  0.00  0.00    +0.080 C 
ATOM     28  C   UNL     1      -1.684  -1.785  24.548  0.00  0.00    +0.131 C 
ATOM     29  N   UNL     1      -2.152  -2.338  24.941  0.00  0.00    -0.203 NA
ATOM     30  C   UNL     1      -2.923  -2.144  25.162  0.00  0.00    +0.256 C 
ATOM     31  O   UNL     1      -3.392  -2.697  25.556  0.00  0.00    -0.272 OA
ENDROOT
BRANCH   9   8
ATOM      8  N   UNL     1      -4.564   0.263  24.862  0.00  0.00    -0.213 NA
BRANCH   8   7
ATOM      7  C   UNL     1      -4.480   1.002  24.504  0.00  0.00    +0.115 C 
BRANCH   7   6
ATOM      3  C   UNL     1      -5.548   2.993  25.512  0.00  0.00    +0.139 A 
ATOM      4  C   UNL     1      -5.986   2.304  25.398  0.00  0.00    +0.037 A 
ATOM      5  C   UNL     1      -5.630   1.639  25.062  0.00  0.00    +0.000 A 
ATOM      6  C   UNL     1      -4.836   1.665  24.840  0.00  0.00    -0.005 A 
ATOM     32  C   UNL     1      -4.398   2.355  24.955  0.00  0.00    +0.000 A 
ATOM     33  C   UNL     1      -4.755   3.019  25.291  0.00  0.00    +0.037 A 
BRANCH   3   2
ATOM      1  C   UNL     1      -5.774   4.404  25.524  0.00  0.00    +0.252 C 
ATOM      2  O   UNL     1      -5.905   3.658  25.849  0.00  0.00    -0.471 OA
ENDBRANCH   3   2
ENDBRANCH   7   6
ENDBRANCH   8   7
ENDBRANCH   9   8
BRANCH  14  15
ATOM     15  C   UNL     1      -1.518  -0.484  23.981  0.00  0.00    +0.027 C 
BRANCH  15  16
ATOM     16  C   UNL     1      -0.937  -0.067  24.393  0.00  0.00    +0.087 C 
BRANCH  16  17
ATOM     17  C   UNL     1      -0.314   0.286  23.984  0.00  0.00    +0.229 C 
ATOM     18  O   UNL     1      -0.012  -0.071  23.304  0.00  0.00    -0.275 OA
ATOM     19  N   UNL     1       0.008   0.996  24.255  0.00  0.00    -0.259 N 
ATOM     20  C   UNL     1       0.629   1.411  23.905  0.00  0.00    +0.103 C 
ATOM     21  C   UNL     1       0.771   2.087  24.357  0.00  0.00    +0.049 C 
ATOM     22  C   UNL     1       0.237   2.089  24.986  0.00  0.00    -0.007 A 
ATOM     23  C   UNL     1       0.118   2.618  25.608  0.00  0.00    -0.003 A 
ATOM     24  C   UNL     1      -0.471   2.473  26.166  0.00  0.00    -0.000 A 
ATOM     25  C   UNL     1      -0.942   1.798  26.103  0.00  0.00    +0.001 A 
ATOM     26  C   UNL     1      -0.824   1.269  25.481  0.00  0.00    +0.015 A 
ATOM     27  C   UNL     1      -0.234   1.415  24.922  0.00  0.00    +0.050 A 
ENDBRANCH  16  17
ENDBRANCH  15  16
ENDBRANCH  14  15
TORSDOF 7
ENDMDL
MODEL 7
REMARK VINA RESULT:     -10.4      3.134      5.094
REMARK  Name = 
REMARK  7 active torsions:
REMARK  status: ('A' for Active; 'I' for Inactive)
REMARK    1  A    between atoms: O_2  and  C_3
REMARK    2  A    between atoms: C_6  and  C_7
REMARK    3  A    between atoms: C_7  and  N_8
REMARK    4  A    between atoms: N_8  and  C_9
REMARK    5  A    between atoms: C_14  and  C_15
REMARK    6  A    between atoms: C_15  and  C_16
REMARK    7  A    between atoms: C_16  and  C_17
REMARK                            x       y       z     vdW  Elec       q    Type
REMARK                         _______ _______ _______ _____ _____    ______ ____
ROOT
ATOM      9  C   UNL     1      -0.239  -0.577  24.117  0.00  0.00    +0.091 C 
ATOM     10  C   UNL     1      -0.668  -1.276  24.209  0.00  0.00    +0.044 C 
ATOM     11  C   UNL     1      -1.399  -1.085  24.542  0.00  0.00    +0.138 C 
ATOM     12  N   UNL     1      -1.422  -0.268  24.654  0.00  0.00    -0.265 NA
ATOM     13  C   UNL     1      -0.705   0.045  24.392  0.00  0.00    +0.090 C 
ATOM     14  C   UNL     1      -2.091   0.084  24.982  0.00  0.00    +0.080 C 
ATOM     28  C   UNL     1      -2.739  -0.380  25.196  0.00  0.00    +0.131 C 
ATOM     29  N   UNL     1      -2.716  -1.197  25.083  0.00  0.00    -0.203 NA
ATOM     30  C   UNL     1      -2.046  -1.550  24.756  0.00  0.00    +0.256 C 
ATOM     31  O   UNL     1      -2.023  -2.366  24.643  0.00  0.00    -0.272 OA
ENDROOT
BRANCH   9   8
ATOM      8  N   UNL     1       0.521  -0.513  23.804  0.00  0.00    -0.213 NA
BRANCH   8   7
ATOM      7  C   UNL     1       0.672   0.021  23.193  0.00  0.00    +0.115 C 
BRANCH   7   6
ATOM      3  C   UNL     1       3.004   0.509  22.525  0.00  0.00    +0.139 A 
ATOM      4  C   UNL     1       2.650   0.942  23.130  0.00  0.00    +0.037 A 
ATOM      5  C   UNL     1       1.872   0.780  23.353  0.00  0.00    +0.000 A 
ATOM      6  C   UNL     1       1.450   0.184  22.970  0.00  0.00    -0.005 A 
ATOM     32  C   UNL     1       1.805  -0.250  22.365  0.00  0.00    +0.000 A 
ATOM     33  C   UNL     1       2.583  -0.087  22.142  0.00  0.00    +0.037 A 
BRANCH   3   2
ATOM      1  C   UNL     1       4.390   0.621  22.858  0.00  0.00    +0.252 C 
ATOM      2  O   UNL     1       3.783   0.672  22.302  0.00  0.00    -0.471 OA
ENDBRANCH   3   2
ENDBRANCH   7   6
ENDBRANCH   8   7
ENDBRANCH   9   8
BRANCH  14  15
ATOM     15  C   UNL     1      -2.114   0.901  25.094  0.00  0.00    +0.027 C 
BRANCH  15  16
ATOM     16  C   UNL     1      -2.819   1.314  24.981  0.00  0.00    +0.087 C 
BRANCH  16  17
ATOM     17  C   UNL     1      -2.817   2.139  24.970  0.00  0.00    +0.229 C 
ATOM     18  O   UNL     1      -2.102   2.550  24.943  0.00  0.00    -0.275 OA
ATOM     19  N   UNL     1      -3.530   2.554  24.986  0.00  0.00    -0.259 N 
ATOM     20  C   UNL     1      -3.614   3.374  24.978  0.00  0.00    +0.103 C 
ATOM     21  C   UNL     1      -4.421   3.548  25.000  0.00  0.00    +0.049 C 
ATOM     22  C   UNL     1      -4.834   2.835  25.021  0.00  0.00    -0.007 A 
ATOM     23  C   UNL     1      -5.641   2.665  25.048  0.00  0.00    -0.003 A 
ATOM     24  C   UNL     1      -5.898   1.882  25.065  0.00  0.00    -0.000 A 
ATOM     25  C   UNL     1      -5.348   1.268  25.057  0.00  0.00    +0.001 A 
ATOM     26  C   UNL     1      -4.541   1.436  25.030  0.00  0.00    +0.015 A 
ATOM     27  C   UNL     1      -4.284   2.221  25.013  0.00  0.00    +0.050 A 
ENDBRANCH  16  17
ENDBRANCH  15  16
ENDBRANCH  14  15
TORSDOF 7
ENDMDL
