MODEL 1
REMARK VINA RESULT:      -8.8      0.000      0.000
REMARK  Name = 
REMARK  7 active torsions:
REMARK  status: ('A' for Active; 'I' for Inactive)
REMARK    1  A    between atoms: O_2  and  C_3
REMARK    2  A    between atoms: C_3  and  C_4
REMARK    3  A    between atoms: N_8  and  C_9
REMARK    4  A    between atoms: C_9  and  C_10
REMARK    5  A    between atoms: C_17  and  C_18
REMARK    6  A    between atoms: C_18  and  N_19
REMARK    7  A    between atoms: N_22  and  C_23
REMARK                            x       y       z     vdW  Elec       q    Type
REMARK                         _______ _______ _______ _____ _____    ______ ____
ROOT
ATOM     10  C   UNL     1      -3.225   2.388  24.255  0.00  0.00    +0.032 C 
ATOM     11  C   UNL     1      -3.447   2.035  24.912  0.00  0.00    +0.073 C 
ATOM     12  N   UNL     1      -3.416   1.694  24.161  0.00  0.00    -0.272 NA
ATOM     13  C   UNL     1      -3.078   2.433  23.499  0.00  0.00    +0.072 C 
ATOM     14  C   UNL     1      -2.914   2.624  22.896  0.00  0.00    +0.017 C 
ATOM     15  C   UNL     1      -3.197   2.047  23.522  0.00  0.00    +0.005 C 
ATOM     16  C   UNL     1      -3.390   1.238  23.242  0.00  0.00    +0.018 C 
ATOM     17  C   UNL     1      -3.614   0.854  23.863  0.00  0.00    +0.079 C 
ENDROOT
BRANCH  10   9
ATOM      9  C   UNL     1      -2.998   3.181  24.311  0.00  0.00    +0.073 C 
BRANCH   9   8
ATOM      4  C   UNL     1      -2.521   4.107  25.348  0.00  0.00    +0.087 C 
ATOM      5  C   UNL     1      -2.815   4.376  26.070  0.00  0.00    +0.020 C 
ATOM      6  C   UNL     1      -3.545   4.016  26.198  0.00  0.00    +0.019 C 
ATOM      7  C   UNL     1      -3.704   3.524  25.555  0.00  0.00    +0.072 C 
ATOM      8  N   UNL     1      -3.070   3.580  25.029  0.00  0.00    -0.272 NA
BRANCH   4   3
ATOM      3  C   UNL     1      -1.803   4.326  25.005  0.00  0.00    +0.158 C 
BRANCH   3   2
ATOM      1  C   UNL     1      -0.718   5.249  24.890  0.00  0.00    +0.174 C 
ATOM      2  O   UNL     1      -1.411   5.003  25.264  0.00  0.00    -0.350 OA
ENDBRANCH   3   2
ENDBRANCH   4   3
ENDBRANCH   9   8
ENDBRANCH  10   9
BRANCH  17  18
ATOM     18  C   UNL     1      -3.880   0.115  24.115  0.00  0.00    +0.133 C 
BRANCH  18  19
ATOM     19  N   UNL     1      -3.378  -0.538  24.075  0.00  0.00    -0.186 NA
ATOM     20  C   UNL     1      -3.636  -1.274  24.345  0.00  0.00    +0.339 C 
ATOM     21  O   UNL     1      -4.396  -1.356  24.656  0.00  0.00    -0.249 OA
ATOM     22  N   UNL     1      -3.134  -1.927  24.305  0.00  0.00    -0.189 NA
BRANCH  22  23
ATOM     23  C   UNL     1      -3.393  -2.663  24.576  0.00  0.00    +0.097 C 
ATOM     24  C   UNL     1      -3.775  -3.181  24.060  0.00  0.00    +0.023 C 
ATOM     25  C   UNL     1      -3.268  -2.881  25.362  0.00  0.00    +0.023 C 
ENDBRANCH  22  23
ENDBRANCH  18  19
ENDBRANCH  17  18
TORSDOF 7
ENDMDL
MODEL 2
REMARK VINA RESULT:      -8.4      1.139      5.330
REMARK  Name = 
REMARK  7 active torsions:
REMARK  status: ('A' for Active; 'I' for Inactive)
REMARK    1  A    between atoms: O_2  and  C_3
REMARK    2  A    between atoms: C_3  and  C_4
REMARK    3  A    between atoms: N_8  and  C_9
REMARK    4  A    between atoms: C_9  and  C_10
REMARK    5  A    between atoms: C_17  and  C_18
REMARK    6  A    between atoms: C_18  and  N_19
REMARK    7  A    between atoms: N_22  and  C_23
REMARK                            x       y       z     vdW  Elec       q    Type
REMARK                         _______ _______ _______ _____ _____    ______ ____
ROOT
ATOM     10  C   UNL     1      -4.026   0.656  24.845  0.00  0.00    +0.032 C 
ATOM     11  C   UNL     1      -3.286   0.798  24.651  0.00  0.00    +0.073 C 
ATOM     12  N   UNL     1      -3.889   1.358  24.717  0.00  0.00    -0.272 NA
ATOM     13  C   UNL     1      -4.760   0.844  24.992  0.00  0.00    +0.072 C 
ATOM     14  C   UNL     1      -5.396   0.844  25.142  0.00  0.00    +0.017 C 
ATOM     15  C   UNL     1      -4.612   1.211  24.907  0.00  0.00    +0.005 C 
ATOM     16  C   UNL     1      -4.613   2.081  24.789  0.00  0.00    +0.018 C 
ATOM     17  C   UNL     1      -3.897   2.262  24.596  0.00  0.00    +0.079 C 
ENDROOT
BRANCH  10   9
ATOM      9  C   UNL     1      -4.232  -0.129  25.001  0.00  0.00    +0.073 C 
BRANCH   9   8
ATOM      4  C   UNL     1      -3.582  -1.438  24.845  0.00  0.00    +0.087 C 
ATOM      5  C   UNL     1      -2.917  -1.801  25.171  0.00  0.00    +0.020 C 
ATOM      6  C   UNL     1      -2.569  -1.272  25.698  0.00  0.00    +0.019 C 
ATOM      7  C   UNL     1      -3.019  -0.580  25.699  0.00  0.00    +0.072 C 
ATOM      8  N   UNL     1      -3.646  -0.683  25.172  0.00  0.00    -0.272 NA
BRANCH   4   3
ATOM      3  C   UNL     1      -4.094  -1.771  24.291  0.00  0.00    +0.158 C 
BRANCH   3   2
ATOM      1  C   UNL     1      -4.478  -2.876  23.469  0.00  0.00    +0.174 C 
ATOM      2  O   UNL     1      -3.998  -2.557  24.061  0.00  0.00    -0.350 OA
ENDBRANCH   3   2
ENDBRANCH   4   3
ENDBRANCH   9   8
ENDBRANCH  10   9
BRANCH  17  18
ATOM     18  C   UNL     1      -3.416   2.901  24.395  0.00  0.00    +0.133 C 
BRANCH  18  19
ATOM     19  N   UNL     1      -3.029   3.327  24.986  0.00  0.00    -0.186 NA
ATOM     20  C   UNL     1      -2.422   3.849  24.789  0.00  0.00    +0.339 C 
ATOM     21  O   UNL     1      -2.202   3.945  24.000  0.00  0.00    -0.249 OA
ATOM     22  N   UNL     1      -2.035   4.275  25.380  0.00  0.00    -0.189 NA
BRANCH  22  23
ATOM     23  C   UNL     1      -1.428   4.797  25.182  0.00  0.00    +0.097 C 
ATOM     24  C   UNL     1      -0.660   4.515  25.071  0.00  0.00    +0.023 C 
ATOM     25  C   UNL     1      -1.587   5.602  25.094  0.00  0.00    +0.023 C 
ENDBRANCH  22  23
ENDBRANCH  18  19
ENDBRANCH  17  18
TORSDOF 7
ENDMDL
MODEL 3
REMARK VINA RESULT:      -8.0      1.761      5.570
REMARK  Name = 
REMARK  7 active torsions:
REMARK  status: ('A' for Active; 'I' for Inactive)
REMARK    1  A    between atoms: O_2  and  C_3
REMARK    2  A    between atoms: C_3  and  C_4
REMARK    3  A    between atoms: N_8  and  C_9
REMARK    4  A    between atoms: C_9  and  C_10
REMARK    5  A    between atoms: C_17  and  C_18
REMARK    6  A    between atoms: C_18  and  N_19
REMARK    7  A    between atoms: N_22  and  C_23
REMARK                            x       y       z     vdW  Elec       q    Type
REMARK                         _______ _______ _______ _____ _____    ______ ____
ROOT
ATOM     10  C   UNL     1      -2.105   0.025  25.000  0.00  0.00    +0.032 C 
ATOM     11  C   UNL     1      -2.388   0.562  24.514  0.00  0.00    +0.073 C 
ATOM     12  N   UNL     1      -1.699   0.626  24.965  0.00  0.00    -0.272 NA
ATOM     13  C   UNL     1      -1.602  -0.264  25.510  0.00  0.00    +0.072 C 
ATOM     14  C   UNL     1      -1.277  -0.636  25.937  0.00  0.00    +0.017 C 
ATOM     15  C   UNL     1      -1.429   0.095  25.440  0.00  0.00    +0.005 C 
ATOM     16  C   UNL     1      -0.838   0.740  25.511  0.00  0.00    +0.018 C 
ATOM     17  C   UNL     1      -1.081   1.293  25.044  0.00  0.00    +0.079 C 
ENDROOT
BRANCH  10   9
ATOM      9  C   UNL     1      -2.533  -0.679  25.075  0.00  0.00    +0.073 C 
BRANCH   9   8
ATOM      4  C   UNL     1      -3.632  -1.447  24.474  0.00  0.00    +0.087 C 
ATOM      5  C   UNL     1      -4.374  -1.259  24.166  0.00  0.00    +0.020 C 
ATOM      6  C   UNL     1      -4.479  -0.445  24.231  0.00  0.00    +0.019 C 
ATOM      7  C   UNL     1      -3.802  -0.127  24.580  0.00  0.00    +0.072 C 
ATOM      8  N   UNL     1      -3.278  -0.746  24.730  0.00  0.00    -0.272 NA
BRANCH   4   3
ATOM      3  C   UNL     1      -3.301  -2.201  24.518  0.00  0.00    +0.158 C 
BRANCH   3   2
ATOM      1  C   UNL     1      -3.402  -3.610  24.301  0.00  0.00    +0.174 C 
ATOM      2  O   UNL     1      -3.746  -2.860  24.301  0.00  0.00    -0.350 OA
ENDBRANCH   3   2
ENDBRANCH   4   3
ENDBRANCH   9   8
ENDBRANCH  10   9
BRANCH  17  18
ATOM     18  C   UNL     1      -0.894   2.048  24.772  0.00  0.00    +0.133 C 
BRANCH  18  19
ATOM     19  N   UNL     1      -0.989   2.700  25.268  0.00  0.00    -0.186 NA
ATOM     20  C   UNL     1      -1.039   3.459  24.948  0.00  0.00    +0.339 C 
ATOM     21  O   UNL     1      -0.994   3.566  24.131  0.00  0.00    -0.249 OA
ATOM     22  N   UNL     1      -1.135   4.111  25.444  0.00  0.00    -0.189 NA
BRANCH  22  23
ATOM     23  C   UNL     1      -1.185   4.870  25.124  0.00  0.00    +0.097 C 
ATOM     24  C   UNL     1      -0.520   5.217  24.779  0.00  0.00    +0.023 C 
ATOM     25  C   UNL     1      -1.899   5.282  25.147  0.00  0.00    +0.023 C 
ENDBRANCH  22  23
ENDBRANCH  18  19
ENDBRANCH  17  18
TORSDOF 7
ENDMDL
MODEL 4
REMARK VINA RESULT:      -7.8      2.927      4.731
REMARK  Name = 
REMARK  7 active torsions:
REMARK  status: ('A' for Active; 'I' for Inactive)
REMARK    1  A    between atoms: O_2  and  C_3
REMARK    2  A    between atoms: C_3  and  C_4
REMARK    3  A    between atoms: N_8  and  C_9
REMARK    4  A    between atoms: C_9  and  C_10
REMARK    5  A    between atoms: C_17  and  C_18
REMARK    6  A    between atoms: C_18  and  N_19
REMARK    7  A    between atoms: N_22  and  C_23
REMARK                            x       y       z     vdW  Elec       q    Type
REMARK                         _______ _______ _______ _____ _____    ______ ____
ROOT
ATOM     10  C   UNL     1      -0.839   1.646  24.676  0.00  0.00    +0.032 C 
ATOM     11  C   UNL     1      -1.495   1.411  24.329  0.00  0.00    +0.073 C 
ATOM     12  N   UNL     1      -1.381   2.128  24.723  0.00  0.00    -0.272 NA
ATOM     13  C   UNL     1      -0.394   2.135  25.074  0.00  0.00    +0.072 C 
ATOM     14  C   UNL     1       0.094   2.431  25.392  0.00  0.00    +0.017 C 
ATOM     15  C   UNL     1      -0.735   2.351  25.060  0.00  0.00    +0.005 C 
ATOM     16  C   UNL     1      -1.275   3.028  25.204  0.00  0.00    +0.018 C 
ATOM     17  C   UNL     1      -1.937   2.836  24.875  0.00  0.00    +0.079 C 
ENDROOT
BRANCH  10   9
ATOM      9  C   UNL     1      -0.193   1.131  24.650  0.00  0.00    +0.073 C 
BRANCH   9   8
ATOM      4  C   UNL     1       0.116  -0.106  23.920  0.00  0.00    +0.087 C 
ATOM      5  C   UNL     1      -0.181  -0.876  23.925  0.00  0.00    +0.020 C 
ATOM      6  C   UNL     1      -0.789  -0.912  24.480  0.00  0.00    +0.019 C 
ATOM      7  C   UNL     1      -0.868  -0.164  24.821  0.00  0.00    +0.072 C 
ATOM      8  N   UNL     1      -0.309   0.334  24.474  0.00  0.00    -0.272 NA
BRANCH   4   3
ATOM      3  C   UNL     1       0.730   0.174  23.445  0.00  0.00    +0.158 C 
BRANCH   3   2
ATOM      1  C   UNL     1       1.752  -0.066  22.476  0.00  0.00    +0.174 C 
ATOM      2  O   UNL     1       1.110  -0.335  22.920  0.00  0.00    -0.350 OA
ENDBRANCH   3   2
ENDBRANCH   4   3
ENDBRANCH   9   8
ENDBRANCH  10   9
BRANCH  17  18
ATOM     18  C   UNL     1      -2.703   3.108  24.739  0.00  0.00    +0.133 C 
BRANCH  18  19
ATOM     19  N   UNL     1      -3.265   3.076  25.343  0.00  0.00    -0.186 NA
ATOM     20  C   UNL     1      -4.066   3.161  25.166  0.00  0.00    +0.339 C 
ATOM     21  O   UNL     1      -4.306   3.277  24.385  0.00  0.00    -0.249 OA
ATOM     22  N   UNL     1      -4.627   3.129  25.770  0.00  0.00    -0.189 NA
BRANCH  22  23
ATOM     23  C   UNL     1      -5.429   3.214  25.592  0.00  0.00    +0.097 C 
ATOM     24  C   UNL     1      -5.779   3.960  25.612  0.00  0.00    +0.023 C 
ATOM     25  C   UNL     1      -5.880   2.552  25.395  0.00  0.00    +0.023 C 
ENDBRANCH  22  23
ENDBRANCH  18  19
ENDBRANCH  17  18
TORSDOF 7
ENDMDL
MODEL 5
REMARK VINA RESULT:      -7.4      3.017      3.928
REMARK  Name = 
REMARK  7 active torsions:
REMARK  status: ('A' for Active; 'I' for Inactive)
REMARK    1  A    between atoms: O_2  and  C_3
REMARK    2  A    between atoms: C_3  and  C_4
REMARK    3  A    between atoms: N_8  and  C_9
REMARK    4  A    between atoms: C_9  and  C_10
REMARK    5  A    between atoms: C_17  and  C_18
REMARK    6  A    between atoms: C_18  and  N_19
REMARK    7  A    between atoms: N_22  and  C_23
REMARK                            x       y       z     vdW  Elec       q    Type
REMARK                         _______ _______ _______ _____ _____    ______ ____
ROOT
ATOM     10  C   UNL     1      -2.891   0.952  24.542  0.00  0.00    +0.032 C 
ATOM     11  C   UNL     1      -2.427   1.543  24.340  0.00  0.00    +0.073 C 
ATOM     12  N   UNL     1      -2.195   0.760  24.461  0.00  0.00    -0.272 NA
ATOM     13  C   UNL     1      -3.054   0.219  24.721  0.00  0.00    +0.072 C 
ATOM     14  C   UNL     1      -3.343  -0.343  24.886  0.00  0.00    +0.017 C 
ATOM     15  C   UNL     1      -2.656   0.186  24.658  0.00  0.00    +0.005 C 
ATOM     16  C   UNL     1      -1.872  -0.203  24.602  0.00  0.00    +0.018 C 
ATOM     17  C   UNL     1      -1.382   0.349  24.404  0.00  0.00    +0.079 C 
ENDROOT
BRANCH  10   9
ATOM      9  C   UNL     1      -3.693   1.121  24.647  0.00  0.00    +0.073 C 
BRANCH   9   8
ATOM      4  C   UNL     1      -4.645   2.229  24.809  0.00  0.00    +0.087 C 
ATOM      5  C   UNL     1      -4.733   2.976  24.470  0.00  0.00    +0.020 C 
ATOM      6  C   UNL     1      -4.128   3.081  23.921  0.00  0.00    +0.019 C 
ATOM      7  C   UNL     1      -3.664   2.398  23.920  0.00  0.00    +0.072 C 
ATOM      8  N   UNL     1      -3.983   1.871  24.469  0.00  0.00    -0.272 NA
BRANCH   4   3
ATOM      3  C   UNL     1      -5.132   1.898  25.386  0.00  0.00    +0.158 C 
BRANCH   3   2
ATOM      1  C   UNL     1      -6.239   2.008  26.283  0.00  0.00    +0.174 C 
ATOM      2  O   UNL     1      -5.777   2.321  25.675  0.00  0.00    -0.350 OA
ENDBRANCH   3   2
ENDBRANCH   4   3
ENDBRANCH   9   8
ENDBRANCH  10   9
BRANCH  17  18
ATOM     18  C   UNL     1      -0.587   0.489  24.237  0.00  0.00    +0.133 C 
BRANCH  18  19
ATOM     19  N   UNL     1      -0.147  -0.074  23.825  0.00  0.00    -0.186 NA
ATOM     20  C   UNL     1       0.534   0.151  23.418  0.00  0.00    +0.339 C 
ATOM     21  O   UNL     1       0.774   0.941  23.422  0.00  0.00    -0.249 OA
ATOM     22  N   UNL     1       0.974  -0.412  23.006  0.00  0.00    -0.189 NA
BRANCH  22  23
ATOM     23  C   UNL     1       1.655  -0.185  22.598  0.00  0.00    +0.097 C 
ATOM     24  C   UNL     1       1.664  -0.195  21.773  0.00  0.00    +0.023 C 
ATOM     25  C   UNL     1       2.327   0.050  23.015  0.00  0.00    +0.023 C 
ENDBRANCH  22  23
ENDBRANCH  18  19
ENDBRANCH  17  18
TORSDOF 7
ENDMDL
MODEL 6
REMARK VINA RESULT:      -7.3      3.009      4.205
REMARK  Name = 
REMARK  7 active torsions:
REMARK  status: ('A' for Active; 'I' for Inactive)
REMARK    1  A    between atoms: O_2  and  C_3
REMARK    2  A    between atoms: C_3  and  C_4
REMARK    3  A    between atoms: N_8  and  C_9
REMARK    4  A    between atoms: C_9  and  C_10
REMARK    5  A    between atoms: C_17  and  C_18
REMARK    6  A    between atoms: C_18  and  N_19
REMARK    7  A    between atoms: N_22  and  C_23
REMARK                            x       y       z     vdW  Elec       q    Type
REMARK                         _______ _______ _______ _____ _____    ______ ____
ROOT
ATOM     10  C   UNL     1      -1.465   0.197  24.361  0.00  0.00    +0.032 C 
ATOM     11  C   UNL     1      -1.729   0.890  24.126  0.00  0.00    +0.073 C 
ATOM     12  N   UNL     1      -2.189   0.255  24.383  0.00  0.00    -0.272 NA
ATOM     13  C   UNL     1      -1.532  -0.525  24.627  0.00  0.00    +0.072 C 
ATOM     14  C   UNL     1      -1.427  -1.133  24.842  0.00  0.00    +0.017 C 
ATOM     15  C   UNL     1      -1.923  -0.422  24.613  0.00  0.00    +0.005 C 
ATOM     16  C   UNL     1      -2.791  -0.514  24.698  0.00  0.00    +0.018 C 
ATOM     17  C   UNL     1      -3.091   0.152  24.475  0.00  0.00    +0.079 C 
ENDROOT
BRANCH  10   9
ATOM      9  C   UNL     1      -0.647   0.082  24.354  0.00  0.00    +0.073 C 
BRANCH   9   8
ATOM      4  C   UNL     1       0.524   0.770  23.794  0.00  0.00    +0.087 C 
ATOM      5  C   UNL     1       0.866   1.515  23.893  0.00  0.00    +0.020 C 
ATOM      6  C   UNL     1       0.413   1.933  24.440  0.00  0.00    +0.019 C 
ATOM      7  C   UNL     1      -0.209   1.447  24.680  0.00  0.00    +0.072 C 
ATOM      8  N   UNL     1      -0.141   0.728  24.281  0.00  0.00    -0.272 NA
BRANCH   4   3
ATOM      3  C   UNL     1       0.799   0.173  23.295  0.00  0.00    +0.158 C 
BRANCH   3   2
ATOM      1  C   UNL     1       1.738  -0.284  22.320  0.00  0.00    +0.174 C 
ATOM      2  O   UNL     1       1.508   0.270  22.887  0.00  0.00    -0.350 OA
ENDBRANCH   3   2
ENDBRANCH   4   3
ENDBRANCH   9   8
ENDBRANCH  10   9
BRANCH  17  18
ATOM     18  C   UNL     1      -3.809   0.546  24.374  0.00  0.00    +0.133 C 
BRANCH  18  19
ATOM     19  N   UNL     1      -4.242   0.786  25.034  0.00  0.00    -0.186 NA
ATOM     20  C   UNL     1      -4.807   1.383  24.962  0.00  0.00    +0.339 C 
ATOM     21  O   UNL     1      -4.938   1.740  24.230  0.00  0.00    -0.249 OA
ATOM     22  N   UNL     1      -5.241   1.623  25.621  0.00  0.00    -0.189 NA
BRANCH  22  23
ATOM     23  C   UNL     1      -5.805   2.220  25.548  0.00  0.00    +0.097 C 
ATOM     24  C   UNL     1      -6.574   2.035  25.312  0.00  0.00    +0.023 C 
ATOM     25  C   UNL     1      -5.602   3.003  25.712  0.00  0.00    +0.023 C 
ENDBRANCH  22  23
ENDBRANCH  18  19
ENDBRANCH  17  18
TORSDOF 7
ENDMDL
