MODEL 1
REMARK VINA RESULT:     -10.2      0.000      0.000
REMARK  Name = 
REMARK  9 active torsions:
REMARK  status: ('A' for Active; 'I' for Inactive)
REMARK    1  A    between atoms: O_2  and  C_3
REMARK    2  A    between atoms: C_6  and  S_9
REMARK    3  A    between atoms: S_9  and  N_12
REMARK    4  A    between atoms: N_12  and  C_13
REMARK    5  A    between atoms: C_13  and  C_14
REMARK    6  A    between atoms: C_16  and  C_17
REMARK    7  A    between atoms: C_21  and  N_22
REMARK    8  A    between atoms: N_22  and  C_24
REMARK    9  A    between atoms: C_24  and  C_25
REMARK                            x       y       z     vdW  Elec       q    Type
REMARK                         _______ _______ _______ _____ _____    ______ ____
ROOT
ATOM     14  C   UNL     1      -4.480   1.998  25.129  0.00  0.00    +0.152 C 
ATOM     15  O   UNL     1      -5.255   1.985  25.409  0.00  0.00    -0.350 OA
ATOM     16  C   UNL     1      -5.471   2.758  25.598  0.00  0.00    +0.180 C 
ATOM     19  C   UNL     1      -4.829   3.249  25.436  0.00  0.00    +0.198 C 
ATOM     20  O   UNL     1      -4.805   4.067  25.544  0.00  0.00    -0.219 OA
ATOM     21  C   UNL     1      -4.217   2.780  25.145  0.00  0.00    +0.120 C 
ENDROOT
BRANCH  16  17
ATOM     17  C   UNL     1      -6.201   2.998  25.899  0.00  0.00    +0.214 C 
ATOM     18  O   UNL     1      -6.536   2.598  26.539  0.00  0.00    -0.218 OA
ENDBRANCH  16  17
BRANCH  21  22
ATOM     22  N   UNL     1      -3.471   3.046  24.912  0.00  0.00    -0.265 NA
ATOM     23  C   UNL     1      -3.332   3.249  24.125  0.00  0.00    +0.090 C 
BRANCH  22  24
ATOM     24  C   UNL     1      -2.863   3.108  25.467  0.00  0.00    +0.099 C 
BRANCH  24  25
ATOM     25  C   UNL     1      -2.159   3.489  25.266  0.00  0.00    -0.006 A 
ATOM     26  C   UNL     1      -2.082   4.302  25.384  0.00  0.00    -0.003 A 
ATOM     27  C   UNL     1      -1.377   4.682  25.183  0.00  0.00    -0.000 A 
ATOM     28  C   UNL     1      -0.751   4.249  24.865  0.00  0.00    -0.000 A 
ATOM     29  C   UNL     1      -0.829   3.436  24.747  0.00  0.00    -0.000 A 
ATOM     30  C   UNL     1      -1.533   3.056  24.948  0.00  0.00    -0.003 A 
ENDBRANCH  24  25
ENDBRANCH  22  24
ENDBRANCH  21  22
BRANCH  14  13
ATOM     13  C   UNL     1      -4.044   1.345  24.876  0.00  0.00    +0.146 C 
BRANCH  13  12
ATOM     12  N   UNL     1      -4.398   0.600  24.846  0.00  0.00    -0.075 NA
BRANCH  12   9
ATOM      9  S   UNL     1      -3.931  -0.074  24.748  0.00  0.00    +0.077 S 
ATOM     10  O   UNL     1      -3.897   0.067  23.935  0.00  0.00    -0.152 OA
ATOM     11  O   UNL     1      -3.965  -0.216  25.560  0.00  0.00    -0.152 OA
BRANCH   9   6
ATOM      3  C   UNL     1      -2.534  -2.095  24.454  0.00  0.00    +0.139 A 
ATOM      4  C   UNL     1      -2.190  -1.390  24.711  0.00  0.00    +0.038 A 
ATOM      5  C   UNL     1      -2.656  -0.716  24.809  0.00  0.00    +0.023 A 
ATOM      6  C   UNL     1      -3.466  -0.747  24.650  0.00  0.00    +0.124 A 
ATOM      7  C   UNL     1      -3.808  -1.452  24.394  0.00  0.00    +0.023 A 
ATOM      8  C   UNL     1      -3.342  -2.126  24.296  0.00  0.00    +0.038 A 
BRANCH   3   2
ATOM      1  C   UNL     1      -1.246  -2.704  24.349  0.00  0.00    +0.252 C 
ATOM      2  O   UNL     1      -2.067  -2.769  24.356  0.00  0.00    -0.471 OA
ENDBRANCH   3   2
ENDBRANCH   9   6
ENDBRANCH  12   9
ENDBRANCH  13  12
ENDBRANCH  14  13
TORSDOF 9
ENDMDL
MODEL 2
REMARK VINA RESULT:      -9.9      2.203      5.556
REMARK  Name = 
REMARK  9 active torsions:
REMARK  status: ('A' for Active; 'I' for Inactive)
REMARK    1  A    between atoms: O_2  and  C_3
REMARK    2  A    between atoms: C_6  and  S_9
REMARK    3  A    between atoms: S_9  and  N_12
REMARK    4  A    between atoms: N_12  and  C_13
REMARK    5  A    between atoms: C_13  and  C_14
REMARK    6  A    between atoms: C_16  and  C_17
REMARK    7  A    between atoms: C_21  and  N_22
REMARK    8  A    between atoms: N_22  and  C_24
REMARK    9  A    between atoms: C_24  and  C_25
REMARK                            x       y       z     vdW  Elec       q    Type
REMARK                         _______ _______ _______ _____ _____    ______ ____
ROOT
ATOM     14  C   UNL     1      -0.925   0.732  24.296  0.00  0.00    +0.152 C 
ATOM     15  O   UNL     1      -0.265   1.044  23.911  0.00  0.00    -0.350 OA
ATOM     16  C   UNL     1       0.242   0.420  23.728  0.00  0.00    +0.180 C 
ATOM     19  C   UNL     1      -0.104  -0.277  23.998  0.00  0.00    +0.198 C 
ATOM     20  O   UNL     1       0.215  -1.035  23.929  0.00  0.00    -0.219 OA
ATOM     21  C   UNL     1      -0.825  -0.085  24.349  0.00  0.00    +0.120 C 
ENDROOT
BRANCH  16  17
ATOM     17  C   UNL     1       0.968   0.483  23.341  0.00  0.00    +0.214 C 
ATOM     18  O   UNL     1       1.442   1.149  23.457  0.00  0.00    -0.218 OA
ENDBRANCH  16  17
BRANCH  21  22
ATOM     22  N   UNL     1      -1.354  -0.616  24.693  0.00  0.00    -0.265 NA
ATOM     23  C   UNL     1      -1.252  -0.851  25.478  0.00  0.00    +0.090 C 
BRANCH  22  24
ATOM     24  C   UNL     1      -1.986  -0.913  24.253  0.00  0.00    +0.099 C 
BRANCH  24  25
ATOM     25  C   UNL     1      -2.493  -1.473  24.586  0.00  0.00    -0.006 A 
ATOM     26  C   UNL     1      -3.085  -1.233  25.108  0.00  0.00    -0.003 A 
ATOM     27  C   UNL     1      -3.593  -1.793  25.440  0.00  0.00    -0.000 A 
ATOM     28  C   UNL     1      -3.508  -2.591  25.250  0.00  0.00    -0.000 A 
ATOM     29  C   UNL     1      -2.915  -2.830  24.727  0.00  0.00    -0.000 A 
ATOM     30  C   UNL     1      -2.408  -2.271  24.395  0.00  0.00    -0.003 A 
ENDBRANCH  24  25
ENDBRANCH  22  24
ENDBRANCH  21  22
BRANCH  14  13
ATOM     13  C   UNL     1      -1.571   1.162  24.577  0.00  0.00    +0.146 C 
BRANCH  13  12
ATOM     12  N   UNL     1      -1.631   1.969  24.414  0.00  0.00    -0.075 NA
BRANCH  12   9
ATOM      9  S   UNL     1      -2.320   2.378  24.613  0.00  0.00    +0.077 S 
ATOM     10  O   UNL     1      -2.544   2.388  23.817  0.00  0.00    -0.152 OA
ATOM     11  O   UNL     1      -2.098   2.369  25.407  0.00  0.00    -0.152 OA
BRANCH   9   6
ATOM      3  C   UNL     1      -4.385   3.606  25.206  0.00  0.00    +0.139 A 
ATOM      4  C   UNL     1      -3.653   3.873  25.480  0.00  0.00    +0.038 A 
ATOM      5  C   UNL     1      -2.965   3.464  25.282  0.00  0.00    +0.023 A 
ATOM      6  C   UNL     1      -3.008   2.787  24.810  0.00  0.00    +0.124 A 
ATOM      7  C   UNL     1      -3.740   2.521  24.538  0.00  0.00    +0.023 A 
ATOM      8  C   UNL     1      -4.428   2.931  24.735  0.00  0.00    +0.038 A 
BRANCH   3   2
ATOM      1  C   UNL     1      -5.735   3.604  25.673  0.00  0.00    +0.252 C 
ATOM      2  O   UNL     1      -5.074   4.016  25.404  0.00  0.00    -0.471 OA
ENDBRANCH   3   2
ENDBRANCH   9   6
ENDBRANCH  12   9
ENDBRANCH  13  12
ENDBRANCH  14  13
TORSDOF 9
ENDMDL
MODEL 3
REMARK VINA RESULT:      -9.7      1.813      3.185
REMARK  Name = 
REMARK  9 active torsions:
REMARK  status: ('A' for Active; 'I' for Inactive)
REMARK    1  A    between atoms: O_2  and  C_3
REMARK    2  A    between atoms: C_6  and  S_9
REMARK    3  A    between atoms: S_9  and  N_12
REMARK    4  A    between atoms: N_12  and  C_13
REMARK    5  A    between atoms: C_13  and  C_14
REMARK    6  A    between atoms: C_16  and  C_17
REMARK    7  A    between atoms: C_21  and  N_22
REMARK    8  A    between atoms: N_22  and  C_24
REMARK    9  A    between atoms: C_24  and  C_25
REMARK                            x       y       z     vdW  Elec       q    Type
REMARK                         _______ _______ _______ _____ _____    ______ ____
ROOT
ATOM     14  C   UNL     1      -1.507   1.793  25.289  0.00  0.00    +0.152 C 
ATOM     15  O   UNL     1      -0.717   1.866  25.515  0.00  0.00    -0.350 OA
ATOM     16  C   UNL     1      -0.566   2.663  25.659  0.00  0.00    +0.180 C 
ATOM     19  C   UNL     1      -1.261   3.084  25.523  0.00  0.00    +0.198 C 
ATOM     20  O   UNL     1      -1.358   3.900  25.602  0.00  0.00    -0.219 OA
ATOM     21  C   UNL     1      -1.843   2.546  25.295  0.00  0.00    +0.120 C 
ENDROOT
BRANCH  16  17
ATOM     17  C   UNL     1       0.156   2.985  25.898  0.00  0.00    +0.214 C 
ATOM     18  O   UNL     1       0.682   2.531  26.344  0.00  0.00    -0.218 OA
ENDBRANCH  16  17
BRANCH  21  22
ATOM     22  N   UNL     1      -2.625   2.730  25.105  0.00  0.00    -0.265 NA
ATOM     23  C   UNL     1      -2.825   2.937  24.331  0.00  0.00    +0.090 C 
BRANCH  22  24
ATOM     24  C   UNL     1      -3.208   2.706  25.688  0.00  0.00    +0.099 C 
BRANCH  24  25
ATOM     25  C   UNL     1      -3.990   2.887  25.497  0.00  0.00    -0.006 A 
ATOM     26  C   UNL     1      -4.277   3.651  25.618  0.00  0.00    -0.003 A 
ATOM     27  C   UNL     1      -5.060   3.832  25.427  0.00  0.00    -0.000 A 
ATOM     28  C   UNL     1      -5.554   3.250  25.117  0.00  0.00    -0.000 A 
ATOM     29  C   UNL     1      -5.266   2.486  24.996  0.00  0.00    -0.000 A 
ATOM     30  C   UNL     1      -4.485   2.305  25.187  0.00  0.00    -0.003 A 
ENDBRANCH  24  25
ENDBRANCH  22  24
ENDBRANCH  21  22
BRANCH  14  13
ATOM     13  C   UNL     1      -1.893   1.091  25.093  0.00  0.00    +0.146 C 
BRANCH  13  12
ATOM     12  N   UNL     1      -1.508   0.368  25.192  0.00  0.00    -0.075 NA
BRANCH  12   9
ATOM      9  S   UNL     1      -1.918  -0.338  25.065  0.00  0.00    +0.077 S 
ATOM     10  O   UNL     1      -1.949  -0.466  25.881  0.00  0.00    -0.152 OA
ATOM     11  O   UNL     1      -1.886  -0.211  24.251  0.00  0.00    -0.152 OA
BRANCH   9   6
ATOM      3  C   UNL     1      -3.144  -2.453  24.686  0.00  0.00    +0.139 A 
ATOM      4  C   UNL     1      -2.337  -2.410  24.521  0.00  0.00    +0.038 A 
ATOM      5  C   UNL     1      -1.928  -1.704  24.647  0.00  0.00    +0.023 A 
ATOM      6  C   UNL     1      -2.326  -1.042  24.939  0.00  0.00    +0.124 A 
ATOM      7  C   UNL     1      -3.133  -1.087  25.104  0.00  0.00    +0.023 A 
ATOM      8  C   UNL     1      -3.542  -1.792  24.977  0.00  0.00    +0.038 A 
BRANCH   3   2
ATOM      1  C   UNL     1      -4.082  -3.222  23.929  0.00  0.00    +0.252 C 
ATOM      2  O   UNL     1      -3.554  -3.159  24.560  0.00  0.00    -0.471 OA
ENDBRANCH   3   2
ENDBRANCH   9   6
ENDBRANCH  12   9
ENDBRANCH  13  12
ENDBRANCH  14  13
TORSDOF 9
ENDMDL
MODEL 4
REMARK VINA RESULT:      -9.6      2.323      4.132
REMARK  Name = 
REMARK  9 active torsions:
REMARK  status: ('A' for Active; 'I' for Inactive)
REMARK    1  A    between atoms: O_2  and  C_3
REMARK    2  A    between atoms: C_6  and  S_9
REMARK    3  A    between atoms: S_9  and  N_12
REMARK    4  A    between atoms: N_12  and  C_13
REMARK    5  A    between atoms: C_13  and  C_14
REMARK    6  A    between atoms: C_16  and  C_17
REMARK    7  A    between atoms: C_21  and  N_22
REMARK    8  A    between atoms: N_22  and  C_24
REMARK    9  A    between atoms: C_24  and  C_25
REMARK                            x       y       z     vdW  Elec       q    Type
REMARK                         _______ _______ _______ _____ _____    ______ ____
ROOT
ATOM     14  C   UNL     1      -3.062   1.404  24.644  0.00  0.00    +0.152 C 
ATOM     15  O   UNL     1      -3.159   2.171  24.931  0.00  0.00    -0.350 OA
ATOM     16  C   UNL     1      -3.954   2.271  25.127  0.00  0.00    +0.180 C 
ATOM     19  C   UNL     1      -4.348   1.567  24.961  0.00  0.00    +0.198 C 
ATOM     20  O   UNL     1      -5.153   1.423  25.074  0.00  0.00    -0.219 OA
ATOM     21  C   UNL     1      -3.797   1.031  24.663  0.00  0.00    +0.120 C 
ENDROOT
BRANCH  16  17
ATOM     17  C   UNL     1      -4.295   2.957  25.435  0.00  0.00    +0.214 C 
ATOM     18  O   UNL     1      -3.856   3.655  25.474  0.00  0.00    -0.218 OA
ENDBRANCH  16  17
BRANCH  21  22
ATOM     22  N   UNL     1      -3.953   0.256  24.424  0.00  0.00    -0.265 NA
ATOM     23  C   UNL     1      -3.988   0.070  23.621  0.00  0.00    +0.090 C 
BRANCH  22  24
ATOM     24  C   UNL     1      -4.075  -0.332  24.989  0.00  0.00    +0.099 C 
BRANCH  24  25
ATOM     25  C   UNL     1      -3.943  -1.124  24.796  0.00  0.00    -0.006 A 
ATOM     26  C   UNL     1      -4.304  -1.451  24.130  0.00  0.00    -0.003 A 
ATOM     27  C   UNL     1      -4.172  -2.242  23.936  0.00  0.00    -0.000 A 
ATOM     28  C   UNL     1      -3.679  -2.706  24.408  0.00  0.00    -0.000 A 
ATOM     29  C   UNL     1      -3.318  -2.378  25.074  0.00  0.00    -0.000 A 
ATOM     30  C   UNL     1      -3.450  -1.587  25.268  0.00  0.00    -0.003 A 
ENDBRANCH  24  25
ENDBRANCH  22  24
ENDBRANCH  21  22
BRANCH  14  13
ATOM     13  C   UNL     1      -2.354   1.070  24.385  0.00  0.00    +0.146 C 
BRANCH  13  12
ATOM     12  N   UNL     1      -1.643   1.475  24.491  0.00  0.00    -0.075 NA
BRANCH  12   9
ATOM      9  S   UNL     1      -0.938   1.153  24.206  0.00  0.00    +0.077 S 
ATOM     10  O   UNL     1      -0.798   0.808  24.943  0.00  0.00    -0.152 OA
ATOM     11  O   UNL     1      -1.078   1.498  23.470  0.00  0.00    -0.152 OA
BRANCH   9   6
ATOM      3  C   UNL     1       1.174   0.189  23.353  0.00  0.00    +0.139 A 
ATOM      4  C   UNL     1       1.146   0.981  23.580  0.00  0.00    +0.038 A 
ATOM      5  C   UNL     1       0.441   1.303  23.865  0.00  0.00    +0.023 A 
ATOM      6  C   UNL     1      -0.234   0.832  23.922  0.00  0.00    +0.124 A 
ATOM      7  C   UNL     1      -0.204   0.040  23.694  0.00  0.00    +0.023 A 
ATOM      8  C   UNL     1       0.500  -0.282  23.409  0.00  0.00    +0.038 A 
BRANCH   3   2
ATOM      1  C   UNL     1       2.186   0.120  22.346  0.00  0.00    +0.252 C 
ATOM      2  O   UNL     1       1.880  -0.133  23.068  0.00  0.00    -0.471 OA
ENDBRANCH   3   2
ENDBRANCH   9   6
ENDBRANCH  12   9
ENDBRANCH  13  12
ENDBRANCH  14  13
TORSDOF 9
ENDMDL
