MODEL 1
REMARK VINA RESULT:     -13.7      0.000      0.000
REMARK  Name = 
REMARK  4 active torsions:
REMARK  status: ('A' for Active; 'I' for Inactive)
REMARK    1  A    between atoms: C_4  and  C_5
REMARK    2  A    between atoms: C_5  and  N_6
REMARK    3  A    between atoms: N_12  and  C_13
REMARK    4  A    between atoms: C_13  and  C_14
REMARK                            x       y       z     vdW  Elec       q    Type
REMARK                         _______ _______ _______ _____ _____    ______ ____
ROOT
ATOM      6  N   UNL     1      -4.381   0.865  24.624  0.00  0.00    -0.266 NA
ATOM      7  C   UNL     1      -5.099   1.082  24.968  0.00  0.00    +0.094 C 
ATOM      8  C   UNL     1      -5.180   1.821  25.324  0.00  0.00    +0.112 C 
ATOM      9  N   UNL     1      -4.542   2.345  25.337  0.00  0.00    -0.261 N 
ATOM     10  C   UNL     1      -3.825   2.129  24.993  0.00  0.00    +0.113 C 
ATOM     11  C   UNL     1      -3.297   2.755  25.089  0.00  0.00    +0.116 C 
ATOM     12  N   UNL     1      -3.689   3.359  25.493  0.00  0.00    -0.258 N 
ATOM     21  C   UNL     1      -4.458   3.105  25.646  0.00  0.00    +0.308 C 
ATOM     22  O   UNL     1      -5.042   3.536  26.039  0.00  0.00    -0.252 OA
ATOM     23  C   UNL     1      -3.744   1.389  24.636  0.00  0.00    +0.094 C 
ENDROOT
BRANCH   6   5
ATOM      5  C   UNL     1      -4.301   0.126  24.267  0.00  0.00    +0.101 C 
BRANCH   5   4
ATOM      1  C   UNL     1      -3.049  -1.433  26.373  0.00  0.00    +0.130 C 
ATOM      2  N   UNL     1      -3.414  -1.224  25.664  0.00  0.00    -0.324 N 
ATOM      3  C   UNL     1      -3.650  -0.463  25.446  0.00  0.00    +0.073 A 
ATOM      4  C   UNL     1      -3.990  -0.507  24.696  0.00  0.00    +0.012 A 
ATOM     24  C   UNL     1      -3.965  -1.294  24.451  0.00  0.00    +0.015 A 
ATOM     25  C   UNL     1      -3.609  -1.736  25.049  0.00  0.00    +0.060 A 
ATOM     26  C   UNL     1      -3.509  -2.550  24.955  0.00  0.00    +0.017 A 
ATOM     27  C   UNL     1      -3.764  -2.921  24.264  0.00  0.00    +0.001 A 
ATOM     28  C   UNL     1      -4.120  -2.478  23.666  0.00  0.00    +0.000 A 
ATOM     29  C   UNL     1      -4.220  -1.664  23.759  0.00  0.00    +0.001 A 
ENDBRANCH   5   4
ENDBRANCH   6   5
BRANCH  12  13
ATOM     13  C   UNL     1      -3.367   4.089  25.706  0.00  0.00    +0.122 C 
BRANCH  13  14
ATOM     14  C   UNL     1      -2.585   4.266  25.514  0.00  0.00    -0.002 A 
ATOM     15  C   UNL     1      -2.420   4.813  24.919  0.00  0.00    -0.000 A 
ATOM     16  C   UNL     1      -1.638   4.991  24.727  0.00  0.00    +0.029 A 
ATOM     17  C   UNL     1      -1.020   4.622  25.131  0.00  0.00    +0.140 A 
ATOM     18  F   UNL     1      -0.238   4.800  24.939  0.00  0.00    -0.204 F 
ATOM     19  C   UNL     1      -1.185   4.075  25.726  0.00  0.00    +0.029 A 
ATOM     20  C   UNL     1      -1.968   3.898  25.918  0.00  0.00    -0.000 A 
ENDBRANCH  13  14
ENDBRANCH  12  13
TORSDOF 4
ENDMDL
MODEL 2
REMARK VINA RESULT:     -13.0      2.418      5.843
REMARK  Name = 
REMARK  4 active torsions:
REMARK  status: ('A' for Active; 'I' for Inactive)
REMARK    1  A    between atoms: C_4  and  C_5
REMARK    2  A    between atoms: C_5  and  N_6
REMARK    3  A    between atoms: N_12  and  C_13
REMARK    4  A    between atoms: C_13  and  C_14
REMARK                            x       y       z     vdW  Elec       q    Type
REMARK                         _______ _______ _______ _____ _____    ______ ____
ROOT
ATOM      6  N   UNL     1      -1.436   1.741  24.825  0.00  0.00    -0.266 NA
ATOM      7  C   UNL     1      -0.809   1.445  25.273  0.00  0.00    +0.094 C 
ATOM      8  C   UNL     1      -0.866   0.698  25.619  0.00  0.00    +0.112 C 
ATOM      9  N   UNL     1      -1.549   0.247  25.516  0.00  0.00    -0.261 N 
ATOM     10  C   UNL     1      -2.175   0.542  25.067  0.00  0.00    +0.113 C 
ATOM     11  C   UNL     1      -2.775  -0.024  25.062  0.00  0.00    +0.116 C 
ATOM     12  N   UNL     1      -2.519  -0.670  25.507  0.00  0.00    -0.258 N 
ATOM     21  C   UNL     1      -1.762  -0.503  25.788  0.00  0.00    +0.308 C 
ATOM     22  O   UNL     1      -1.298  -0.998  26.258  0.00  0.00    -0.252 OA
ATOM     23  C   UNL     1      -2.119   1.290  24.722  0.00  0.00    +0.094 C 
ENDROOT
BRANCH   6   5
ATOM      5  C   UNL     1      -1.379   2.488  24.479  0.00  0.00    +0.101 C 
BRANCH   5   4
ATOM      1  C   UNL     1      -3.154   4.161  26.054  0.00  0.00    +0.130 C 
ATOM      2  N   UNL     1      -2.528   3.912  25.580  0.00  0.00    -0.324 N 
ATOM      3  C   UNL     1      -2.399   3.142  25.311  0.00  0.00    +0.073 A 
ATOM      4  C   UNL     1      -1.711   3.143  24.856  0.00  0.00    +0.012 A 
ATOM     24  C   UNL     1      -1.415   3.912  24.843  0.00  0.00    +0.015 A 
ATOM     25  C   UNL     1      -1.919   4.387  25.290  0.00  0.00    +0.060 A 
ATOM     26  C   UNL     1      -1.759   5.192  25.376  0.00  0.00    +0.017 A 
ATOM     27  C   UNL     1      -1.095   5.521  25.015  0.00  0.00    +0.001 A 
ATOM     28  C   UNL     1      -0.590   5.046  24.567  0.00  0.00    +0.000 A 
ATOM     29  C   UNL     1      -0.750   4.241  24.481  0.00  0.00    +0.001 A 
ENDBRANCH   5   4
ENDBRANCH   6   5
BRANCH  12  13
ATOM     13  C   UNL     1      -2.946  -1.362  25.647  0.00  0.00    +0.122 C 
BRANCH  13  14
ATOM     14  C   UNL     1      -3.358  -1.725  25.031  0.00  0.00    -0.002 A 
ATOM     15  C   UNL     1      -4.024  -1.360  24.710  0.00  0.00    -0.000 A 
ATOM     16  C   UNL     1      -4.436  -1.722  24.094  0.00  0.00    +0.029 A 
ATOM     17  C   UNL     1      -4.181  -2.450  23.799  0.00  0.00    +0.140 A 
ATOM     18  F   UNL     1      -4.592  -2.813  23.183  0.00  0.00    -0.204 F 
ATOM     19  C   UNL     1      -3.514  -2.814  24.121  0.00  0.00    +0.029 A 
ATOM     20  C   UNL     1      -3.103  -2.452  24.737  0.00  0.00    -0.000 A 
ENDBRANCH  13  14
ENDBRANCH  12  13
TORSDOF 4
ENDMDL
MODEL 3
REMARK VINA RESULT:     -12.8      2.175      2.824
REMARK  Name = 
REMARK  4 active torsions:
REMARK  status: ('A' for Active; 'I' for Inactive)
REMARK    1  A    between atoms: C_4  and  C_5
REMARK    2  A    between atoms: C_5  and  N_6
REMARK    3  A    between atoms: N_12  and  C_13
REMARK    4  A    between atoms: C_13  and  C_14
REMARK                            x       y       z     vdW  Elec       q    Type
REMARK                         _______ _______ _______ _____ _____    ______ ____
ROOT
ATOM      6  N   UNL     1      -1.430  -0.327  25.079  0.00  0.00    -0.266 NA
ATOM      7  C   UNL     1      -0.859  -0.388  24.487  0.00  0.00    +0.094 C 
ATOM      8  C   UNL     1      -0.353   0.246  24.335  0.00  0.00    +0.112 C 
ATOM      9  N   UNL     1      -0.419   0.941  24.776  0.00  0.00    -0.261 N 
ATOM     10  C   UNL     1      -0.989   1.002  25.367  0.00  0.00    +0.113 C 
ATOM     11  C   UNL     1      -0.924   1.749  25.709  0.00  0.00    +0.116 C 
ATOM     12  N   UNL     1      -0.312   2.151  25.328  0.00  0.00    -0.258 N 
ATOM     21  C   UNL     1      -0.000   1.652  24.751  0.00  0.00    +0.308 C 
ATOM     22  O   UNL     1       0.622   1.830  24.239  0.00  0.00    -0.252 OA
ATOM     23  C   UNL     1      -1.496   0.368  25.520  0.00  0.00    +0.094 C 
ENDROOT
BRANCH   6   5
ATOM      5  C   UNL     1      -1.936  -0.961  25.231  0.00  0.00    +0.101 C 
BRANCH   5   4
ATOM      1  C   UNL     1      -4.488  -0.159  24.100  0.00  0.00    +0.130 C 
ATOM      2  N   UNL     1      -3.854  -0.619  24.356  0.00  0.00    -0.324 N 
ATOM      3  C   UNL     1      -3.162  -0.339  24.710  0.00  0.00    +0.073 A 
ATOM      4  C   UNL     1      -2.681  -0.988  24.876  0.00  0.00    +0.012 A 
ATOM     24  C   UNL     1      -3.073  -1.668  24.625  0.00  0.00    +0.015 A 
ATOM     25  C   UNL     1      -3.798  -1.440  24.304  0.00  0.00    +0.060 A 
ATOM     26  C   UNL     1      -4.314  -2.011  24.005  0.00  0.00    +0.017 A 
ATOM     27  C   UNL     1      -4.105  -2.808  24.027  0.00  0.00    +0.001 A 
ATOM     28  C   UNL     1      -3.380  -3.036  24.348  0.00  0.00    +0.000 A 
ATOM     29  C   UNL     1      -2.864  -2.466  24.647  0.00  0.00    +0.001 A 
ENDBRANCH   5   4
ENDBRANCH   6   5
BRANCH  12  13
ATOM     13  C   UNL     1      -0.058   2.919  25.494  0.00  0.00    +0.122 C 
BRANCH  13  14
ATOM     14  C   UNL     1      -0.572   3.555  25.390  0.00  0.00    -0.002 A 
ATOM     15  C   UNL     1      -0.407   4.129  24.819  0.00  0.00    -0.000 A 
ATOM     16  C   UNL     1      -0.921   4.765  24.715  0.00  0.00    +0.029 A 
ATOM     17  C   UNL     1      -1.599   4.829  25.182  0.00  0.00    +0.140 A 
ATOM     18  F   UNL     1      -2.113   5.466  25.077  0.00  0.00    -0.204 F 
ATOM     19  C   UNL     1      -1.763   4.256  25.752  0.00  0.00    +0.029 A 
ATOM     20  C   UNL     1      -1.249   3.619  25.856  0.00  0.00    -0.000 A 
ENDBRANCH  13  14
ENDBRANCH  12  13
TORSDOF 4
ENDMDL
MODEL 4
REMARK VINA RESULT:     -12.5      2.790      5.998
REMARK  Name = 
REMARK  4 active torsions:
REMARK  status: ('A' for Active; 'I' for Inactive)
REMARK    1  A    between atoms: C_4  and  C_5
REMARK    2  A    between atoms: C_5  and  N_6
REMARK    3  A    between atoms: N_12  and  C_13
REMARK    4  A    between atoms: C_13  and  C_14
REMARK                            x       y       z     vdW  Elec       q    Type
REMARK                         _______ _______ _______ _____ _____    ______ ____
ROOT
ATOM      6  N   UNL     1      -0.632   1.735  25.290  0.00  0.00    -0.266 NA
ATOM      7  C   UNL     1      -0.188   1.608  24.606  0.00  0.00    +0.094 C 
ATOM      8  C   UNL     1      -0.133   0.850  24.284  0.00  0.00    +0.112 C 
ATOM      9  N   UNL     1      -0.522   0.219  24.648  0.00  0.00    -0.261 N 
ATOM     10  C   UNL     1      -0.965   0.346  25.331  0.00  0.00    +0.113 C 
ATOM     11  C   UNL     1      -1.285  -0.377  25.566  0.00  0.00    +0.116 C 
ATOM     12  N   UNL     1      -1.039  -0.951  25.026  0.00  0.00    -0.258 N 
ATOM     21  C   UNL     1      -0.567  -0.583  24.459  0.00  0.00    +0.308 C 
ATOM     22  O   UNL     1      -0.205  -0.951  23.816  0.00  0.00    -0.252 OA
ATOM     23  C   UNL     1      -1.020   1.104  25.653  0.00  0.00    +0.094 C 
ENDROOT
BRANCH   6   5
ATOM      5  C   UNL     1      -0.687   2.493  25.611  0.00  0.00    +0.101 C 
BRANCH   5   4
ATOM      1  C   UNL     1      -3.415   3.360  25.121  0.00  0.00    +0.130 C 
ATOM      2  N   UNL     1      -2.596   3.364  25.217  0.00  0.00    -0.324 N 
ATOM      3  C   UNL     1      -2.125   2.711  25.399  0.00  0.00    +0.073 A 
ATOM      4  C   UNL     1      -1.342   2.966  25.442  0.00  0.00    +0.012 A 
ATOM     24  C   UNL     1      -1.328   3.775  25.286  0.00  0.00    +0.015 A 
ATOM     25  C   UNL     1      -2.103   4.021  25.146  0.00  0.00    +0.060 A 
ATOM     26  C   UNL     1      -2.259   4.813  24.974  0.00  0.00    +0.017 A 
ATOM     27  C   UNL     1      -1.642   5.358  24.940  0.00  0.00    +0.001 A 
ATOM     28  C   UNL     1      -0.867   5.112  25.079  0.00  0.00    +0.000 A 
ATOM     29  C   UNL     1      -0.709   4.321  25.252  0.00  0.00    +0.001 A 
ENDBRANCH   5   4
ENDBRANCH   6   5
BRANCH  12  13
ATOM     13  C   UNL     1      -1.231  -1.754  25.050  0.00  0.00    +0.122 C 
BRANCH  13  14
ATOM     14  C   UNL     1      -2.009  -1.995  24.920  0.00  0.00    -0.002 A 
ATOM     15  C   UNL     1      -2.208  -2.386  24.221  0.00  0.00    -0.000 A 
ATOM     16  C   UNL     1      -2.986  -2.627  24.091  0.00  0.00    +0.029 A 
ATOM     17  C   UNL     1      -3.565  -2.479  24.661  0.00  0.00    +0.140 A 
ATOM     18  F   UNL     1      -4.343  -2.720  24.531  0.00  0.00    -0.204 F 
ATOM     19  C   UNL     1      -3.365  -2.088  25.359  0.00  0.00    +0.029 A 
ATOM     20  C   UNL     1      -2.587  -1.846  25.489  0.00  0.00    -0.000 A 
ENDBRANCH  13  14
ENDBRANCH  12  13
TORSDOF 4
ENDMDL
MODEL 5
REMARK VINA RESULT:     -11.9      2.565      5.453
REMARK  Name = 
REMARK  4 active torsions:
REMARK  status: ('A' for Active; 'I' for Inactive)
REMARK    1  A    between atoms: C_4  and  C_5
REMARK    2  A    between atoms: C_5  and  N_6
REMARK    3  A    between atoms: N_12  and  C_13
REMARK    4  A    between atoms: C_13  and  C_14
REMARK                            x       y       z     vdW  Elec       q    Type
REMARK                         _______ _______ _______ _____ _____    ______ ____
ROOT
ATOM      6  N   UNL     1      -2.444   1.940  24.008  0.00  0.00    -0.266 NA
ATOM      7  C   UNL     1      -1.641   2.019  23.838  0.00  0.00    +0.094 C 
ATOM      8  C   UNL     1      -1.131   1.379  23.946  0.00  0.00    +0.112 C 
ATOM      9  N   UNL     1      -1.425   0.660  24.225  0.00  0.00    -0.261 N 
ATOM     10  C   UNL     1      -2.228   0.582  24.395  0.00  0.00    +0.113 C 
ATOM     11  C   UNL     1      -2.358  -0.188  24.660  0.00  0.00    +0.116 C 
ATOM     12  N   UNL     1      -1.635  -0.586  24.654  0.00  0.00    -0.258 N 
ATOM     21  C   UNL     1      -1.059  -0.061  24.385  0.00  0.00    +0.308 C 
ATOM     22  O   UNL     1      -0.256  -0.228  24.291  0.00  0.00    -0.252 OA
ATOM     23  C   UNL     1      -2.738   1.221  24.287  0.00  0.00    +0.094 C 
ENDROOT
BRANCH   6   5
ATOM      5  C   UNL     1      -2.953   2.580  23.900  0.00  0.00    +0.101 C 
BRANCH   5   4
ATOM      1  C   UNL     1      -2.895   4.306  26.235  0.00  0.00    +0.130 C 
ATOM      2  N   UNL     1      -3.165   3.825  25.622  0.00  0.00    -0.324 N 
ATOM      3  C   UNL     1      -2.695   3.456  25.052  0.00  0.00    +0.073 A 
ATOM      4  C   UNL     1      -3.192   3.032  24.548  0.00  0.00    +0.012 A 
ATOM     24  C   UNL     1      -3.967   3.137  24.807  0.00  0.00    +0.015 A 
ATOM     25  C   UNL     1      -3.951   3.628  25.470  0.00  0.00    +0.060 A 
ATOM     26  C   UNL     1      -4.655   3.831  25.850  0.00  0.00    +0.017 A 
ATOM     27  C   UNL     1      -5.374   3.544  25.567  0.00  0.00    +0.001 A 
ATOM     28  C   UNL     1      -5.391   3.054  24.904  0.00  0.00    +0.000 A 
ATOM     29  C   UNL     1      -4.688   2.850  24.523  0.00  0.00    +0.001 A 
ENDBRANCH   5   4
ENDBRANCH   6   5
BRANCH  12  13
ATOM     13  C   UNL     1      -1.510  -1.371  24.877  0.00  0.00    +0.122 C 
BRANCH  13  14
ATOM     14  C   UNL     1      -2.125  -1.918  24.821  0.00  0.00    -0.002 A 
ATOM     15  C   UNL     1      -2.169  -2.423  24.170  0.00  0.00    -0.000 A 
ATOM     16  C   UNL     1      -2.783  -2.971  24.114  0.00  0.00    +0.029 A 
ATOM     17  C   UNL     1      -3.354  -3.013  24.709  0.00  0.00    +0.140 A 
ATOM     18  F   UNL     1      -3.968  -3.560  24.652  0.00  0.00    -0.204 F 
ATOM     19  C   UNL     1      -3.309  -2.507  25.359  0.00  0.00    +0.029 A 
ATOM     20  C   UNL     1      -2.695  -1.960  25.415  0.00  0.00    -0.000 A 
ENDBRANCH  13  14
ENDBRANCH  12  13
TORSDOF 4
ENDMDL
MODEL 6
REMARK VINA RESULT:     -11.7      1.927      5.331
REMARK  Name = 
REMARK  4 active torsions:
REMARK  status: ('A' for Active; 'I' for Inactive)
REMARK    1  A    between atoms: C_4  and  C_5
REMARK    2  A    between atoms: C_5  and  N_6
REMARK    3  A    between atoms: N_12  and  C_13
REMARK    4  A    between atoms: C_13  and  C_14
REMARK                            x       y       z     vdW  Elec       q    Type
REMARK                         _______ _______ _______ _____ _____    ______ ____
ROOT
ATOM      6  N   UNL     1      -3.341   2.602  24.367  0.00  0.00    -0.266 NA
ATOM      7  C   UNL     1      -3.888   2.775  24.960  0.00  0.00    +0.094 C 
ATOM      8  C   UNL     1      -4.387   2.184  25.247  0.00  0.00    +0.112 C 
ATOM      9  N   UNL     1      -4.339   1.420  24.940  0.00  0.00    -0.261 N 
ATOM     10  C   UNL     1      -3.793   1.247  24.347  0.00  0.00    +0.113 C 
ATOM     11  C   UNL     1      -3.873   0.449  24.152  0.00  0.00    +0.116 C 
ATOM     12  N   UNL     1      -4.468   0.129  24.626  0.00  0.00    -0.258 N 
ATOM     21  C   UNL     1      -4.757   0.729  25.112  0.00  0.00    +0.308 C 
ATOM     22  O   UNL     1      -5.357   0.652  25.673  0.00  0.00    -0.252 OA
ATOM     23  C   UNL     1      -3.294   1.837  24.060  0.00  0.00    +0.094 C 
ENDROOT
BRANCH   6   5
ATOM      5  C   UNL     1      -2.842   3.193  24.081  0.00  0.00    +0.101 C 
BRANCH   5   4
ATOM      1  C   UNL     1      -0.138   2.477  24.862  0.00  0.00    +0.130 C 
ATOM      2  N   UNL     1      -0.821   2.914  24.711  0.00  0.00    -0.324 N 
ATOM      3  C   UNL     1      -1.532   2.616  24.417  0.00  0.00    +0.073 A 
ATOM      4  C   UNL     1      -2.064   3.243  24.352  0.00  0.00    +0.012 A 
ATOM     24  C   UNL     1      -1.682   3.928  24.605  0.00  0.00    +0.015 A 
ATOM     25  C   UNL     1      -0.914   3.725  24.827  0.00  0.00    +0.060 A 
ATOM     26  C   UNL     1      -0.398   4.305  25.107  0.00  0.00    +0.017 A 
ATOM     27  C   UNL     1      -0.650   5.088  25.164  0.00  0.00    +0.001 A 
ATOM     28  C   UNL     1      -1.418   5.292  24.942  0.00  0.00    +0.000 A 
ATOM     29  C   UNL     1      -1.935   4.712  24.663  0.00  0.00    +0.001 A 
ENDBRANCH   5   4
ENDBRANCH   6   5
BRANCH  12  13
ATOM     13  C   UNL     1      -4.729  -0.654  24.614  0.00  0.00    +0.122 C 
BRANCH  13  14
ATOM     14  C   UNL     1      -4.183  -1.271  24.587  0.00  0.00    -0.002 A 
ATOM     15  C   UNL     1      -3.716  -1.437  25.246  0.00  0.00    -0.000 A 
ATOM     16  C   UNL     1      -3.169  -2.054  25.219  0.00  0.00    +0.029 A 
ATOM     17  C   UNL     1      -3.089  -2.505  24.532  0.00  0.00    +0.140 A 
ATOM     18  F   UNL     1      -2.542  -3.122  24.505  0.00  0.00    -0.204 F 
ATOM     19  C   UNL     1      -3.556  -2.337  23.873  0.00  0.00    +0.029 A 
ATOM     20  C   UNL     1      -4.103  -1.720  23.900  0.00  0.00    -0.000 A 
ENDBRANCH  13  14
ENDBRANCH  12  13
TORSDOF 4
ENDMDL
