MODEL 1
REMARK VINA RESULT:     -11.7      0.000      0.000
REMARK  Name = 
REMARK  8 active torsions:
REMARK  status: ('A' for Active; 'I' for Inactive)
REMARK    1  A    between atoms: C_5  and  C_6
REMARK    2  A    between atoms: C_6  and  C_7
REMARK    3  A    between atoms: C_9  and  C_12
REMARK    4  A    between atoms: C_15  and  O_16
REMARK    5  A    between atoms: O_16  and  C_17
REMARK    6  A    between atoms: C_24  and  C_25
REMARK    7  A    between atoms: C_25  and  N_26
REMARK    8  A    between atoms: C_27  and  C_29
REMARK                            x       y       z     vdW  Elec       q    Type
REMARK                         _______ _______ _______ _____ _____    ______ ____
ROOT
ATOM      7  C   UNL     1      -4.359   1.777  24.505  0.00  0.00    +0.239 A 
ATOM      8  N   UNL     1      -3.970   1.064  24.358  0.00  0.00    -0.191 NA
ATOM      9  C   UNL     1      -4.347   0.475  24.796  0.00  0.00    +0.203 A 
ATOM     10  N   UNL     1      -4.967   0.822  25.213  0.00  0.00    -0.056 NA
ATOM     11  O   UNL     1      -4.975   1.628  25.033  0.00  0.00    -0.337 OA
ENDROOT
BRANCH   9  12
ATOM     12  C   UNL     1      -4.138  -0.324  24.813  0.00  0.00    +0.039 A 
ATOM     13  C   UNL     1      -4.310  -0.809  24.169  0.00  0.00    +0.006 A 
ATOM     14  C   UNL     1      -4.102  -1.607  24.186  0.00  0.00    +0.037 A 
ATOM     15  C   UNL     1      -3.720  -1.920  24.848  0.00  0.00    +0.147 A 
ATOM     21  C   UNL     1      -3.548  -1.434  25.492  0.00  0.00    +0.037 A 
ATOM     22  C   UNL     1      -3.757  -0.636  25.475  0.00  0.00    +0.006 A 
BRANCH  15  16
ATOM     16  O   UNL     1      -3.512  -2.717  24.866  0.00  0.00    -0.404 OA
BRANCH  16  17
ATOM     17  C   UNL     1      -2.860  -2.983  24.435  0.00  0.00    +0.575 C 
ATOM     18  F   UNL     1      -2.209  -3.249  24.004  0.00  0.00    -0.133 F 
ATOM     19  F   UNL     1      -2.359  -2.746  25.046  0.00  0.00    -0.133 F 
ATOM     20  F   UNL     1      -3.363  -3.219  23.824  0.00  0.00    -0.133 F 
ENDBRANCH  16  17
ENDBRANCH  15  16
ENDBRANCH   9  12
BRANCH   7   6
ATOM      6  C   UNL     1      -4.166   2.512  24.180  0.00  0.00    +0.120 C 
BRANCH   6   5
ATOM      1  O   UNL     1      -2.395   4.636  25.066  0.00  0.00    -0.218 OA
ATOM      2  C   UNL     1      -2.685   3.893  24.854  0.00  0.00    +0.213 C 
ATOM      3  C   UNL     1      -3.451   3.726  24.598  0.00  0.00    +0.212 C 
ATOM      4  O   UNL     1      -4.062   4.273  24.508  0.00  0.00    -0.218 OA
ATOM      5  C   UNL     1      -3.500   2.917  24.447  0.00  0.00    +0.157 C 
ATOM     23  O   UNL     1      -2.762   2.583  24.611  0.00  0.00    -0.351 OA
ATOM     24  C   UNL     1      -2.259   3.186  24.862  0.00  0.00    +0.170 C 
BRANCH  24  25
ATOM     25  C   UNL     1      -1.469   3.099  25.083  0.00  0.00    +0.147 C 
BRANCH  25  26
ATOM     26  N   UNL     1      -0.926   2.776  24.553  0.00  0.00    -0.203 NA
ATOM     27  C   UNL     1      -0.221   2.450  24.832  0.00  0.00    +0.241 C 
ATOM     28  O   UNL     1       0.323   2.127  24.303  0.00  0.00    -0.273 OA
BRANCH  27  29
ATOM     29  C   UNL     1      -0.060   2.447  25.641  0.00  0.00    +0.078 C 
ATOM     30  C   UNL     1       0.276   2.806  26.305  0.00  0.00    +0.010 C 
ATOM     31  C   UNL     1      -0.116   2.084  26.380  0.00  0.00    +0.010 C 
ENDBRANCH  27  29
ENDBRANCH  25  26
ENDBRANCH  24  25
ENDBRANCH   6   5
ENDBRANCH   7   6
TORSDOF 8
ENDMDL
MODEL 2
REMARK VINA RESULT:     -11.7      1.057      1.493
REMARK  Name = 
REMARK  8 active torsions:
REMARK  status: ('A' for Active; 'I' for Inactive)
REMARK    1  A    between atoms: C_5  and  C_6
REMARK    2  A    between atoms: C_6  and  C_7
REMARK    3  A    between atoms: C_9  and  C_12
REMARK    4  A    between atoms: C_15  and  O_16
REMARK    5  A    between atoms: O_16  and  C_17
REMARK    6  A    between atoms: C_24  and  C_25
REMARK    7  A    between atoms: C_25  and  N_26
REMARK    8  A    between atoms: C_27  and  C_29
REMARK                            x       y       z     vdW  Elec       q    Type
REMARK                         _______ _______ _______ _____ _____    ______ ____
ROOT
ATOM      7  C   UNL     1      -4.824   1.377  24.869  0.00  0.00    +0.239 A 
ATOM      8  N   UNL     1      -4.336   0.778  24.580  0.00  0.00    -0.191 NA
ATOM      9  C   UNL     1      -4.428   0.118  25.066  0.00  0.00    +0.203 A 
ATOM     10  N   UNL     1      -4.972   0.308  25.655  0.00  0.00    -0.056 NA
ATOM     11  O   UNL     1      -5.218   1.087  25.533  0.00  0.00    -0.337 OA
ENDROOT
BRANCH   9  12
ATOM     12  C   UNL     1      -4.042  -0.607  24.978  0.00  0.00    +0.039 A 
ATOM     13  C   UNL     1      -3.534  -0.877  25.570  0.00  0.00    +0.006 A 
ATOM     14  C   UNL     1      -3.148  -1.601  25.482  0.00  0.00    +0.037 A 
ATOM     15  C   UNL     1      -3.270  -2.055  24.803  0.00  0.00    +0.147 A 
ATOM     21  C   UNL     1      -3.779  -1.784  24.213  0.00  0.00    +0.037 A 
ATOM     22  C   UNL     1      -4.164  -1.060  24.300  0.00  0.00    +0.006 A 
BRANCH  15  16
ATOM     16  O   UNL     1      -2.885  -2.778  24.715  0.00  0.00    -0.404 OA
BRANCH  16  17
ATOM     17  C   UNL     1      -2.158  -2.814  24.328  0.00  0.00    +0.575 C 
ATOM     18  F   UNL     1      -1.430  -2.850  23.942  0.00  0.00    -0.133 F 
ATOM     19  F   UNL     1      -2.542  -2.998  23.622  0.00  0.00    -0.133 F 
ATOM     20  F   UNL     1      -1.774  -2.630  25.035  0.00  0.00    -0.133 F 
ENDBRANCH  16  17
ENDBRANCH  15  16
ENDBRANCH   9  12
BRANCH   7   6
ATOM      6  C   UNL     1      -4.905   2.134  24.549  0.00  0.00    +0.120 C 
BRANCH   6   5
ATOM      1  O   UNL     1      -4.112   4.632  25.801  0.00  0.00    -0.218 OA
ATOM      2  C   UNL     1      -4.082   3.903  25.416  0.00  0.00    +0.213 C 
ATOM      3  C   UNL     1      -4.729   3.432  25.217  0.00  0.00    +0.212 C 
ATOM      4  O   UNL     1      -5.521   3.607  25.369  0.00  0.00    -0.218 OA
ATOM      5  C   UNL     1      -4.447   2.754  24.841  0.00  0.00    +0.157 C 
ATOM     23  O   UNL     1      -3.624   2.807  24.806  0.00  0.00    -0.351 OA
ATOM     24  C   UNL     1      -3.398   3.516  25.161  0.00  0.00    +0.170 C 
BRANCH  24  25
ATOM     25  C   UNL     1      -2.625   3.792  25.248  0.00  0.00    +0.147 C 
BRANCH  25  26
ATOM     26  N   UNL     1      -2.059   3.323  25.622  0.00  0.00    -0.203 NA
ATOM     27  C   UNL     1      -1.260   3.525  25.576  0.00  0.00    +0.241 C 
ATOM     28  O   UNL     1      -0.694   3.056  25.951  0.00  0.00    -0.273 OA
BRANCH  27  29
ATOM     29  C   UNL     1      -1.028   4.195  25.155  0.00  0.00    +0.078 C 
ATOM     30  C   UNL     1      -0.685   4.535  24.485  0.00  0.00    +0.010 C 
ATOM     31  C   UNL     1      -0.967   5.016  25.094  0.00  0.00    +0.010 C 
ENDBRANCH  27  29
ENDBRANCH  25  26
ENDBRANCH  24  25
ENDBRANCH   6   5
ENDBRANCH   7   6
TORSDOF 8
ENDMDL
MODEL 3
REMARK VINA RESULT:     -11.1      1.511      3.097
REMARK  Name = 
REMARK  8 active torsions:
REMARK  status: ('A' for Active; 'I' for Inactive)
REMARK    1  A    between atoms: C_5  and  C_6
REMARK    2  A    between atoms: C_6  and  C_7
REMARK    3  A    between atoms: C_9  and  C_12
REMARK    4  A    between atoms: C_15  and  O_16
REMARK    5  A    between atoms: O_16  and  C_17
REMARK    6  A    between atoms: C_24  and  C_25
REMARK    7  A    between atoms: C_25  and  N_26
REMARK    8  A    between atoms: C_27  and  C_29
REMARK                            x       y       z     vdW  Elec       q    Type
REMARK                         _______ _______ _______ _____ _____    ______ ____
ROOT
ATOM      7  C   UNL     1      -0.668   1.238  25.258  0.00  0.00    +0.239 A 
ATOM      8  N   UNL     1      -1.175   0.622  25.470  0.00  0.00    -0.191 NA
ATOM      9  C   UNL     1      -1.091   0.021  24.911  0.00  0.00    +0.203 A 
ATOM     10  N   UNL     1      -0.533   0.265  24.355  0.00  0.00    -0.056 NA
ATOM     11  O   UNL     1      -0.271   1.017  24.570  0.00  0.00    -0.337 OA
ENDROOT
BRANCH   9  12
ATOM     12  C   UNL     1      -1.495  -0.699  24.909  0.00  0.00    +0.039 A 
ATOM     13  C   UNL     1      -2.286  -0.728  25.142  0.00  0.00    +0.006 A 
ATOM     14  C   UNL     1      -2.690  -1.447  25.141  0.00  0.00    +0.037 A 
ATOM     15  C   UNL     1      -2.303  -2.137  24.906  0.00  0.00    +0.147 A 
ATOM     21  C   UNL     1      -1.513  -2.107  24.673  0.00  0.00    +0.037 A 
ATOM     22  C   UNL     1      -1.109  -1.388  24.675  0.00  0.00    +0.006 A 
BRANCH  15  16
ATOM     16  O   UNL     1      -2.707  -2.856  24.904  0.00  0.00    -0.404 OA
BRANCH  16  17
ATOM     17  C   UNL     1      -3.431  -2.922  24.515  0.00  0.00    +0.575 C 
ATOM     18  F   UNL     1      -4.155  -2.988  24.126  0.00  0.00    -0.133 F 
ATOM     19  F   UNL     1      -3.036  -3.052  23.802  0.00  0.00    -0.133 F 
ATOM     20  F   UNL     1      -3.825  -2.791  25.228  0.00  0.00    -0.133 F 
ENDBRANCH  16  17
ENDBRANCH  15  16
ENDBRANCH   9  12
BRANCH   7   6
ATOM      6  C   UNL     1      -0.574   1.951  25.665  0.00  0.00    +0.120 C 
BRANCH   6   5
ATOM      1  O   UNL     1      -1.732   4.601  25.399  0.00  0.00    -0.218 OA
ATOM      2  C   UNL     1      -1.648   3.781  25.431  0.00  0.00    +0.213 C 
ATOM      3  C   UNL     1      -0.946   3.370  25.568  0.00  0.00    +0.212 C 
ATOM      4  O   UNL     1      -0.204   3.707  25.698  0.00  0.00    -0.218 OA
ATOM      5  C   UNL     1      -1.115   2.563  25.553  0.00  0.00    +0.157 C 
ATOM     23  O   UNL     1      -1.923   2.475  25.406  0.00  0.00    -0.351 OA
ATOM     24  C   UNL     1      -2.252   3.227  25.331  0.00  0.00    +0.170 C 
BRANCH  24  25
ATOM     25  C   UNL     1      -3.045   3.397  25.181  0.00  0.00    +0.147 C 
BRANCH  25  26
ATOM     26  N   UNL     1      -3.405   3.118  24.494  0.00  0.00    -0.203 NA
ATOM     27  C   UNL     1      -4.228   3.063  24.452  0.00  0.00    +0.241 C 
ATOM     28  O   UNL     1      -4.588   2.783  23.765  0.00  0.00    -0.273 OA
BRANCH  27  29
ATOM     29  C   UNL     1      -4.689   3.288  25.097  0.00  0.00    +0.078 C 
ATOM     30  C   UNL     1      -5.086   3.874  25.523  0.00  0.00    +0.010 C 
ATOM     31  C   UNL     1      -5.094   3.094  25.790  0.00  0.00    +0.010 C 
ENDBRANCH  27  29
ENDBRANCH  25  26
ENDBRANCH  24  25
ENDBRANCH   6   5
ENDBRANCH   7   6
TORSDOF 8
ENDMDL
MODEL 4
REMARK VINA RESULT:     -10.7      2.730      5.283
REMARK  Name = 
REMARK  8 active torsions:
REMARK  status: ('A' for Active; 'I' for Inactive)
REMARK    1  A    between atoms: C_5  and  C_6
REMARK    2  A    between atoms: C_6  and  C_7
REMARK    3  A    between atoms: C_9  and  C_12
REMARK    4  A    between atoms: C_15  and  O_16
REMARK    5  A    between atoms: O_16  and  C_17
REMARK    6  A    between atoms: C_24  and  C_25
REMARK    7  A    between atoms: C_25  and  N_26
REMARK    8  A    between atoms: C_27  and  C_29
REMARK                            x       y       z     vdW  Elec       q    Type
REMARK                         _______ _______ _______ _____ _____    ______ ____
ROOT
ATOM      7  C   UNL     1      -0.919   1.688  24.401  0.00  0.00    +0.239 A 
ATOM      8  N   UNL     1      -1.614   1.854  24.814  0.00  0.00    -0.191 NA
ATOM      9  C   UNL     1      -1.966   2.514  24.465  0.00  0.00    +0.203 A 
ATOM     10  N   UNL     1      -1.490   2.755  23.837  0.00  0.00    -0.056 NA
ATOM     11  O   UNL     1      -0.842   2.244  23.797  0.00  0.00    -0.337 OA
ENDROOT
BRANCH   9  12
ATOM     12  C   UNL     1      -2.672   2.870  24.703  0.00  0.00    +0.039 A 
ATOM     13  C   UNL     1      -2.675   3.390  25.344  0.00  0.00    +0.006 A 
ATOM     14  C   UNL     1      -3.380   3.746  25.582  0.00  0.00    +0.037 A 
ATOM     15  C   UNL     1      -4.082   3.582  25.180  0.00  0.00    +0.147 A 
ATOM     21  C   UNL     1      -4.077   3.062  24.539  0.00  0.00    +0.037 A 
ATOM     22  C   UNL     1      -3.372   2.706  24.301  0.00  0.00    +0.006 A 
BRANCH  15  16
ATOM     16  O   UNL     1      -4.786   3.937  25.417  0.00  0.00    -0.404 OA
BRANCH  16  17
ATOM     17  C   UNL     1      -5.391   3.479  25.742  0.00  0.00    +0.575 C 
ATOM     18  F   UNL     1      -5.995   3.021  26.067  0.00  0.00    -0.133 F 
ATOM     19  F   UNL     1      -4.980   3.443  26.456  0.00  0.00    -0.133 F 
ATOM     20  F   UNL     1      -5.801   3.516  25.027  0.00  0.00    -0.133 F 
ENDBRANCH  16  17
ENDBRANCH  15  16
ENDBRANCH   9  12
BRANCH   7   6
ATOM      6  C   UNL     1      -0.394   1.072  24.563  0.00  0.00    +0.120 C 
BRANCH   6   5
ATOM      1  O   UNL     1      -0.458  -1.773  23.983  0.00  0.00    -0.218 OA
ATOM      2  C   UNL     1      -0.676  -1.019  24.236  0.00  0.00    +0.213 C 
ATOM      3  C   UNL     1      -0.214  -0.337  24.185  0.00  0.00    +0.212 C 
ATOM      4  O   UNL     1       0.548  -0.290  23.871  0.00  0.00    -0.218 OA
ATOM      5  C   UNL     1      -0.646   0.289  24.503  0.00  0.00    +0.157 C 
ATOM     23  O   UNL     1      -1.376  -0.006  24.751  0.00  0.00    -0.351 OA
ATOM     24  C   UNL     1      -1.395  -0.813  24.586  0.00  0.00    +0.170 C 
BRANCH  24  25
ATOM     25  C   UNL     1      -2.021  -1.327  24.743  0.00  0.00    +0.147 C 
BRANCH  25  26
ATOM     26  N   UNL     1      -2.475  -1.229  25.424  0.00  0.00    -0.203 NA
ATOM     27  C   UNL     1      -3.217  -1.585  25.481  0.00  0.00    +0.241 C 
ATOM     28  O   UNL     1      -3.671  -1.487  26.163  0.00  0.00    -0.273 OA
BRANCH  27  29
ATOM     29  C   UNL     1      -3.505  -2.039  24.856  0.00  0.00    +0.078 C 
ATOM     30  C   UNL     1      -3.926  -2.096  24.148  0.00  0.00    +0.010 C 
ATOM     31  C   UNL     1      -3.584  -2.770  24.480  0.00  0.00    +0.010 C 
ENDBRANCH  27  29
ENDBRANCH  25  26
ENDBRANCH  24  25
ENDBRANCH   6   5
ENDBRANCH   7   6
TORSDOF 8
ENDMDL
MODEL 5
REMARK VINA RESULT:      -8.4     16.326     19.020
REMARK  Name = 
REMARK  8 active torsions:
REMARK  status: ('A' for Active; 'I' for Inactive)
REMARK    1  A    between atoms: C_5  and  C_6
REMARK    2  A    between atoms: C_6  and  C_7
REMARK    3  A    between atoms: C_9  and  C_12
REMARK    4  A    between atoms: C_15  and  O_16
REMARK    5  A    between atoms: O_16  and  C_17
REMARK    6  A    between atoms: C_24  and  C_25
REMARK    7  A    between atoms: C_25  and  N_26
REMARK    8  A    between atoms: C_27  and  C_29
REMARK                            x       y       z     vdW  Elec       q    Type
REMARK                         _______ _______ _______ _____ _____    ______ ____
ROOT
ATOM      7  C   UNL     1      13.701   8.165  18.155  0.00  0.00    +0.239 A 
ATOM      8  N   UNL     1      14.274   8.200  18.748  0.00  0.00    -0.191 NA
ATOM      9  C   UNL     1      14.788   7.563  18.642  0.00  0.00    +0.203 A 
ATOM     10  N   UNL     1      14.533   7.135  17.986  0.00  0.00    -0.056 NA
ATOM     11  O   UNL     1      13.861   7.507  17.684  0.00  0.00    -0.337 OA
ENDROOT
BRANCH   9  12
ATOM     12  C   UNL     1      15.443   7.386  19.113  0.00  0.00    +0.039 A 
ATOM     13  C   UNL     1      15.720   7.939  19.659  0.00  0.00    +0.006 A 
ATOM     14  C   UNL     1      16.374   7.762  20.129  0.00  0.00    +0.037 A 
ATOM     15  C   UNL     1      16.752   7.032  20.053  0.00  0.00    +0.147 A 
ATOM     21  C   UNL     1      16.474   6.479  19.507  0.00  0.00    +0.037 A 
ATOM     22  C   UNL     1      15.820   6.656  19.037  0.00  0.00    +0.006 A 
BRANCH  15  16
ATOM     16  O   UNL     1      17.405   6.855  20.523  0.00  0.00    -0.404 OA
BRANCH  16  17
ATOM     17  C   UNL     1      17.301   6.487  21.254  0.00  0.00    +0.575 C 
ATOM     18  F   UNL     1      17.198   6.118  21.984  0.00  0.00    -0.133 F 
ATOM     19  F   UNL     1      17.224   7.224  21.614  0.00  0.00    -0.133 F 
ATOM     20  F   UNL     1      17.379   5.749  20.891  0.00  0.00    -0.133 F 
ENDBRANCH  16  17
ENDBRANCH  15  16
ENDBRANCH   9  12
BRANCH   7   6
ATOM      6  C   UNL     1      13.077   8.696  18.051  0.00  0.00    +0.120 C 
BRANCH   6   5
ATOM      1  O   UNL     1      10.261   8.599  18.755  0.00  0.00    -0.218 OA
ATOM      2  C   UNL     1      11.084   8.553  18.801  0.00  0.00    +0.213 C 
ATOM      3  C   UNL     1      11.614   8.713  18.190  0.00  0.00    +0.212 C 
ATOM      4  O   UNL     1      11.414   8.948  17.424  0.00  0.00    -0.218 OA
ATOM      5  C   UNL     1      12.378   8.597  18.477  0.00  0.00    +0.157 C 
ATOM     23  O   UNL     1      12.320   8.365  19.267  0.00  0.00    -0.351 OA
ATOM     24  C   UNL     1      11.521   8.337  19.467  0.00  0.00    +0.170 C 
BRANCH  24  25
ATOM     25  C   UNL     1      11.212   8.131  20.204  0.00  0.00    +0.147 C 
BRANCH  25  26
ATOM     26  N   UNL     1      11.268   7.354  20.473  0.00  0.00    -0.203 NA
ATOM     27  C   UNL     1      11.100   7.176  21.261  0.00  0.00    +0.241 C 
ATOM     28  O   UNL     1      11.157   6.398  21.529  0.00  0.00    -0.273 OA
BRANCH  27  29
ATOM     29  C   UNL     1      10.875   7.776  21.780  0.00  0.00    +0.078 C 
ATOM     30  C   UNL     1      11.076   8.367  22.320  0.00  0.00    +0.010 C 
ATOM     31  C   UNL     1      10.284   8.226  22.139  0.00  0.00    +0.010 C 
ENDBRANCH  27  29
ENDBRANCH  25  26
ENDBRANCH  24  25
ENDBRANCH   6   5
ENDBRANCH   7   6
TORSDOF 8
ENDMDL
