MODEL 1
REMARK VINA RESULT:     -10.9      0.000      0.000
REMARK  Name = 
REMARK  5 active torsions:
REMARK  status: ('A' for Active; 'I' for Inactive)
REMARK    1  A    between atoms: C_2  and  C_5
REMARK    2  A    between atoms: C_8  and  O_9
REMARK    3  A    between atoms: O_9  and  C_10
REMARK    4  A    between atoms: N_15  and  C_16
REMARK    5  A    between atoms: C_16  and  C_17
REMARK                            x       y       z     vdW  Elec       q    Type
REMARK                         _______ _______ _______ _____ _____    ______ ____
ROOT
ATOM      9  O   UNL     1      -3.135   1.454  24.082  0.00  0.00    -0.475 OA
ENDROOT
BRANCH   9  10
ATOM     10  C   UNL     1      -3.389   2.128  24.486  0.00  0.00    +0.211 C 
ATOM     11  C   UNL     1      -4.187   2.318  24.395  0.00  0.00    +0.187 C 
ATOM     12  O   UNL     1      -4.605   2.950  24.723  0.00  0.00    -0.348 OA
ATOM     13  C   UNL     1      -4.329   3.546  25.220  0.00  0.00    +0.160 C 
ATOM     14  C   UNL     1      -3.566   3.660  25.514  0.00  0.00    +0.105 C 
ATOM     15  N   UNL     1      -2.891   3.203  25.382  0.00  0.00    -0.267 NA
ATOM     20  C   UNL     1      -2.813   2.522  24.925  0.00  0.00    +0.119 C 
BRANCH  15  16
ATOM     16  C   UNL     1      -2.205   3.464  25.759  0.00  0.00    +0.072 C 
BRANCH  16  17
ATOM     17  C   UNL     1      -1.740   4.049  25.409  0.00  0.00    +0.016 C 
ATOM     18  C   UNL     1      -1.638   4.831  25.168  0.00  0.00    +0.001 C 
ATOM     19  C   UNL     1      -1.037   4.281  25.044  0.00  0.00    +0.001 C 
ENDBRANCH  16  17
ENDBRANCH  15  16
ENDBRANCH   9  10
BRANCH   9   8
ATOM      5  C   UNL     1      -3.490  -0.787  25.071  0.00  0.00    +0.072 A 
ATOM      6  C   UNL     1      -4.083  -0.438  24.616  0.00  0.00    +0.007 A 
ATOM      7  C   UNL     1      -3.965   0.309  24.286  0.00  0.00    +0.037 A 
ATOM      8  C   UNL     1      -3.253   0.707  24.412  0.00  0.00    +0.139 A 
ATOM     21  C   UNL     1      -2.660   0.359  24.867  0.00  0.00    +0.037 A 
ATOM     22  C   UNL     1      -2.778  -0.388  25.196  0.00  0.00    +0.007 A 
BRANCH   5   2
ATOM      1  F   UNL     1      -3.726  -2.280  25.731  0.00  0.00    -0.166 F 
ATOM      2  C   UNL     1      -3.608  -1.534  25.400  0.00  0.00    +0.419 C 
ATOM      3  F   UNL     1      -3.525  -1.877  24.655  0.00  0.00    -0.166 F 
ATOM      4  F   UNL     1      -3.691  -1.190  26.147  0.00  0.00    -0.166 F 
ENDBRANCH   5   2
ENDBRANCH   9   8
TORSDOF 5
ENDMDL
MODEL 2
REMARK VINA RESULT:     -10.8      1.059      1.593
REMARK  Name = 
REMARK  5 active torsions:
REMARK  status: ('A' for Active; 'I' for Inactive)
REMARK    1  A    between atoms: C_2  and  C_5
REMARK    2  A    between atoms: C_8  and  O_9
REMARK    3  A    between atoms: O_9  and  C_10
REMARK    4  A    between atoms: N_15  and  C_16
REMARK    5  A    between atoms: C_16  and  C_17
REMARK                            x       y       z     vdW  Elec       q    Type
REMARK                         _______ _______ _______ _____ _____    ______ ____
ROOT
ATOM      9  O   UNL     1      -3.901   0.770  24.750  0.00  0.00    -0.475 OA
ENDROOT
BRANCH   9  10
ATOM     10  C   UNL     1      -3.332   1.222  24.358  0.00  0.00    +0.211 C 
ATOM     11  C   UNL     1      -3.348   1.180  23.534  0.00  0.00    +0.187 C 
ATOM     12  O   UNL     1      -2.858   1.562  22.991  0.00  0.00    -0.348 OA
ATOM     13  C   UNL     1      -2.233   2.078  23.137  0.00  0.00    +0.160 C 
ATOM     14  C   UNL     1      -1.941   2.342  23.863  0.00  0.00    +0.105 C 
ATOM     15  N   UNL     1      -2.205   2.152  24.622  0.00  0.00    -0.267 NA
ATOM     20  C   UNL     1      -2.823   1.654  24.842  0.00  0.00    +0.119 C 
BRANCH  15  16
ATOM     16  C   UNL     1      -1.794   2.510  25.242  0.00  0.00    +0.072 C 
BRANCH  16  17
ATOM     17  C   UNL     1      -1.967   3.287  25.456  0.00  0.00    +0.016 C 
ATOM     18  C   UNL     1      -2.479   3.838  25.795  0.00  0.00    +0.001 C 
ATOM     19  C   UNL     1      -1.753   4.084  25.490  0.00  0.00    +0.001 C 
ENDBRANCH  16  17
ENDBRANCH  15  16
ENDBRANCH   9  10
BRANCH   9   8
ATOM      5  C   UNL     1      -3.692  -1.695  24.819  0.00  0.00    +0.072 A 
ATOM      6  C   UNL     1      -4.129  -1.336  24.218  0.00  0.00    +0.007 A 
ATOM      7  C   UNL     1      -4.198  -0.513  24.196  0.00  0.00    +0.037 A 
ATOM      8  C   UNL     1      -3.832  -0.052  24.772  0.00  0.00    +0.139 A 
ATOM     21  C   UNL     1      -3.395  -0.412  25.373  0.00  0.00    +0.037 A 
ATOM     22  C   UNL     1      -3.325  -1.233  25.396  0.00  0.00    +0.007 A 
BRANCH   5   2
ATOM      1  F   UNL     1      -3.551  -3.338  24.865  0.00  0.00    -0.166 F 
ATOM      2  C   UNL     1      -3.622  -2.517  24.842  0.00  0.00    +0.419 C 
ATOM      3  F   UNL     1      -3.674  -2.499  25.665  0.00  0.00    -0.166 F 
ATOM      4  F   UNL     1      -3.569  -2.535  24.018  0.00  0.00    -0.166 F 
ENDBRANCH   5   2
ENDBRANCH   9   8
TORSDOF 5
ENDMDL
MODEL 3
REMARK VINA RESULT:     -10.8      1.297      2.242
REMARK  Name = 
REMARK  5 active torsions:
REMARK  status: ('A' for Active; 'I' for Inactive)
REMARK    1  A    between atoms: C_2  and  C_5
REMARK    2  A    between atoms: C_8  and  O_9
REMARK    3  A    between atoms: O_9  and  C_10
REMARK    4  A    between atoms: N_15  and  C_16
REMARK    5  A    between atoms: C_16  and  C_17
REMARK                            x       y       z     vdW  Elec       q    Type
REMARK                         _______ _______ _______ _____ _____    ______ ____
ROOT
ATOM      9  O   UNL     1      -3.179   0.462  23.638  0.00  0.00    -0.475 OA
ENDROOT
BRANCH   9  10
ATOM     10  C   UNL     1      -3.155   1.158  24.082  0.00  0.00    +0.211 C 
ATOM     11  C   UNL     1      -2.423   1.343  24.418  0.00  0.00    +0.187 C 
ATOM     12  O   UNL     1      -2.222   1.992  24.885  0.00  0.00    -0.348 OA
ATOM     13  C   UNL     1      -2.701   2.616  25.132  0.00  0.00    +0.160 C 
ATOM     14  C   UNL     1      -3.500   2.746  24.973  0.00  0.00    +0.105 C 
ATOM     15  N   UNL     1      -4.017   2.283  24.527  0.00  0.00    -0.267 NA
ATOM     20  C   UNL     1      -3.863   1.577  24.131  0.00  0.00    +0.119 C 
BRANCH  15  16
ATOM     16  C   UNL     1      -4.791   2.564  24.471  0.00  0.00    +0.072 C 
BRANCH  16  17
ATOM     17  C   UNL     1      -5.345   2.364  25.049  0.00  0.00    +0.016 C 
ATOM     18  C   UNL     1      -5.603   2.389  25.832  0.00  0.00    +0.001 C 
ATOM     19  C   UNL     1      -6.049   1.989  25.265  0.00  0.00    +0.001 C 
ENDBRANCH  16  17
ENDBRANCH  15  16
ENDBRANCH   9  10
BRANCH   9   8
ATOM      5  C   UNL     1      -3.433  -1.721  24.775  0.00  0.00    +0.072 A 
ATOM      6  C   UNL     1      -4.067  -1.398  24.357  0.00  0.00    +0.007 A 
ATOM      7  C   UNL     1      -3.982  -0.670  23.977  0.00  0.00    +0.037 A 
ATOM      8  C   UNL     1      -3.264  -0.265  24.017  0.00  0.00    +0.139 A 
ATOM     21  C   UNL     1      -2.631  -0.589  24.436  0.00  0.00    +0.037 A 
ATOM     22  C   UNL     1      -2.715  -1.316  24.815  0.00  0.00    +0.007 A 
BRANCH   5   2
ATOM      1  F   UNL     1      -3.602  -3.176  25.534  0.00  0.00    -0.166 F 
ATOM      2  C   UNL     1      -3.518  -2.449  25.154  0.00  0.00    +0.419 C 
ATOM      3  F   UNL     1      -3.431  -2.837  24.431  0.00  0.00    -0.166 F 
ATOM      4  F   UNL     1      -3.605  -2.061  25.878  0.00  0.00    -0.166 F 
ENDBRANCH   5   2
ENDBRANCH   9   8
TORSDOF 5
ENDMDL
MODEL 4
REMARK VINA RESULT:     -10.4      2.522      4.501
REMARK  Name = 
REMARK  5 active torsions:
REMARK  status: ('A' for Active; 'I' for Inactive)
REMARK    1  A    between atoms: C_2  and  C_5
REMARK    2  A    between atoms: C_8  and  O_9
REMARK    3  A    between atoms: O_9  and  C_10
REMARK    4  A    between atoms: N_15  and  C_16
REMARK    5  A    between atoms: C_16  and  C_17
REMARK                            x       y       z     vdW  Elec       q    Type
REMARK                         _______ _______ _______ _____ _____    ______ ____
ROOT
ATOM      9  O   UNL     1      -3.596   0.986  24.097  0.00  0.00    -0.475 OA
ENDROOT
BRANCH   9  10
ATOM     10  C   UNL     1      -3.098   0.515  24.557  0.00  0.00    +0.211 C 
ATOM     11  C   UNL     1      -2.352   0.831  24.714  0.00  0.00    +0.187 C 
ATOM     12  O   UNL     1      -1.736   0.500  25.152  0.00  0.00    -0.348 OA
ATOM     13  C   UNL     1      -1.713  -0.226  25.541  0.00  0.00    +0.160 C 
ATOM     14  C   UNL     1      -2.301  -0.803  25.588  0.00  0.00    +0.105 C 
ATOM     15  N   UNL     1      -3.058  -0.794  25.258  0.00  0.00    -0.267 NA
ATOM     20  C   UNL     1      -3.412  -0.208  24.800  0.00  0.00    +0.119 C 
BRANCH  15  16
ATOM     16  C   UNL     1      -3.520  -1.462  25.407  0.00  0.00    +0.072 C 
BRANCH  16  17
ATOM     17  C   UNL     1      -3.509  -2.097  24.881  0.00  0.00    +0.016 C 
ATOM     18  C   UNL     1      -3.126  -2.755  24.562  0.00  0.00    +0.001 C 
ATOM     19  C   UNL     1      -3.873  -2.539  24.286  0.00  0.00    +0.001 C 
ENDBRANCH  16  17
ENDBRANCH  15  16
ENDBRANCH   9  10
BRANCH   9   8
ATOM      5  C   UNL     1      -4.926   2.784  25.156  0.00  0.00    +0.072 A 
ATOM      6  C   UNL     1      -5.256   2.035  25.051  0.00  0.00    +0.007 A 
ATOM      7  C   UNL     1      -4.812   1.435  24.698  0.00  0.00    +0.037 A 
ATOM      8  C   UNL     1      -4.040   1.585  24.450  0.00  0.00    +0.139 A 
ATOM     21  C   UNL     1      -3.710   2.334  24.555  0.00  0.00    +0.037 A 
ATOM     22  C   UNL     1      -4.153   2.933  24.908  0.00  0.00    +0.007 A 
BRANCH   5   2
ATOM      1  F   UNL     1      -5.812   3.984  25.861  0.00  0.00    -0.166 F 
ATOM      2  C   UNL     1      -5.369   3.384  25.509  0.00  0.00    +0.419 C 
ATOM      3  F   UNL     1      -5.614   2.859  26.096  0.00  0.00    -0.166 F 
ATOM      4  F   UNL     1      -5.124   3.910  24.922  0.00  0.00    -0.166 F 
ENDBRANCH   5   2
ENDBRANCH   9   8
TORSDOF 5
ENDMDL
