MODEL 1
REMARK VINA RESULT:     -10.8      0.000      0.000
REMARK  Name = 
REMARK  5 active torsions:
REMARK  status: ('A' for Active; 'I' for Inactive)
REMARK    1  A    between atoms: C_12  and  C_13
REMARK    2  A    between atoms: C_13  and  C_15
REMARK    3  A    between atoms: N_17  and  C_18
REMARK    4  A    between atoms: C_18  and  C_19
REMARK    5  A    between atoms: C_19  and  O_20
REMARK                            x       y       z     vdW  Elec       q    Type
REMARK                         _______ _______ _______ _____ _____    ______ ____
ROOT
ATOM      1  C   UNL     1      -3.410  -3.170  24.861  0.00  0.00    +0.138 C 
ATOM      2  N   UNL     1      -2.965  -2.597  24.469  0.00  0.00    -0.213 NA
ATOM      3  C   UNL     1      -3.196  -1.805  24.498  0.00  0.00    +0.179 A 
ATOM      4  N   UNL     1      -2.808  -1.174  24.134  0.00  0.00    -0.228 NA
ATOM      5  C   UNL     1      -3.227  -0.485  24.306  0.00  0.00    +0.063 A 
ATOM      6  C   UNL     1      -3.873  -0.690  24.775  0.00  0.00    +0.023 A 
ATOM      7  C   UNL     1      -4.397  -0.106  25.035  0.00  0.00    +0.034 C 
ATOM      8  C   UNL     1      -4.273   0.682  24.824  0.00  0.00    +0.007 C 
ATOM      9  C   UNL     1      -4.919   0.477  25.293  0.00  0.00    +0.000 C 
ATOM     10  C   UNL     1      -4.796   1.265  25.083  0.00  0.00    +0.001 C 
ATOM     11  C   UNL     1      -4.673   2.053  24.874  0.00  0.00    +0.003 C 
ATOM     12  C   UNL     1      -4.026   2.258  24.404  0.00  0.00    +0.039 C 
ATOM     22  C   UNL     1      -3.503   1.675  24.145  0.00  0.00    +0.153 C 
ATOM     23  O   UNL     1      -2.856   1.880  23.675  0.00  0.00    -0.223 OA
ATOM     24  C   UNL     1      -3.627   0.887  24.355  0.00  0.00    +0.036 C 
ATOM     25  C   UNL     1      -3.103   0.303  24.096  0.00  0.00    +0.043 C 
ATOM     26  C   UNL     1      -2.457   0.509  23.626  0.00  0.00    +0.006 C 
ATOM     27  S   UNL     1      -3.854  -1.506  24.893  0.00  0.00    -0.055 S 
ENDROOT
BRANCH  12  13
ATOM     13  C   UNL     1      -3.902   3.047  24.193  0.00  0.00    +0.081 C 
ATOM     14  C   UNL     1      -4.025   3.290  23.416  0.00  0.00    +0.010 C 
BRANCH  13  15
ATOM     15  C   UNL     1      -3.655   3.591  24.762  0.00  0.00    +0.241 C 
ATOM     16  O   UNL     1      -4.185   3.856  25.337  0.00  0.00    -0.273 OA
ATOM     17  N   UNL     1      -2.879   3.869  24.756  0.00  0.00    -0.203 NA
BRANCH  17  18
ATOM     18  C   UNL     1      -2.632   4.414  25.325  0.00  0.00    +0.147 C 
BRANCH  18  19
ATOM     19  C   UNL     1      -1.827   4.557  25.435  0.00  0.00    +0.166 C 
BRANCH  19  20
ATOM     20  O   UNL     1      -1.496   5.267  25.174  0.00  0.00    -0.349 OA
ATOM     21  C   UNL     1      -0.712   5.285  24.915  0.00  0.00    +0.174 C 
ENDBRANCH  19  20
ENDBRANCH  18  19
ENDBRANCH  17  18
ENDBRANCH  13  15
ENDBRANCH  12  13
TORSDOF 5
ENDMDL
MODEL 2
REMARK VINA RESULT:     -10.0      2.438      4.269
REMARK  Name = 
REMARK  5 active torsions:
REMARK  status: ('A' for Active; 'I' for Inactive)
REMARK    1  A    between atoms: C_12  and  C_13
REMARK    2  A    between atoms: C_13  and  C_15
REMARK    3  A    between atoms: N_17  and  C_18
REMARK    4  A    between atoms: C_18  and  C_19
REMARK    5  A    between atoms: C_19  and  O_20
REMARK                            x       y       z     vdW  Elec       q    Type
REMARK                         _______ _______ _______ _____ _____    ______ ____
ROOT
ATOM      1  C   UNL     1      -6.624   2.087  24.912  0.00  0.00    +0.138 C 
ATOM      2  N   UNL     1      -5.848   2.345  25.021  0.00  0.00    -0.213 NA
ATOM      3  C   UNL     1      -5.226   1.802  24.997  0.00  0.00    +0.179 A 
ATOM      4  N   UNL     1      -4.427   1.977  25.096  0.00  0.00    -0.228 NA
ATOM      5  C   UNL     1      -4.001   1.273  25.030  0.00  0.00    +0.063 A 
ATOM      6  C   UNL     1      -4.538   0.664  24.891  0.00  0.00    +0.023 A 
ATOM      7  C   UNL     1      -4.269  -0.112  24.800  0.00  0.00    +0.034 C 
ATOM      8  C   UNL     1      -3.462  -0.276  24.850  0.00  0.00    +0.007 C 
ATOM      9  C   UNL     1      -3.999  -0.885  24.710  0.00  0.00    +0.000 C 
ATOM     10  C   UNL     1      -3.193  -1.050  24.759  0.00  0.00    +0.001 C 
ATOM     11  C   UNL     1      -2.386  -1.215  24.808  0.00  0.00    +0.003 C 
ATOM     12  C   UNL     1      -1.848  -0.604  24.948  0.00  0.00    +0.039 C 
ATOM     22  C   UNL     1      -2.118   0.170  25.038  0.00  0.00    +0.153 C 
ATOM     23  O   UNL     1      -1.580   0.780  25.178  0.00  0.00    -0.223 OA
ATOM     24  C   UNL     1      -2.925   0.334  24.989  0.00  0.00    +0.036 C 
ATOM     25  C   UNL     1      -3.195   1.109  25.079  0.00  0.00    +0.043 C 
ATOM     26  C   UNL     1      -2.657   1.719  25.219  0.00  0.00    +0.006 C 
ATOM     27  S   UNL     1      -5.295   0.991  24.870  0.00  0.00    -0.055 S 
ENDROOT
BRANCH  12  13
ATOM     13  C   UNL     1      -1.040  -0.769  24.997  0.00  0.00    +0.081 C 
ATOM     14  C   UNL     1      -0.667  -0.785  25.731  0.00  0.00    +0.010 C 
BRANCH  13  15
ATOM     15  C   UNL     1      -0.608  -0.917  24.311  0.00  0.00    +0.241 C 
ATOM     16  O   UNL     1      -0.766  -1.590  23.860  0.00  0.00    -0.273 OA
ATOM     17  N   UNL     1      -0.018  -0.391  24.075  0.00  0.00    -0.203 NA
BRANCH  17  18
ATOM     18  C   UNL     1       0.415  -0.539  23.388  0.00  0.00    +0.147 C 
BRANCH  18  19
ATOM     19  C   UNL     1       1.023  -0.027  23.166  0.00  0.00    +0.166 C 
BRANCH  19  20
ATOM     20  O   UNL     1       1.499  -0.210  22.516  0.00  0.00    -0.349 OA
ATOM     21  C   UNL     1       2.266   0.089  22.471  0.00  0.00    +0.174 C 
ENDBRANCH  19  20
ENDBRANCH  18  19
ENDBRANCH  17  18
ENDBRANCH  13  15
ENDBRANCH  12  13
TORSDOF 5
ENDMDL
MODEL 3
REMARK VINA RESULT:      -9.5      1.940      5.083
REMARK  Name = 
REMARK  5 active torsions:
REMARK  status: ('A' for Active; 'I' for Inactive)
REMARK    1  A    between atoms: C_12  and  C_13
REMARK    2  A    between atoms: C_13  and  C_15
REMARK    3  A    between atoms: N_17  and  C_18
REMARK    4  A    between atoms: C_18  and  C_19
REMARK    5  A    between atoms: C_19  and  O_20
REMARK                            x       y       z     vdW  Elec       q    Type
REMARK                         _______ _______ _______ _____ _____    ______ ____
ROOT
ATOM      1  C   UNL     1      -0.669   5.540  24.882  0.00  0.00    +0.138 C 
ATOM      2  N   UNL     1      -1.403   5.347  25.205  0.00  0.00    -0.213 NA
ATOM      3  C   UNL     1      -1.737   4.607  25.056  0.00  0.00    +0.179 A 
ATOM      4  N   UNL     1      -2.463   4.338  25.340  0.00  0.00    -0.228 NA
ATOM      5  C   UNL     1      -2.580   3.571  25.057  0.00  0.00    +0.063 A 
ATOM      6  C   UNL     1      -1.925   3.368  24.599  0.00  0.00    +0.023 A 
ATOM      7  C   UNL     1      -1.888   2.625  24.240  0.00  0.00    +0.034 C 
ATOM      8  C   UNL     1      -2.504   2.087  24.341  0.00  0.00    +0.007 C 
ATOM      9  C   UNL     1      -1.850   1.883  23.882  0.00  0.00    +0.000 C 
ATOM     10  C   UNL     1      -2.467   1.344  23.983  0.00  0.00    +0.001 C 
ATOM     11  C   UNL     1      -3.083   0.806  24.083  0.00  0.00    +0.003 C 
ATOM     12  C   UNL     1      -3.738   1.010  24.543  0.00  0.00    +0.039 C 
ATOM     22  C   UNL     1      -3.776   1.752  24.901  0.00  0.00    +0.153 C 
ATOM     23  O   UNL     1      -4.431   1.956  25.360  0.00  0.00    -0.223 OA
ATOM     24  C   UNL     1      -3.158   2.290  24.799  0.00  0.00    +0.036 C 
ATOM     25  C   UNL     1      -3.196   3.033  25.158  0.00  0.00    +0.043 C 
ATOM     26  C   UNL     1      -3.851   3.237  25.617  0.00  0.00    +0.006 C 
ATOM     27  S   UNL     1      -1.405   4.008  24.598  0.00  0.00    -0.055 S 
ENDROOT
BRANCH  12  13
ATOM     13  C   UNL     1      -4.356   0.471  24.643  0.00  0.00    +0.081 C 
ATOM     14  C   UNL     1      -5.130   0.693  24.468  0.00  0.00    +0.010 C 
BRANCH  13  15
ATOM     15  C   UNL     1      -4.197  -0.290  24.920  0.00  0.00    +0.241 C 
ATOM     16  O   UNL     1      -4.038  -0.413  25.720  0.00  0.00    -0.273 OA
ATOM     17  N   UNL     1      -4.198  -0.926  24.396  0.00  0.00    -0.203 NA
BRANCH  17  18
ATOM     18  C   UNL     1      -4.040  -1.688  24.672  0.00  0.00    +0.147 C 
BRANCH  18  19
ATOM     19  C   UNL     1      -3.943  -2.308  24.137  0.00  0.00    +0.166 C 
BRANCH  19  20
ATOM     20  O   UNL     1      -3.694  -3.049  24.405  0.00  0.00    -0.349 OA
ATOM     21  C   UNL     1      -2.945  -3.330  24.202  0.00  0.00    +0.174 C 
ENDBRANCH  19  20
ENDBRANCH  18  19
ENDBRANCH  17  18
ENDBRANCH  13  15
ENDBRANCH  12  13
TORSDOF 5
ENDMDL
MODEL 4
REMARK VINA RESULT:      -9.5      2.772      4.560
REMARK  Name = 
REMARK  5 active torsions:
REMARK  status: ('A' for Active; 'I' for Inactive)
REMARK    1  A    between atoms: C_12  and  C_13
REMARK    2  A    between atoms: C_13  and  C_15
REMARK    3  A    between atoms: N_17  and  C_18
REMARK    4  A    between atoms: C_18  and  C_19
REMARK    5  A    between atoms: C_19  and  O_20
REMARK                            x       y       z     vdW  Elec       q    Type
REMARK                         _______ _______ _______ _____ _____    ______ ____
ROOT
ATOM      1  C   UNL     1      -5.557   3.875  25.568  0.00  0.00    +0.138 C 
ATOM      2  N   UNL     1      -5.470   3.097  25.309  0.00  0.00    -0.213 NA
ATOM      3  C   UNL     1      -4.715   2.783  25.193  0.00  0.00    +0.179 A 
ATOM      4  N   UNL     1      -4.543   2.019  24.938  0.00  0.00    -0.228 NA
ATOM      5  C   UNL     1      -3.723   1.942  24.899  0.00  0.00    +0.063 A 
ATOM      6  C   UNL     1      -3.388   2.659  25.130  0.00  0.00    +0.023 A 
ATOM      7  C   UNL     1      -2.567   2.746  25.146  0.00  0.00    +0.034 C 
ATOM      8  C   UNL     1      -2.082   2.115  24.929  0.00  0.00    +0.007 C 
ATOM      9  C   UNL     1      -1.748   2.833  25.161  0.00  0.00    +0.000 C 
ATOM     10  C   UNL     1      -1.262   2.202  24.945  0.00  0.00    +0.001 C 
ATOM     11  C   UNL     1      -0.776   1.572  24.728  0.00  0.00    +0.003 C 
ATOM     12  C   UNL     1      -1.110   0.854  24.496  0.00  0.00    +0.039 C 
ATOM     22  C   UNL     1      -1.931   0.767  24.481  0.00  0.00    +0.153 C 
ATOM     23  O   UNL     1      -2.265   0.049  24.249  0.00  0.00    -0.223 OA
ATOM     24  C   UNL     1      -2.416   1.398  24.698  0.00  0.00    +0.036 C 
ATOM     25  C   UNL     1      -3.237   1.311  24.682  0.00  0.00    +0.043 C 
ATOM     26  C   UNL     1      -3.571   0.593  24.450  0.00  0.00    +0.006 C 
ATOM     27  S   UNL     1      -4.002   3.179  25.312  0.00  0.00    -0.055 S 
ENDROOT
BRANCH  12  13
ATOM     13  C   UNL     1      -0.624   0.223  24.280  0.00  0.00    +0.081 C 
ATOM     14  C   UNL     1      -0.612  -0.464  24.735  0.00  0.00    +0.010 C 
BRANCH  13  15
ATOM     15  C   UNL     1      -0.150   0.280  23.607  0.00  0.00    +0.241 C 
ATOM     16  O   UNL     1      -0.476   0.532  22.892  0.00  0.00    -0.273 OA
ATOM     17  N   UNL     1       0.650   0.085  23.650  0.00  0.00    -0.203 NA
BRANCH  17  18
ATOM     18  C   UNL     1       1.125   0.143  22.976  0.00  0.00    +0.147 C 
BRANCH  18  19
ATOM     19  C   UNL     1       1.940   0.035  23.037  0.00  0.00    +0.166 C 
BRANCH  19  20
ATOM     20  O   UNL     1       2.416   0.098  22.365  0.00  0.00    -0.349 OA
ATOM     21  C   UNL     1       3.195   0.360  22.435  0.00  0.00    +0.174 C 
ENDBRANCH  19  20
ENDBRANCH  18  19
ENDBRANCH  17  18
ENDBRANCH  13  15
ENDBRANCH  12  13
TORSDOF 5
ENDMDL
MODEL 5
REMARK VINA RESULT:      -9.3      2.415      4.648
REMARK  Name = 
REMARK  5 active torsions:
REMARK  status: ('A' for Active; 'I' for Inactive)
REMARK    1  A    between atoms: C_12  and  C_13
REMARK    2  A    between atoms: C_13  and  C_15
REMARK    3  A    between atoms: N_17  and  C_18
REMARK    4  A    between atoms: C_18  and  C_19
REMARK    5  A    between atoms: C_19  and  O_20
REMARK                            x       y       z     vdW  Elec       q    Type
REMARK                         _______ _______ _______ _____ _____    ______ ____
ROOT
ATOM      1  C   UNL     1      -5.691   4.923  25.480  0.00  0.00    +0.138 C 
ATOM      2  N   UNL     1      -5.902   4.175  25.758  0.00  0.00    -0.213 NA
ATOM      3  C   UNL     1      -5.507   3.506  25.479  0.00  0.00    +0.179 A 
ATOM      4  N   UNL     1      -5.656   2.727  25.705  0.00  0.00    -0.228 NA
ATOM      5  C   UNL     1      -5.136   2.237  25.292  0.00  0.00    +0.063 A 
ATOM      6  C   UNL     1      -4.666   2.714  24.811  0.00  0.00    +0.023 A 
ATOM      7  C   UNL     1      -4.088   2.373  24.329  0.00  0.00    +0.034 C 
ATOM      8  C   UNL     1      -3.983   1.555  24.329  0.00  0.00    +0.007 C 
ATOM      9  C   UNL     1      -3.513   2.032  23.848  0.00  0.00    +0.000 C 
ATOM     10  C   UNL     1      -3.406   1.214  23.848  0.00  0.00    +0.001 C 
ATOM     11  C   UNL     1      -3.300   0.396  23.847  0.00  0.00    +0.003 C 
ATOM     12  C   UNL     1      -3.771  -0.081  24.328  0.00  0.00    +0.039 C 
ATOM     22  C   UNL     1      -4.348   0.260  24.810  0.00  0.00    +0.153 C 
ATOM     23  O   UNL     1      -4.818  -0.218  25.291  0.00  0.00    -0.223 OA
ATOM     24  C   UNL     1      -4.453   1.078  24.810  0.00  0.00    +0.036 C 
ATOM     25  C   UNL     1      -5.030   1.420  25.292  0.00  0.00    +0.043 C 
ATOM     26  C   UNL     1      -5.501   0.942  25.773  0.00  0.00    +0.006 C 
ATOM     27  S   UNL     1      -4.895   3.498  24.927  0.00  0.00    -0.055 S 
ENDROOT
BRANCH  12  13
ATOM     13  C   UNL     1      -3.665  -0.900  24.328  0.00  0.00    +0.081 C 
ATOM     14  C   UNL     1      -4.189  -1.383  23.915  0.00  0.00    +0.010 C 
BRANCH  13  15
ATOM     15  C   UNL     1      -3.034  -1.234  24.741  0.00  0.00    +0.241 C 
ATOM     16  O   UNL     1      -3.139  -1.492  25.517  0.00  0.00    -0.273 OA
ATOM     17  N   UNL     1      -2.297  -1.308  24.377  0.00  0.00    -0.203 NA
BRANCH  17  18
ATOM     18  C   UNL     1      -1.665  -1.642  24.790  0.00  0.00    +0.147 C 
BRANCH  18  19
ATOM     19  C   UNL     1      -0.924  -1.698  24.433  0.00  0.00    +0.166 C 
BRANCH  19  20
ATOM     20  O   UNL     1      -0.288  -1.265  24.733  0.00  0.00    -0.349 OA
ATOM     21  C   UNL     1       0.223  -0.874  24.217  0.00  0.00    +0.174 C 
ENDBRANCH  19  20
ENDBRANCH  18  19
ENDBRANCH  17  18
ENDBRANCH  13  15
ENDBRANCH  12  13
TORSDOF 5
ENDMDL
MODEL 6
REMARK VINA RESULT:      -9.2      2.717      3.652
REMARK  Name = 
REMARK  5 active torsions:
REMARK  status: ('A' for Active; 'I' for Inactive)
REMARK    1  A    between atoms: C_12  and  C_13
REMARK    2  A    between atoms: C_13  and  C_15
REMARK    3  A    between atoms: N_17  and  C_18
REMARK    4  A    between atoms: C_18  and  C_19
REMARK    5  A    between atoms: C_19  and  O_20
REMARK                            x       y       z     vdW  Elec       q    Type
REMARK                         _______ _______ _______ _____ _____    ______ ____
ROOT
ATOM      1  C   UNL     1       1.230  -0.475  23.395  0.00  0.00    +0.138 C 
ATOM      2  N   UNL     1       0.562  -0.108  23.081  0.00  0.00    -0.213 NA
ATOM      3  C   UNL     1       0.185   0.493  23.503  0.00  0.00    +0.179 A 
ATOM      4  N   UNL     1      -0.485   0.908  23.261  0.00  0.00    -0.228 NA
ATOM      5  C   UNL     1      -0.673   1.456  23.849  0.00  0.00    +0.063 A 
ATOM      6  C   UNL     1      -0.119   1.378  24.454  0.00  0.00    +0.023 A 
ATOM      7  C   UNL     1      -0.168   1.861  25.123  0.00  0.00    +0.034 C 
ATOM      8  C   UNL     1      -0.771   2.419  25.185  0.00  0.00    +0.007 C 
ATOM      9  C   UNL     1      -0.217   2.341  25.790  0.00  0.00    +0.000 C 
ATOM     10  C   UNL     1      -0.821   2.900  25.853  0.00  0.00    +0.001 C 
ATOM     11  C   UNL     1      -1.424   3.459  25.915  0.00  0.00    +0.003 C 
ATOM     12  C   UNL     1      -1.979   3.536  25.309  0.00  0.00    +0.039 C 
ATOM     22  C   UNL     1      -1.930   3.055  24.641  0.00  0.00    +0.153 C 
ATOM     23  O   UNL     1      -2.484   3.133  24.035  0.00  0.00    -0.223 OA
ATOM     24  C   UNL     1      -1.325   2.496  24.579  0.00  0.00    +0.036 C 
ATOM     25  C   UNL     1      -1.276   2.014  23.910  0.00  0.00    +0.043 C 
ATOM     26  C   UNL     1      -1.831   2.092  23.305  0.00  0.00    +0.006 C 
ATOM     27  S   UNL     1       0.411   0.783  24.240  0.00  0.00    -0.055 S 
ENDROOT
BRANCH  12  13
ATOM     13  C   UNL     1      -2.583   4.096  25.371  0.00  0.00    +0.081 C 
ATOM     14  C   UNL     1      -2.549   4.790  24.929  0.00  0.00    +0.010 C 
BRANCH  13  15
ATOM     15  C   UNL     1      -3.221   3.958  25.876  0.00  0.00    +0.241 C 
ATOM     16  O   UNL     1      -3.138   4.077  26.688  0.00  0.00    -0.273 OA
ATOM     17  N   UNL     1      -3.942   3.702  25.567  0.00  0.00    -0.203 NA
BRANCH  17  18
ATOM     18  C   UNL     1      -4.580   3.565  26.072  0.00  0.00    +0.147 C 
BRANCH  18  19
ATOM     19  C   UNL     1      -5.288   3.268  25.770  0.00  0.00    +0.166 C 
BRANCH  19  20
ATOM     20  O   UNL     1      -5.737   2.738  26.216  0.00  0.00    -0.349 OA
ATOM     21  C   UNL     1      -6.091   2.089  25.850  0.00  0.00    +0.174 C 
ENDBRANCH  19  20
ENDBRANCH  18  19
ENDBRANCH  17  18
ENDBRANCH  13  15
ENDBRANCH  12  13
TORSDOF 5
ENDMDL
MODEL 7
REMARK VINA RESULT:      -9.1      1.663      2.231
REMARK  Name = 
REMARK  5 active torsions:
REMARK  status: ('A' for Active; 'I' for Inactive)
REMARK    1  A    between atoms: C_12  and  C_13
REMARK    2  A    between atoms: C_13  and  C_15
REMARK    3  A    between atoms: N_17  and  C_18
REMARK    4  A    between atoms: C_18  and  C_19
REMARK    5  A    between atoms: C_19  and  O_20
REMARK                            x       y       z     vdW  Elec       q    Type
REMARK                         _______ _______ _______ _____ _____    ______ ____
ROOT
ATOM      1  C   UNL     1      -4.287  -3.222  24.224  0.00  0.00    +0.138 C 
ATOM      2  N   UNL     1      -3.514  -3.089  24.480  0.00  0.00    -0.213 NA
ATOM      3  C   UNL     1      -3.203  -2.325  24.475  0.00  0.00    +0.179 A 
ATOM      4  N   UNL     1      -2.444  -2.109  24.714  0.00  0.00    -0.228 NA
ATOM      5  C   UNL     1      -2.368  -1.293  24.618  0.00  0.00    +0.063 A 
ATOM      6  C   UNL     1      -3.081  -1.005  24.320  0.00  0.00    +0.023 A 
ATOM      7  C   UNL     1      -3.169  -0.198  24.167  0.00  0.00    +0.034 C 
ATOM      8  C   UNL     1      -2.543   0.319  24.312  0.00  0.00    +0.007 C 
ATOM      9  C   UNL     1      -3.256   0.607  24.015  0.00  0.00    +0.000 C 
ATOM     10  C   UNL     1      -2.631   1.125  24.160  0.00  0.00    +0.001 C 
ATOM     11  C   UNL     1      -2.006   1.643  24.304  0.00  0.00    +0.003 C 
ATOM     12  C   UNL     1      -1.292   1.354  24.603  0.00  0.00    +0.039 C 
ATOM     22  C   UNL     1      -1.204   0.548  24.755  0.00  0.00    +0.153 C 
ATOM     23  O   UNL     1      -0.491   0.261  25.053  0.00  0.00    -0.223 OA
ATOM     24  C   UNL     1      -1.831   0.031  24.610  0.00  0.00    +0.036 C 
ATOM     25  C   UNL     1      -1.743  -0.776  24.763  0.00  0.00    +0.043 C 
ATOM     26  C   UNL     1      -1.029  -1.064  25.061  0.00  0.00    +0.006 C 
ATOM     27  S   UNL     1      -3.597  -1.643  24.232  0.00  0.00    -0.055 S 
ENDROOT
BRANCH  12  13
ATOM     13  C   UNL     1      -0.666   1.873  24.748  0.00  0.00    +0.081 C 
ATOM     14  C   UNL     1       0.075   1.727  24.417  0.00  0.00    +0.010 C 
BRANCH  13  15
ATOM     15  C   UNL     1      -0.782   2.535  25.225  0.00  0.00    +0.241 C 
ATOM     16  O   UNL     1      -0.861   2.448  26.041  0.00  0.00    -0.273 OA
ATOM     17  N   UNL     1      -0.820   3.286  24.884  0.00  0.00    -0.203 NA
BRANCH  17  18
ATOM     18  C   UNL     1      -0.936   3.950  25.361  0.00  0.00    +0.147 C 
BRANCH  18  19
ATOM     19  C   UNL     1      -0.965   4.701  25.021  0.00  0.00    +0.166 C 
BRANCH  19  20
ATOM     20  O   UNL     1      -1.451   5.283  25.348  0.00  0.00    -0.349 OA
ATOM     21  C   UNL     1      -1.622   5.965  24.919  0.00  0.00    +0.174 C 
ENDBRANCH  19  20
ENDBRANCH  18  19
ENDBRANCH  17  18
ENDBRANCH  13  15
ENDBRANCH  12  13
TORSDOF 5
ENDMDL
MODEL 8
REMARK VINA RESULT:      -9.0      2.364      4.729
REMARK  Name = 
REMARK  5 active torsions:
REMARK  status: ('A' for Active; 'I' for Inactive)
REMARK    1  A    between atoms: C_12  and  C_13
REMARK    2  A    between atoms: C_13  and  C_15
REMARK    3  A    between atoms: N_17  and  C_18
REMARK    4  A    between atoms: C_18  and  C_19
REMARK    5  A    between atoms: C_19  and  O_20
REMARK                            x       y       z     vdW  Elec       q    Type
REMARK                         _______ _______ _______ _____ _____    ______ ____
ROOT
ATOM      1  C   UNL     1      -5.940   4.229  25.396  0.00  0.00    +0.138 C 
ATOM      2  N   UNL     1      -5.236   4.127  25.813  0.00  0.00    -0.213 NA
ATOM      3  C   UNL     1      -4.604   3.726  25.464  0.00  0.00    +0.179 A 
ATOM      4  N   UNL     1      -3.871   3.582  25.812  0.00  0.00    -0.228 NA
ATOM      5  C   UNL     1      -3.408   3.166  25.270  0.00  0.00    +0.063 A 
ATOM      6  C   UNL     1      -3.857   3.053  24.587  0.00  0.00    +0.023 A 
ATOM      7  C   UNL     1      -3.534   2.649  23.944  0.00  0.00    +0.034 C 
ATOM      8  C   UNL     1      -2.763   2.359  23.984  0.00  0.00    +0.007 C 
ATOM      9  C   UNL     1      -3.212   2.246  23.301  0.00  0.00    +0.000 C 
ATOM     10  C   UNL     1      -2.441   1.955  23.341  0.00  0.00    +0.001 C 
ATOM     11  C   UNL     1      -1.670   1.665  23.380  0.00  0.00    +0.003 C 
ATOM     12  C   UNL     1      -1.221   1.778  24.063  0.00  0.00    +0.039 C 
ATOM     22  C   UNL     1      -1.543   2.182  24.707  0.00  0.00    +0.153 C 
ATOM     23  O   UNL     1      -1.094   2.295  25.389  0.00  0.00    -0.223 OA
ATOM     24  C   UNL     1      -2.315   2.472  24.666  0.00  0.00    +0.036 C 
ATOM     25  C   UNL     1      -2.638   2.876  25.310  0.00  0.00    +0.043 C 
ATOM     26  C   UNL     1      -2.188   2.989  25.993  0.00  0.00    +0.006 C 
ATOM     27  S   UNL     1      -4.596   3.399  24.708  0.00  0.00    -0.055 S 
ENDROOT
BRANCH  12  13
ATOM     13  C   UNL     1      -0.449   1.488  24.103  0.00  0.00    +0.081 C 
ATOM     14  C   UNL     1       0.170   1.989  24.316  0.00  0.00    +0.010 C 
BRANCH  13  15
ATOM     15  C   UNL     1      -0.298   0.696  23.930  0.00  0.00    +0.241 C 
ATOM     16  O   UNL     1       0.027   0.487  23.201  0.00  0.00    -0.273 OA
ATOM     17  N   UNL     1      -0.472   0.112  24.486  0.00  0.00    -0.203 NA
BRANCH  17  18
ATOM     18  C   UNL     1      -0.321  -0.681  24.313  0.00  0.00    +0.147 C 
BRANCH  18  19
ATOM     19  C   UNL     1      -0.629  -1.274  24.797  0.00  0.00    +0.166 C 
BRANCH  19  20
ATOM     20  O   UNL     1      -0.992  -1.934  24.459  0.00  0.00    -0.349 OA
ATOM     21  C   UNL     1      -1.586  -2.332  24.870  0.00  0.00    +0.174 C 
ENDBRANCH  19  20
ENDBRANCH  18  19
ENDBRANCH  17  18
ENDBRANCH  13  15
ENDBRANCH  12  13
TORSDOF 5
ENDMDL
MODEL 9
REMARK VINA RESULT:      -8.9      2.318      5.336
REMARK  Name = 
REMARK  5 active torsions:
REMARK  status: ('A' for Active; 'I' for Inactive)
REMARK    1  A    between atoms: C_12  and  C_13
REMARK    2  A    between atoms: C_13  and  C_15
REMARK    3  A    between atoms: N_17  and  C_18
REMARK    4  A    between atoms: C_18  and  C_19
REMARK    5  A    between atoms: C_19  and  O_20
REMARK                            x       y       z     vdW  Elec       q    Type
REMARK                         _______ _______ _______ _____ _____    ______ ____
ROOT
ATOM      1  C   UNL     1      -1.876   5.766  25.004  0.00  0.00    +0.138 C 
ATOM      2  N   UNL     1      -1.342   5.224  25.324  0.00  0.00    -0.213 NA
ATOM      3  C   UNL     1      -1.443   4.417  25.188  0.00  0.00    +0.179 A 
ATOM      4  N   UNL     1      -0.957   3.814  25.470  0.00  0.00    -0.228 NA
ATOM      5  C   UNL     1      -1.261   3.095  25.203  0.00  0.00    +0.063 A 
ATOM      6  C   UNL     1      -1.935   3.254  24.757  0.00  0.00    +0.023 A 
ATOM      7  C   UNL     1      -2.360   2.633  24.415  0.00  0.00    +0.034 C 
ATOM      8  C   UNL     1      -2.110   1.855  24.522  0.00  0.00    +0.007 C 
ATOM      9  C   UNL     1      -2.784   2.015  24.075  0.00  0.00    +0.000 C 
ATOM     10  C   UNL     1      -2.535   1.235  24.181  0.00  0.00    +0.001 C 
ATOM     11  C   UNL     1      -2.285   0.456  24.286  0.00  0.00    +0.003 C 
ATOM     12  C   UNL     1      -1.610   0.297  24.734  0.00  0.00    +0.039 C 
ATOM     22  C   UNL     1      -1.185   0.917  25.075  0.00  0.00    +0.153 C 
ATOM     23  O   UNL     1      -0.511   0.757  25.522  0.00  0.00    -0.223 OA
ATOM     24  C   UNL     1      -1.436   1.696  24.968  0.00  0.00    +0.036 C 
ATOM     25  C   UNL     1      -1.011   2.316  25.310  0.00  0.00    +0.043 C 
ATOM     26  C   UNL     1      -0.336   2.156  25.757  0.00  0.00    +0.006 C 
ATOM     27  S   UNL     1      -2.048   4.071  24.747  0.00  0.00    -0.055 S 
ENDROOT
BRANCH  12  13
ATOM     13  C   UNL     1      -1.360  -0.483  24.840  0.00  0.00    +0.081 C 
ATOM     14  C   UNL     1      -0.597  -0.704  24.622  0.00  0.00    +0.010 C 
BRANCH  13  15
ATOM     15  C   UNL     1      -1.875  -1.039  25.165  0.00  0.00    +0.241 C 
ATOM     16  O   UNL     1      -2.049  -1.020  25.971  0.00  0.00    -0.273 OA
ATOM     17  N   UNL     1      -2.215  -1.615  24.682  0.00  0.00    -0.203 NA
BRANCH  17  18
ATOM     18  C   UNL     1      -2.730  -2.173  25.007  0.00  0.00    +0.147 C 
BRANCH  18  19
ATOM     19  C   UNL     1      -3.079  -2.742  24.522  0.00  0.00    +0.166 C 
BRANCH  19  20
ATOM     20  O   UNL     1      -3.901  -2.829  24.514  0.00  0.00    -0.349 OA
ATOM     21  C   UNL     1      -4.310  -2.805  23.799  0.00  0.00    +0.174 C 
ENDBRANCH  19  20
ENDBRANCH  18  19
ENDBRANCH  17  18
ENDBRANCH  13  15
ENDBRANCH  12  13
TORSDOF 5
ENDMDL
MODEL 10
REMARK VINA RESULT:      -8.7      1.943      2.495
REMARK  Name = 
REMARK  5 active torsions:
REMARK  status: ('A' for Active; 'I' for Inactive)
REMARK    1  A    between atoms: C_12  and  C_13
REMARK    2  A    between atoms: C_13  and  C_15
REMARK    3  A    between atoms: N_17  and  C_18
REMARK    4  A    between atoms: C_18  and  C_19
REMARK    5  A    between atoms: C_19  and  O_20
REMARK                            x       y       z     vdW  Elec       q    Type
REMARK                         _______ _______ _______ _____ _____    ______ ____
ROOT
ATOM      1  C   UNL     1      -0.034  -2.692  25.485  0.00  0.00    +0.138 C 
ATOM      2  N   UNL     1       0.006  -1.873  25.394  0.00  0.00    -0.213 NA
ATOM      3  C   UNL     1      -0.675  -1.444  25.212  0.00  0.00    +0.179 A 
ATOM      4  N   UNL     1      -0.719  -0.628  25.105  0.00  0.00    -0.228 NA
ATOM      5  C   UNL     1      -1.502  -0.435  24.932  0.00  0.00    +0.063 A 
ATOM      6  C   UNL     1      -1.941  -1.132  24.931  0.00  0.00    +0.023 A 
ATOM      7  C   UNL     1      -2.752  -1.110  24.773  0.00  0.00    +0.034 C 
ATOM      8  C   UNL     1      -3.121  -0.390  24.615  0.00  0.00    +0.007 C 
ATOM      9  C   UNL     1      -3.560  -1.087  24.615  0.00  0.00    +0.000 C 
ATOM     10  C   UNL     1      -3.930  -0.367  24.457  0.00  0.00    +0.001 C 
ATOM     11  C   UNL     1      -4.300   0.353  24.300  0.00  0.00    +0.003 C 
ATOM     12  C   UNL     1      -3.860   1.052  24.300  0.00  0.00    +0.039 C 
ATOM     22  C   UNL     1      -3.051   1.029  24.459  0.00  0.00    +0.153 C 
ATOM     23  O   UNL     1      -2.611   1.727  24.459  0.00  0.00    -0.223 OA
ATOM     24  C   UNL     1      -2.682   0.308  24.616  0.00  0.00    +0.036 C 
ATOM     25  C   UNL     1      -1.871   0.285  24.774  0.00  0.00    +0.043 C 
ATOM     26  C   UNL     1      -1.432   0.984  24.775  0.00  0.00    +0.006 C 
ATOM     27  S   UNL     1      -1.430  -1.756  25.104  0.00  0.00    -0.055 S 
ENDROOT
BRANCH  12  13
ATOM     13  C   UNL     1      -4.230   1.773  24.143  0.00  0.00    +0.081 C 
ATOM     14  C   UNL     1      -4.002   2.219  23.489  0.00  0.00    +0.010 C 
BRANCH  13  15
ATOM     15  C   UNL     1      -4.828   2.046  24.641  0.00  0.00    +0.241 C 
ATOM     16  O   UNL     1      -5.484   1.571  24.797  0.00  0.00    -0.273 OA
ATOM     17  N   UNL     1      -4.769   2.795  24.981  0.00  0.00    -0.203 NA
BRANCH  17  18
ATOM     18  C   UNL     1      -5.368   3.069  25.480  0.00  0.00    +0.147 C 
BRANCH  18  19
ATOM     19  C   UNL     1      -5.375   3.858  25.719  0.00  0.00    +0.166 C 
BRANCH  19  20
ATOM     20  O   UNL     1      -6.087   4.277  25.735  0.00  0.00    -0.349 OA
ATOM     21  C   UNL     1      -6.082   5.099  25.658  0.00  0.00    +0.174 C 
ENDBRANCH  19  20
ENDBRANCH  18  19
ENDBRANCH  17  18
ENDBRANCH  13  15
ENDBRANCH  12  13
TORSDOF 5
ENDMDL
