MODEL 1
REMARK VINA RESULT:      -8.2      0.000      0.000
REMARK  Name = 
REMARK  7 active torsions:
REMARK  status: ('A' for Active; 'I' for Inactive)
REMARK    1  A    between atoms: S_2  and  C_4
REMARK    2  A    between atoms: S_2  and  N_11
REMARK    3  A    between atoms: C_4  and  C_5
REMARK    4  A    between atoms: N_11  and  C_12
REMARK    5  A    between atoms: C_16  and  N_20
REMARK    6  A    between atoms: C_23  and  C_27
REMARK    7  A    between atoms: C_30  and  C_33
REMARK                            x       y       z     vdW  Elec       q    Type
REMARK                         _______ _______ _______ _____ _____    ______ ____
ROOT
ATOM     12  C   UNL     1       2.289   0.396  22.933  0.00  0.00    +0.156 C 
ATOM     13  C   UNL     1       2.191   1.195  23.109  0.00  0.00    +0.164 C 
ATOM     14  O   UNL     1       1.386   1.332  23.229  0.00  0.00    -0.350 OA
ATOM     15  C   UNL     1       0.988   0.617  23.128  0.00  0.00    +0.166 C 
ATOM     16  C   UNL     1       0.245   0.259  23.140  0.00  0.00    +0.154 C 
ATOM     17  C   UNL     1       0.344  -0.541  22.964  0.00  0.00    +0.166 C 
ATOM     18  O   UNL     1       1.148  -0.677  22.844  0.00  0.00    -0.350 OA
ATOM     19  C   UNL     1       1.546   0.039  22.945  0.00  0.00    +0.164 C 
ENDROOT
BRANCH  16  20
ATOM     20  N   UNL     1      -0.472   0.635  23.300  0.00  0.00    -0.200 NA
ATOM     21  C   UNL     1      -0.974   0.337  23.882  0.00  0.00    +0.237 A 
ATOM     22  N   UNL     1      -1.691   0.713  24.042  0.00  0.00    -0.212 NA
ATOM     23  C   UNL     1      -2.193   0.414  24.624  0.00  0.00    +0.086 A 
ATOM     24  C   UNL     1      -1.978  -0.261  25.047  0.00  0.00    +0.040 A 
ATOM     25  C   UNL     1      -1.261  -0.638  24.887  0.00  0.00    +0.103 A 
ATOM     26  N   UNL     1      -0.760  -0.338  24.305  0.00  0.00    -0.211 NA
BRANCH  23  27
ATOM     27  C   UNL     1      -2.909   0.790  24.784  0.00  0.00    +0.018 A 
ATOM     28  C   UNL     1      -3.603   0.346  24.847  0.00  0.00    +0.001 A 
ATOM     29  C   UNL     1      -4.319   0.722  25.006  0.00  0.00    +0.000 A 
ATOM     30  C   UNL     1      -4.344   1.541  25.104  0.00  0.00    +0.000 A 
ATOM     31  C   UNL     1      -3.650   1.984  25.042  0.00  0.00    +0.000 A 
ATOM     32  C   UNL     1      -2.933   1.608  24.882  0.00  0.00    +0.001 A 
BRANCH  30  33
ATOM     33  C   UNL     1      -5.060   1.917  25.264  0.00  0.00    +0.000 A 
ATOM     34  C   UNL     1      -5.066   2.643  25.654  0.00  0.00    +0.000 A 
ATOM     35  C   UNL     1      -5.783   3.020  25.814  0.00  0.00    +0.000 A 
ATOM     36  C   UNL     1      -6.493   2.669  25.584  0.00  0.00    +0.000 A 
ATOM     37  C   UNL     1      -6.487   1.942  25.194  0.00  0.00    +0.000 A 
ATOM     38  C   UNL     1      -5.770   1.566  25.034  0.00  0.00    +0.000 A 
ENDBRANCH  30  33
ENDBRANCH  23  27
ENDBRANCH  16  20
BRANCH  12  11
ATOM     11  N   UNL     1       3.006   0.019  22.773  0.00  0.00    -0.078 NA
BRANCH  11   2
ATOM      1  O   UNL     1       3.613   0.232  23.748  0.00  0.00    -0.156 OA
ATOM      2  S   UNL     1       3.719   0.398  22.946  0.00  0.00    +0.062 S 
ATOM      3  O   UNL     1       3.825   0.564  22.145  0.00  0.00    -0.156 OA
BRANCH   2   4
ATOM      4  C   UNL     1       4.431   0.776  23.119  0.00  0.00    +0.197 C 
BRANCH   4   5
ATOM      5  C   UNL     1       5.077   0.337  23.387  0.00  0.00    +0.003 A 
ATOM      6  C   UNL     1       5.179   0.207  24.195  0.00  0.00    -0.003 A 
ATOM      7  C   UNL     1       5.824  -0.232  24.463  0.00  0.00    -0.000 A 
ATOM      8  C   UNL     1       6.367  -0.540  23.924  0.00  0.00    -0.000 A 
ATOM      9  C   UNL     1       6.264  -0.410  23.116  0.00  0.00    -0.000 A 
ATOM     10  C   UNL     1       5.619   0.029  22.847  0.00  0.00    -0.003 A 
ENDBRANCH   4   5
ENDBRANCH   2   4
ENDBRANCH  11   2
ENDBRANCH  12  11
TORSDOF 7
ENDMDL
MODEL 2
REMARK VINA RESULT:      -7.0      2.169      8.187
REMARK  Name = 
REMARK  7 active torsions:
REMARK  status: ('A' for Active; 'I' for Inactive)
REMARK    1  A    between atoms: S_2  and  C_4
REMARK    2  A    between atoms: S_2  and  N_11
REMARK    3  A    between atoms: C_4  and  C_5
REMARK    4  A    between atoms: N_11  and  C_12
REMARK    5  A    between atoms: C_16  and  N_20
REMARK    6  A    between atoms: C_23  and  C_27
REMARK    7  A    between atoms: C_30  and  C_33
REMARK                            x       y       z     vdW  Elec       q    Type
REMARK                         _______ _______ _______ _____ _____    ______ ____
ROOT
ATOM     12  C   UNL     1      -2.522   1.884  23.884  0.00  0.00    +0.156 C 
ATOM     13  C   UNL     1      -2.041   2.543  24.003  0.00  0.00    +0.164 C 
ATOM     14  O   UNL     1      -1.261   2.281  24.060  0.00  0.00    -0.350 OA
ATOM     15  C   UNL     1      -1.260   1.461  23.976  0.00  0.00    +0.166 C 
ATOM     16  C   UNL     1      -0.778   0.792  23.958  0.00  0.00    +0.154 C 
ATOM     17  C   UNL     1      -1.260   0.133  23.839  0.00  0.00    +0.166 C 
ATOM     18  O   UNL     1      -2.040   0.395  23.782  0.00  0.00    -0.350 OA
ATOM     19  C   UNL     1      -2.040   1.216  23.867  0.00  0.00    +0.164 C 
ENDROOT
BRANCH  16  20
ATOM     20  N   UNL     1       0.042   0.783  24.045  0.00  0.00    -0.200 NA
ATOM     21  C   UNL     1       0.516   0.446  23.460  0.00  0.00    +0.237 A 
ATOM     22  N   UNL     1       1.336   0.437  23.547  0.00  0.00    -0.212 NA
ATOM     23  C   UNL     1       1.810   0.100  22.961  0.00  0.00    +0.086 A 
ATOM     24  C   UNL     1       1.463  -0.228  22.289  0.00  0.00    +0.040 A 
ATOM     25  C   UNL     1       0.642  -0.219  22.201  0.00  0.00    +0.103 A 
ATOM     26  N   UNL     1       0.169   0.118  22.787  0.00  0.00    -0.211 NA
BRANCH  23  27
ATOM     27  C   UNL     1       2.630   0.091  23.048  0.00  0.00    +0.018 A 
ATOM     28  C   UNL     1       3.074   0.754  22.835  0.00  0.00    +0.001 A 
ATOM     29  C   UNL     1       3.894   0.746  22.922  0.00  0.00    +0.000 A 
ATOM     30  C   UNL     1       4.271   0.075  23.221  0.00  0.00    +0.000 A 
ATOM     31  C   UNL     1       3.827  -0.587  23.433  0.00  0.00    +0.000 A 
ATOM     32  C   UNL     1       3.006  -0.578  23.347  0.00  0.00    +0.001 A 
BRANCH  30  33
ATOM     33  C   UNL     1       5.091   0.067  23.308  0.00  0.00    +0.000 A 
ATOM     34  C   UNL     1       5.438   0.396  23.979  0.00  0.00    +0.000 A 
ATOM     35  C   UNL     1       6.258   0.387  24.067  0.00  0.00    +0.000 A 
ATOM     36  C   UNL     1       6.731   0.049  23.481  0.00  0.00    +0.000 A 
ATOM     37  C   UNL     1       6.384  -0.280  22.809  0.00  0.00    +0.000 A 
ATOM     38  C   UNL     1       5.564  -0.272  22.723  0.00  0.00    +0.000 A 
ENDBRANCH  30  33
ENDBRANCH  23  27
ENDBRANCH  16  20
BRANCH  12  11
ATOM     11  N   UNL     1      -3.343   1.893  23.797  0.00  0.00    -0.078 NA
BRANCH  11   2
ATOM      1  O   UNL     1      -3.643   1.994  24.921  0.00  0.00    -0.156 OA
ATOM      2  S   UNL     1      -3.799   2.424  24.234  0.00  0.00    +0.062 S 
ATOM      3  O   UNL     1      -3.956   2.854  23.548  0.00  0.00    -0.156 OA
BRANCH   2   4
ATOM      4  C   UNL     1      -4.255   2.955  24.670  0.00  0.00    +0.197 C 
BRANCH   4   5
ATOM      5  C   UNL     1      -4.956   2.701  25.025  0.00  0.00    +0.003 A 
ATOM      6  C   UNL     1      -5.470   2.203  24.615  0.00  0.00    -0.003 A 
ATOM      7  C   UNL     1      -6.170   1.950  24.969  0.00  0.00    -0.000 A 
ATOM      8  C   UNL     1      -6.357   2.195  25.734  0.00  0.00    -0.000 A 
ATOM      9  C   UNL     1      -5.844   2.694  26.145  0.00  0.00    -0.000 A 
ATOM     10  C   UNL     1      -5.143   2.947  25.790  0.00  0.00    -0.003 A 
ENDBRANCH   4   5
ENDBRANCH   2   4
ENDBRANCH  11   2
ENDBRANCH  12  11
TORSDOF 7
ENDMDL
MODEL 3
REMARK VINA RESULT:      -5.0      2.489      7.780
REMARK  Name = 
REMARK  7 active torsions:
REMARK  status: ('A' for Active; 'I' for Inactive)
REMARK    1  A    between atoms: S_2  and  C_4
REMARK    2  A    between atoms: S_2  and  N_11
REMARK    3  A    between atoms: C_4  and  C_5
REMARK    4  A    between atoms: N_11  and  C_12
REMARK    5  A    between atoms: C_16  and  N_20
REMARK    6  A    between atoms: C_23  and  C_27
REMARK    7  A    between atoms: C_30  and  C_33
REMARK                            x       y       z     vdW  Elec       q    Type
REMARK                         _______ _______ _______ _____ _____    ______ ____
ROOT
ATOM     12  C   UNL     1      -2.566   0.944  24.667  0.00  0.00    +0.156 C 
ATOM     13  C   UNL     1      -2.157   0.745  25.356  0.00  0.00    +0.164 C 
ATOM     14  O   UNL     1      -1.350   0.788  25.193  0.00  0.00    -0.350 OA
ATOM     15  C   UNL     1      -1.259   1.013  24.406  0.00  0.00    +0.166 C 
ATOM     16  C   UNL     1      -0.705   1.179  23.818  0.00  0.00    +0.154 C 
ATOM     17  C   UNL     1      -1.113   1.378  23.129  0.00  0.00    +0.166 C 
ATOM     18  O   UNL     1      -1.921   1.335  23.292  0.00  0.00    -0.350 OA
ATOM     19  C   UNL     1      -2.011   1.110  24.080  0.00  0.00    +0.164 C 
ENDROOT
BRANCH  16  20
ATOM     20  N   UNL     1       0.116   1.151  23.903  0.00  0.00    -0.200 NA
ATOM     21  C   UNL     1       0.568   0.685  23.394  0.00  0.00    +0.237 A 
ATOM     22  N   UNL     1       1.388   0.657  23.480  0.00  0.00    -0.212 NA
ATOM     23  C   UNL     1       1.841   0.192  22.971  0.00  0.00    +0.086 A 
ATOM     24  C   UNL     1       1.473  -0.246  22.376  0.00  0.00    +0.040 A 
ATOM     25  C   UNL     1       0.653  -0.218  22.290  0.00  0.00    +0.103 A 
ATOM     26  N   UNL     1       0.201   0.248  22.800  0.00  0.00    -0.211 NA
BRANCH  23  27
ATOM     27  C   UNL     1       2.660   0.163  23.057  0.00  0.00    +0.018 A 
ATOM     28  C   UNL     1       3.120   0.818  22.851  0.00  0.00    +0.001 A 
ATOM     29  C   UNL     1       3.939   0.790  22.936  0.00  0.00    +0.000 A 
ATOM     30  C   UNL     1       4.301   0.108  23.227  0.00  0.00    +0.000 A 
ATOM     31  C   UNL     1       3.842  -0.546  23.433  0.00  0.00    +0.000 A 
ATOM     32  C   UNL     1       3.022  -0.518  23.348  0.00  0.00    +0.001 A 
BRANCH  30  33
ATOM     33  C   UNL     1       5.120   0.080  23.313  0.00  0.00    +0.000 A 
ATOM     34  C   UNL     1       5.475   0.391  23.990  0.00  0.00    +0.000 A 
ATOM     35  C   UNL     1       6.295   0.362  24.076  0.00  0.00    +0.000 A 
ATOM     36  C   UNL     1       6.760   0.023  23.484  0.00  0.00    +0.000 A 
ATOM     37  C   UNL     1       6.405  -0.287  22.808  0.00  0.00    +0.000 A 
ATOM     38  C   UNL     1       5.586  -0.259  22.722  0.00  0.00    +0.000 A 
ENDBRANCH  30  33
ENDBRANCH  23  27
ENDBRANCH  16  20
BRANCH  12  11
ATOM     11  N   UNL     1      -3.386   0.972  24.581  0.00  0.00    -0.078 NA
BRANCH  11   2
ATOM      1  O   UNL     1      -3.564   0.403  25.585  0.00  0.00    -0.156 OA
ATOM      2  S   UNL     1      -3.848   0.329  24.814  0.00  0.00    +0.062 S 
ATOM      3  O   UNL     1      -4.133   0.255  24.043  0.00  0.00    -0.156 OA
BRANCH   2   4
ATOM      4  C   UNL     1      -4.310  -0.314  25.046  0.00  0.00    +0.197 C 
BRANCH   4   5
ATOM      5  C   UNL     1      -4.136  -1.070  24.764  0.00  0.00    +0.003 A 
ATOM      6  C   UNL     1      -3.719  -1.601  25.238  0.00  0.00    -0.003 A 
ATOM      7  C   UNL     1      -3.545  -2.356  24.956  0.00  0.00    -0.000 A 
ATOM      8  C   UNL     1      -3.787  -2.580  24.199  0.00  0.00    -0.000 A 
ATOM      9  C   UNL     1      -4.204  -2.049  23.725  0.00  0.00    -0.000 A 
ATOM     10  C   UNL     1      -4.378  -1.293  24.007  0.00  0.00    -0.003 A 
ENDBRANCH   4   5
ENDBRANCH   2   4
ENDBRANCH  11   2
ENDBRANCH  12  11
TORSDOF 7
ENDMDL
