MODEL 1
REMARK VINA RESULT:     -11.9      0.000      0.000
REMARK  Name = 
REMARK  5 active torsions:
REMARK  status: ('A' for Active; 'I' for Inactive)
REMARK    1  A    between atoms: O_2  and  C_3
REMARK    2  A    between atoms: C_7  and  C_8
REMARK    3  A    between atoms: C_8  and  N_9
REMARK    4  A    between atoms: N_15  and  C_16
REMARK    5  A    between atoms: C_16  and  C_17
REMARK                            x       y       z     vdW  Elec       q    Type
REMARK                         _______ _______ _______ _____ _____    ______ ____
ROOT
ATOM      9  N   UNL     1      -1.245   1.829  24.509  0.00  0.00    -0.265 NA
ATOM     10  C   UNL     1      -0.616   1.535  24.955  0.00  0.00    +0.094 C 
ATOM     11  C   UNL     1      -0.696   0.821  25.359  0.00  0.00    +0.112 C 
ATOM     12  N   UNL     1      -1.403   0.399  25.317  0.00  0.00    -0.261 N 
ATOM     13  C   UNL     1      -2.032   0.692  24.871  0.00  0.00    +0.113 C 
ATOM     14  C   UNL     1      -2.658   0.159  24.932  0.00  0.00    +0.116 C 
ATOM     15  N   UNL     1      -2.417  -0.464  25.415  0.00  0.00    -0.258 N 
ATOM     24  C   UNL     1      -1.642  -0.315  25.653  0.00  0.00    +0.308 C 
ATOM     25  O   UNL     1      -1.184  -0.797  26.143  0.00  0.00    -0.252 OA
ATOM     26  C   UNL     1      -1.953   1.408  24.467  0.00  0.00    +0.094 C 
ENDROOT
BRANCH   9   8
ATOM      8  C   UNL     1      -1.166   2.544  24.105  0.00  0.00    +0.119 C 
BRANCH   8   7
ATOM      3  C   UNL     1      -2.188   4.172  25.139  0.00  0.00    +0.225 A 
ATOM      4  C   UNL     1      -1.558   4.682  25.289  0.00  0.00    +0.058 A 
ATOM      5  C   UNL     1      -0.797   4.479  25.044  0.00  0.00    +0.006 A 
ATOM      6  C   UNL     1      -0.666   3.767  24.649  0.00  0.00    +0.016 A 
ATOM      7  C   UNL     1      -1.296   3.257  24.499  0.00  0.00    +0.078 A 
ATOM     27  N   UNL     1      -2.058   3.459  24.744  0.00  0.00    -0.215 NA
BRANCH   3   2
ATOM      1  C   UNL     1      -3.163   4.296  26.177  0.00  0.00    +0.254 C 
ATOM      2  O   UNL     1      -2.951   4.374  25.383  0.00  0.00    -0.456 OA
ENDBRANCH   3   2
ENDBRANCH   8   7
ENDBRANCH   9   8
BRANCH  15  16
ATOM     16  C   UNL     1      -2.872  -1.120  25.624  0.00  0.00    +0.122 C 
BRANCH  16  17
ATOM     17  C   UNL     1      -3.296  -1.529  25.047  0.00  0.00    -0.002 A 
ATOM     18  C   UNL     1      -3.986  -1.204  24.733  0.00  0.00    -0.000 A 
ATOM     19  C   UNL     1      -4.409  -1.614  24.156  0.00  0.00    +0.029 A 
ATOM     20  C   UNL     1      -4.143  -2.349  23.893  0.00  0.00    +0.140 A 
ATOM     21  F   UNL     1      -4.566  -2.760  23.316  0.00  0.00    -0.204 F 
ATOM     22  C   UNL     1      -3.453  -2.674  24.207  0.00  0.00    +0.029 A 
ATOM     23  C   UNL     1      -3.029  -2.265  24.784  0.00  0.00    -0.000 A 
ENDBRANCH  16  17
ENDBRANCH  15  16
TORSDOF 5
ENDMDL
MODEL 2
REMARK VINA RESULT:     -11.7      1.727      2.332
REMARK  Name = 
REMARK  5 active torsions:
REMARK  status: ('A' for Active; 'I' for Inactive)
REMARK    1  A    between atoms: O_2  and  C_3
REMARK    2  A    between atoms: C_7  and  C_8
REMARK    3  A    between atoms: C_8  and  N_9
REMARK    4  A    between atoms: N_15  and  C_16
REMARK    5  A    between atoms: C_16  and  C_17
REMARK                            x       y       z     vdW  Elec       q    Type
REMARK                         _______ _______ _______ _____ _____    ______ ____
ROOT
ATOM      9  N   UNL     1      -3.210   2.820  24.273  0.00  0.00    -0.265 NA
ATOM     10  C   UNL     1      -3.826   3.071  24.760  0.00  0.00    +0.094 C 
ATOM     11  C   UNL     1      -4.382   2.528  25.035  0.00  0.00    +0.112 C 
ATOM     12  N   UNL     1      -4.323   1.733  24.822  0.00  0.00    -0.261 N 
ATOM     13  C   UNL     1      -3.707   1.481  24.335  0.00  0.00    +0.113 C 
ATOM     14  C   UNL     1      -3.789   0.669  24.218  0.00  0.00    +0.116 C 
ATOM     15  N   UNL     1      -4.455   0.418  24.633  0.00  0.00    -0.258 N 
ATOM     24  C   UNL     1      -4.785   1.076  25.006  0.00  0.00    +0.308 C 
ATOM     25  O   UNL     1      -5.460   1.076  25.481  0.00  0.00    -0.252 OA
ATOM     26  C   UNL     1      -3.150   2.025  24.059  0.00  0.00    +0.094 C 
ENDROOT
BRANCH   9   8
ATOM      8  C   UNL     1      -2.653   3.364  23.997  0.00  0.00    +0.119 C 
BRANCH   8   7
ATOM      3  C   UNL     1      -0.765   3.351  25.092  0.00  0.00    +0.225 A 
ATOM      4  C   UNL     1      -0.798   4.084  25.469  0.00  0.00    +0.058 A 
ATOM      5  C   UNL     1      -1.450   4.576  25.357  0.00  0.00    +0.006 A 
ATOM      6  C   UNL     1      -2.069   4.337  24.866  0.00  0.00    +0.016 A 
ATOM      7  C   UNL     1      -2.035   3.604  24.488  0.00  0.00    +0.078 A 
ATOM     27  N   UNL     1      -1.382   3.111  24.601  0.00  0.00    -0.215 NA
BRANCH   3   2
ATOM      1  C   UNL     1       0.038   2.538  25.950  0.00  0.00    +0.254 C 
ATOM      2  O   UNL     1      -0.112   2.858  25.204  0.00  0.00    -0.456 OA
ENDBRANCH   3   2
ENDBRANCH   8   7
ENDBRANCH   9   8
BRANCH  15  16
ATOM     16  C   UNL     1      -4.742  -0.355  24.669  0.00  0.00    +0.122 C 
BRANCH  16  17
ATOM     17  C   UNL     1      -4.216  -0.990  24.690  0.00  0.00    -0.002 A 
ATOM     18  C   UNL     1      -3.790  -1.150  25.378  0.00  0.00    -0.000 A 
ATOM     19  C   UNL     1      -3.264  -1.785  25.398  0.00  0.00    +0.029 A 
ATOM     20  C   UNL     1      -3.165  -2.260  24.732  0.00  0.00    +0.140 A 
ATOM     21  F   UNL     1      -2.639  -2.896  24.752  0.00  0.00    -0.204 F 
ATOM     22  C   UNL     1      -3.591  -2.100  24.044  0.00  0.00    +0.029 A 
ATOM     23  C   UNL     1      -4.117  -1.465  24.023  0.00  0.00    -0.000 A 
ENDBRANCH  16  17
ENDBRANCH  15  16
TORSDOF 5
ENDMDL
MODEL 3
REMARK VINA RESULT:     -11.5      1.106      1.305
REMARK  Name = 
REMARK  5 active torsions:
REMARK  status: ('A' for Active; 'I' for Inactive)
REMARK    1  A    between atoms: O_2  and  C_3
REMARK    2  A    between atoms: C_7  and  C_8
REMARK    3  A    between atoms: C_8  and  N_9
REMARK    4  A    between atoms: N_15  and  C_16
REMARK    5  A    between atoms: C_16  and  C_17
REMARK                            x       y       z     vdW  Elec       q    Type
REMARK                         _______ _______ _______ _____ _____    ______ ____
ROOT
ATOM      9  N   UNL     1      -0.470   2.003  25.546  0.00  0.00    -0.265 NA
ATOM     10  C   UNL     1       0.051   1.916  24.912  0.00  0.00    +0.094 C 
ATOM     11  C   UNL     1       0.066   1.211  24.485  0.00  0.00    +0.112 C 
ATOM     12  N   UNL     1      -0.440   0.593  24.690  0.00  0.00    -0.261 N 
ATOM     13  C   UNL     1      -0.961   0.680  25.324  0.00  0.00    +0.113 C 
ATOM     14  C   UNL     1      -1.392  -0.019  25.398  0.00  0.00    +0.116 C 
ATOM     15  N   UNL     1      -1.138  -0.539  24.810  0.00  0.00    -0.258 N 
ATOM     24  C   UNL     1      -0.550  -0.160  24.373  0.00  0.00    +0.308 C 
ATOM     25  O   UNL     1      -0.142  -0.479  23.731  0.00  0.00    -0.252 OA
ATOM     26  C   UNL     1      -0.976   1.386  25.752  0.00  0.00    +0.094 C 
ENDROOT
BRANCH   9   8
ATOM      8  C   UNL     1      -0.484   2.709  25.974  0.00  0.00    +0.119 C 
BRANCH   8   7
ATOM      3  C   UNL     1      -2.254   3.972  25.778  0.00  0.00    +0.225 A 
ATOM      4  C   UNL     1      -1.974   4.554  25.264  0.00  0.00    +0.058 A 
ATOM      5  C   UNL     1      -1.198   4.520  24.987  0.00  0.00    +0.006 A 
ATOM      6  C   UNL     1      -0.701   3.906  25.224  0.00  0.00    +0.016 A 
ATOM      7  C   UNL     1      -0.981   3.324  25.737  0.00  0.00    +0.078 A 
ATOM     27  N   UNL     1      -1.757   3.357  26.015  0.00  0.00    -0.215 NA
BRANCH   3   2
ATOM      1  C   UNL     1      -3.656   3.810  25.554  0.00  0.00    +0.254 C 
ATOM      2  O   UNL     1      -3.030   4.005  26.056  0.00  0.00    -0.456 OA
ENDBRANCH   3   2
ENDBRANCH   8   7
ENDBRANCH   9   8
BRANCH  15  16
ATOM     16  C   UNL     1      -1.422  -1.303  24.682  0.00  0.00    +0.122 C 
BRANCH  16  17
ATOM     17  C   UNL     1      -2.234  -1.439  24.636  0.00  0.00    -0.002 A 
ATOM     18  C   UNL     1      -2.647  -1.246  23.949  0.00  0.00    -0.000 A 
ATOM     19  C   UNL     1      -3.460  -1.383  23.905  0.00  0.00    +0.029 A 
ATOM     20  C   UNL     1      -3.859  -1.713  24.546  0.00  0.00    +0.140 A 
ATOM     21  F   UNL     1      -4.671  -1.850  24.502  0.00  0.00    -0.204 F 
ATOM     22  C   UNL     1      -3.445  -1.906  25.233  0.00  0.00    +0.029 A 
ATOM     23  C   UNL     1      -2.633  -1.770  25.279  0.00  0.00    -0.000 A 
ENDBRANCH  16  17
ENDBRANCH  15  16
TORSDOF 5
ENDMDL
MODEL 4
REMARK VINA RESULT:     -11.5      2.328      5.419
REMARK  Name = 
REMARK  5 active torsions:
REMARK  status: ('A' for Active; 'I' for Inactive)
REMARK    1  A    between atoms: O_2  and  C_3
REMARK    2  A    between atoms: C_7  and  C_8
REMARK    3  A    between atoms: C_8  and  N_9
REMARK    4  A    between atoms: N_15  and  C_16
REMARK    5  A    between atoms: C_16  and  C_17
REMARK                            x       y       z     vdW  Elec       q    Type
REMARK                         _______ _______ _______ _____ _____    ______ ____
ROOT
ATOM      9  N   UNL     1      -4.108   0.174  24.239  0.00  0.00    -0.265 NA
ATOM     10  C   UNL     1      -4.749   0.181  24.759  0.00  0.00    +0.094 C 
ATOM     11  C   UNL     1      -4.951   0.876  25.154  0.00  0.00    +0.112 C 
ATOM     12  N   UNL     1      -4.513   1.564  25.030  0.00  0.00    -0.261 N 
ATOM     13  C   UNL     1      -3.873   1.557  24.511  0.00  0.00    +0.113 C 
ATOM     14  C   UNL     1      -3.545   2.314  24.499  0.00  0.00    +0.116 C 
ATOM     15  N   UNL     1      -3.984   2.789  25.012  0.00  0.00    -0.258 N 
ATOM     24  C   UNL     1      -4.582   2.325  25.339  0.00  0.00    +0.308 C 
ATOM     25  O   UNL     1      -5.150   2.578  25.882  0.00  0.00    -0.252 OA
ATOM     26  C   UNL     1      -3.669   0.862  24.115  0.00  0.00    +0.094 C 
ENDROOT
BRANCH   9   8
ATOM      8  C   UNL     1      -3.904  -0.521  23.843  0.00  0.00    +0.119 C 
BRANCH   8   7
ATOM      3  C   UNL     1      -2.180  -1.627  24.596  0.00  0.00    +0.225 A 
ATOM      4  C   UNL     1      -2.553  -2.247  24.992  0.00  0.00    +0.058 A 
ATOM      5  C   UNL     1      -3.376  -2.292  25.005  0.00  0.00    +0.006 A 
ATOM      6  C   UNL     1      -3.827  -1.717  24.622  0.00  0.00    +0.016 A 
ATOM      7  C   UNL     1      -3.454  -1.097  24.226  0.00  0.00    +0.078 A 
ATOM     27  N   UNL     1      -2.630  -1.051  24.213  0.00  0.00    -0.215 NA
BRANCH   3   2
ATOM      1  C   UNL     1      -0.938  -1.477  25.287  0.00  0.00    +0.254 C 
ATOM      2  O   UNL     1      -1.356  -1.581  24.583  0.00  0.00    -0.456 OA
ENDBRANCH   3   2
ENDBRANCH   8   7
ENDBRANCH   9   8
BRANCH  15  16
ATOM     16  C   UNL     1      -3.848   3.587  25.168  0.00  0.00    +0.122 C 
BRANCH  16  17
ATOM     17  C   UNL     1      -3.076   3.873  25.219  0.00  0.00    -0.002 A 
ATOM     18  C   UNL     1      -2.655   3.803  25.926  0.00  0.00    -0.000 A 
ATOM     19  C   UNL     1      -1.883   4.089  25.976  0.00  0.00    +0.029 A 
ATOM     20  C   UNL     1      -1.531   4.444  25.320  0.00  0.00    +0.140 A 
ATOM     21  F   UNL     1      -0.759   4.730  25.370  0.00  0.00    -0.204 F 
ATOM     22  C   UNL     1      -1.952   4.514  24.614  0.00  0.00    +0.029 A 
ATOM     23  C   UNL     1      -2.724   4.228  24.563  0.00  0.00    -0.000 A 
ENDBRANCH  16  17
ENDBRANCH  15  16
TORSDOF 5
ENDMDL
MODEL 5
REMARK VINA RESULT:     -10.9      1.907      4.902
REMARK  Name = 
REMARK  5 active torsions:
REMARK  status: ('A' for Active; 'I' for Inactive)
REMARK    1  A    between atoms: O_2  and  C_3
REMARK    2  A    between atoms: C_7  and  C_8
REMARK    3  A    between atoms: C_8  and  N_9
REMARK    4  A    between atoms: N_15  and  C_16
REMARK    5  A    between atoms: C_16  and  C_17
REMARK                            x       y       z     vdW  Elec       q    Type
REMARK                         _______ _______ _______ _____ _____    ______ ____
ROOT
ATOM      9  N   UNL     1      -1.165  -0.064  25.219  0.00  0.00    -0.265 NA
ATOM     10  C   UNL     1      -0.579   0.103  24.663  0.00  0.00    +0.094 C 
ATOM     11  C   UNL     1      -0.518   0.861  24.344  0.00  0.00    +0.112 C 
ATOM     12  N   UNL     1      -1.043   1.452  24.580  0.00  0.00    -0.261 N 
ATOM     13  C   UNL     1      -1.629   1.285  25.137  0.00  0.00    +0.113 C 
ATOM     14  C   UNL     1      -2.064   1.973  25.263  0.00  0.00    +0.116 C 
ATOM     15  N   UNL     1      -1.748   2.566  24.785  0.00  0.00    -0.258 N 
ATOM     24  C   UNL     1      -1.117   2.244  24.363  0.00  0.00    +0.308 C 
ATOM     25  O   UNL     1      -0.643   2.643  23.819  0.00  0.00    -0.252 OA
ATOM     26  C   UNL     1      -1.690   0.526  25.457  0.00  0.00    +0.094 C 
ENDROOT
BRANCH   9   8
ATOM      8  C   UNL     1      -1.226  -0.823  25.539  0.00  0.00    +0.119 C 
BRANCH   8   7
ATOM      3  C   UNL     1      -2.902  -1.987  24.767  0.00  0.00    +0.225 A 
ATOM      4  C   UNL     1      -2.504  -2.570  24.340  0.00  0.00    +0.058 A 
ATOM      5  C   UNL     1      -1.680  -2.570  24.313  0.00  0.00    +0.006 A 
ATOM      6  C   UNL     1      -1.253  -1.988  24.713  0.00  0.00    +0.016 A 
ATOM      7  C   UNL     1      -1.651  -1.405  25.140  0.00  0.00    +0.078 A 
ATOM     27  N   UNL     1      -2.477  -1.405  25.167  0.00  0.00    -0.215 NA
BRANCH   3   2
ATOM      1  C   UNL     1      -4.163  -1.926  24.096  0.00  0.00    +0.254 C 
ATOM      2  O   UNL     1      -3.728  -1.987  24.795  0.00  0.00    -0.456 OA
ENDBRANCH   3   2
ENDBRANCH   8   7
ENDBRANCH   9   8
BRANCH  15  16
ATOM     16  C   UNL     1      -2.016   3.345  24.737  0.00  0.00    +0.122 C 
BRANCH  16  17
ATOM     17  C   UNL     1      -2.795   3.527  24.939  0.00  0.00    -0.002 A 
ATOM     18  C   UNL     1      -3.396   3.443  24.381  0.00  0.00    -0.000 A 
ATOM     19  C   UNL     1      -4.175   3.626  24.584  0.00  0.00    +0.029 A 
ATOM     20  C   UNL     1      -4.352   3.892  25.344  0.00  0.00    +0.140 A 
ATOM     21  F   UNL     1      -5.131   4.074  25.547  0.00  0.00    -0.204 F 
ATOM     22  C   UNL     1      -3.750   3.976  25.902  0.00  0.00    +0.029 A 
ATOM     23  C   UNL     1      -2.972   3.794  25.700  0.00  0.00    -0.000 A 
ENDBRANCH  16  17
ENDBRANCH  15  16
TORSDOF 5
ENDMDL
