MODEL 1
REMARK VINA RESULT:     -13.9      0.000      0.000
REMARK  Name = 
REMARK  2 active torsions:
REMARK  status: ('A' for Active; 'I' for Inactive)
REMARK    1  A    between atoms: O_2  and  C_3
REMARK    2  A    between atoms: C_4  and  C_10
REMARK                            x       y       z     vdW  Elec       q    Type
REMARK                         _______ _______ _______ _____ _____    ______ ____
ROOT
ATOM     10  C   UNL     1      -3.556  -0.200  24.234  0.00  0.00    +0.003 A 
ATOM     11  C   UNL     1      -4.093   0.234  24.685  0.00  0.00    +0.006 A 
ATOM     12  C   UNL     1      -4.135   1.054  24.599  0.00  0.00    +0.069 A 
ATOM     13  C   UNL     1      -3.639   1.438  24.062  0.00  0.00    +0.078 A 
ATOM     14  N   UNL     1      -3.592   2.245  23.893  0.00  0.00    -0.178 NA
ATOM     15  C   UNL     1      -4.028   2.865  24.218  0.00  0.00    +0.264 C 
ATOM     16  O   UNL     1      -3.849   3.617  23.930  0.00  0.00    -0.271 OA
ATOM     17  C   UNL     1      -4.619   2.833  24.792  0.00  0.00    +0.155 C 
ATOM     18  C   UNL     1      -4.915   3.585  24.962  0.00  0.00    +0.048 C 
ATOM     19  C   UNL     1      -5.512   3.675  25.524  0.00  0.00    +0.096 C 
ATOM     20  N   UNL     1      -5.808   4.426  25.694  0.00  0.00    -0.133 NA
ATOM     21  C   UNL     1      -5.813   3.015  25.916  0.00  0.00    +0.041 C 
ATOM     22  C   UNL     1      -5.517   2.263  25.746  0.00  0.00    +0.096 C 
ATOM     23  N   UNL     1      -4.920   2.173  25.184  0.00  0.00    -0.269 N 
ATOM     24  C   UNL     1      -4.704   1.381  25.098  0.00  0.00    +0.251 C 
ATOM     25  O   UNL     1      -5.113   0.845  25.574  0.00  0.00    -0.270 OA
ATOM     26  C   UNL     1      -3.103   1.003  23.612  0.00  0.00    +0.017 A 
ATOM     27  C   UNL     1      -3.061   0.184  23.698  0.00  0.00    +0.001 A 
ENDROOT
BRANCH  10   4
ATOM      3  C   UNL     1      -2.921  -1.357  24.782  0.00  0.00    +0.139 A 
ATOM      4  C   UNL     1      -3.515  -1.020  24.320  0.00  0.00    +0.035 A 
ATOM      5  C   UNL     1      -4.068  -1.503  23.942  0.00  0.00    +0.014 A 
ATOM      6  C   UNL     1      -4.026  -2.322  24.028  0.00  0.00    +0.058 A 
ATOM      7 CL   UNL     1      -4.579  -2.804  23.650  0.00  0.00    -0.082 Cl
ATOM      8  C   UNL     1      -3.432  -2.659  24.490  0.00  0.00    +0.015 A 
ATOM      9  C   UNL     1      -2.879  -2.176  24.868  0.00  0.00    +0.038 A 
BRANCH   3   2
ATOM      1  C   UNL     1      -1.767  -1.212  25.612  0.00  0.00    +0.252 C 
ATOM      2  O   UNL     1      -2.368  -0.874  25.159  0.00  0.00    -0.471 OA
ENDBRANCH   3   2
ENDBRANCH  10   4
TORSDOF 2
ENDMDL
MODEL 2
REMARK VINA RESULT:     -13.2      1.493      2.132
REMARK  Name = 
REMARK  2 active torsions:
REMARK  status: ('A' for Active; 'I' for Inactive)
REMARK    1  A    between atoms: O_2  and  C_3
REMARK    2  A    between atoms: C_4  and  C_10
REMARK                            x       y       z     vdW  Elec       q    Type
REMARK                         _______ _______ _______ _____ _____    ______ ____
ROOT
ATOM     10  C   UNL     1      -3.982   0.046  24.855  0.00  0.00    +0.003 A 
ATOM     11  C   UNL     1      -3.321   0.535  24.798  0.00  0.00    +0.006 A 
ATOM     12  C   UNL     1      -3.397   1.347  24.929  0.00  0.00    +0.069 A 
ATOM     13  C   UNL     1      -4.134   1.667  25.117  0.00  0.00    +0.078 A 
ATOM     14  N   UNL     1      -4.328   2.455  25.267  0.00  0.00    -0.178 NA
ATOM     15  C   UNL     1      -3.835   3.116  25.266  0.00  0.00    +0.264 C 
ATOM     16  O   UNL     1      -4.200   3.836  25.440  0.00  0.00    -0.271 OA
ATOM     17  C   UNL     1      -3.025   3.153  25.115  0.00  0.00    +0.155 C 
ATOM     18  C   UNL     1      -2.742   3.927  25.172  0.00  0.00    +0.048 C 
ATOM     19  C   UNL     1      -1.944   4.085  25.040  0.00  0.00    +0.096 C 
ATOM     20  N   UNL     1      -1.661   4.858  25.097  0.00  0.00    -0.133 NA
ATOM     21  C   UNL     1      -1.427   3.470  24.853  0.00  0.00    +0.041 C 
ATOM     22  C   UNL     1      -1.709   2.696  24.796  0.00  0.00    +0.096 C 
ATOM     23  N   UNL     1      -2.508   2.539  24.928  0.00  0.00    -0.269 N 
ATOM     24  C   UNL     1      -2.674   1.734  24.845  0.00  0.00    +0.251 C 
ATOM     25  O   UNL     1      -2.031   1.254  24.652  0.00  0.00    -0.270 OA
ATOM     26  C   UNL     1      -4.794   1.177  25.174  0.00  0.00    +0.017 A 
ATOM     27  C   UNL     1      -4.719   0.366  25.043  0.00  0.00    +0.001 A 
ENDROOT
BRANCH  10   4
ATOM      3  C   UNL     1      -3.614  -1.254  25.321  0.00  0.00    +0.139 A 
ATOM      4  C   UNL     1      -3.907  -0.765  24.725  0.00  0.00    +0.035 A 
ATOM      5  C   UNL     1      -4.125  -1.088  23.996  0.00  0.00    +0.014 A 
ATOM      6  C   UNL     1      -4.050  -1.899  23.866  0.00  0.00    +0.058 A 
ATOM      7 CL   UNL     1      -4.268  -2.221  23.138  0.00  0.00    -0.082 Cl
ATOM      8  C   UNL     1      -3.757  -2.388  24.462  0.00  0.00    +0.015 A 
ATOM      9  C   UNL     1      -3.539  -2.065  25.190  0.00  0.00    +0.038 A 
BRANCH   3   2
ATOM      1  C   UNL     1      -3.091  -1.418  26.640  0.00  0.00    +0.252 C 
ATOM      2  O   UNL     1      -3.396  -0.932  26.048  0.00  0.00    -0.471 OA
ENDBRANCH   3   2
ENDBRANCH  10   4
TORSDOF 2
ENDMDL
MODEL 3
REMARK VINA RESULT:     -12.2      2.565      4.763
REMARK  Name = 
REMARK  2 active torsions:
REMARK  status: ('A' for Active; 'I' for Inactive)
REMARK    1  A    between atoms: O_2  and  C_3
REMARK    2  A    between atoms: C_4  and  C_10
REMARK                            x       y       z     vdW  Elec       q    Type
REMARK                         _______ _______ _______ _____ _____    ______ ____
ROOT
ATOM     10  C   UNL     1      -2.551   2.412  24.545  0.00  0.00    +0.003 A 
ATOM     11  C   UNL     1      -2.396   1.687  24.906  0.00  0.00    +0.006 A 
ATOM     12  C   UNL     1      -2.798   1.009  24.659  0.00  0.00    +0.069 A 
ATOM     13  C   UNL     1      -3.356   1.059  24.053  0.00  0.00    +0.078 A 
ATOM     14  N   UNL     1      -3.815   0.455  23.727  0.00  0.00    -0.178 NA
ATOM     15  C   UNL     1      -3.830  -0.345  23.926  0.00  0.00    +0.264 C 
ATOM     16  O   UNL     1      -4.354  -0.812  23.494  0.00  0.00    -0.271 OA
ATOM     17  C   UNL     1      -3.389  -0.740  24.501  0.00  0.00    +0.155 C 
ATOM     18  C   UNL     1      -3.573  -1.545  24.522  0.00  0.00    +0.048 C 
ATOM     19  C   UNL     1      -3.193  -2.040  25.060  0.00  0.00    +0.096 C 
ATOM     20  N   UNL     1      -3.377  -2.845  25.081  0.00  0.00    -0.133 NA
ATOM     21  C   UNL     1      -2.629  -1.734  25.577  0.00  0.00    +0.041 C 
ATOM     22  C   UNL     1      -2.445  -0.929  25.557  0.00  0.00    +0.096 C 
ATOM     23  N   UNL     1      -2.826  -0.433  25.018  0.00  0.00    -0.269 N 
ATOM     24  C   UNL     1      -2.562   0.346  25.089  0.00  0.00    +0.251 C 
ATOM     25  O   UNL     1      -1.987   0.479  25.665  0.00  0.00    -0.270 OA
ATOM     26  C   UNL     1      -3.511   1.784  23.693  0.00  0.00    +0.017 A 
ATOM     27  C   UNL     1      -3.108   2.461  23.939  0.00  0.00    +0.001 A 
ENDROOT
BRANCH  10   4
ATOM      3  C   UNL     1      -2.506   3.612  25.319  0.00  0.00    +0.139 A 
ATOM      4  C   UNL     1      -2.149   3.089  24.791  0.00  0.00    +0.035 A 
ATOM      5  C   UNL     1      -1.389   3.243  24.507  0.00  0.00    +0.014 A 
ATOM      6  C   UNL     1      -0.987   3.920  24.753  0.00  0.00    +0.058 A 
ATOM      7 CL   UNL     1      -0.227   4.074  24.470  0.00  0.00    -0.082 Cl
ATOM      8  C   UNL     1      -1.344   4.443  25.281  0.00  0.00    +0.015 A 
ATOM      9  C   UNL     1      -2.104   4.289  25.565  0.00  0.00    +0.038 A 
BRANCH   3   2
ATOM      1  C   UNL     1      -3.619   3.978  26.136  0.00  0.00    +0.252 C 
ATOM      2  O   UNL     1      -3.265   3.459  25.602  0.00  0.00    -0.471 OA
ENDBRANCH   3   2
ENDBRANCH  10   4
TORSDOF 2
ENDMDL
MODEL 4
REMARK VINA RESULT:     -12.2      2.808      4.849
REMARK  Name = 
REMARK  2 active torsions:
REMARK  status: ('A' for Active; 'I' for Inactive)
REMARK    1  A    between atoms: O_2  and  C_3
REMARK    2  A    between atoms: C_4  and  C_10
REMARK                            x       y       z     vdW  Elec       q    Type
REMARK                         _______ _______ _______ _____ _____    ______ ____
ROOT
ATOM     10  C   UNL     1      -1.667   1.960  25.296  0.00  0.00    +0.003 A 
ATOM     11  C   UNL     1      -2.294   1.525  24.981  0.00  0.00    +0.006 A 
ATOM     12  C   UNL     1      -2.258   0.700  24.971  0.00  0.00    +0.069 A 
ATOM     13  C   UNL     1      -1.596   0.313  25.275  0.00  0.00    +0.078 A 
ATOM     14  N   UNL     1      -1.451  -0.499  25.318  0.00  0.00    -0.178 NA
ATOM     15  C   UNL     1      -1.930  -1.121  25.067  0.00  0.00    +0.264 C 
ATOM     16  O   UNL     1      -1.626  -1.878  25.188  0.00  0.00    -0.271 OA
ATOM     17  C   UNL     1      -2.674  -1.087  24.712  0.00  0.00    +0.155 C 
ATOM     18  C   UNL     1      -2.965  -1.842  24.548  0.00  0.00    +0.048 C 
ATOM     19  C   UNL     1      -3.703  -1.930  24.191  0.00  0.00    +0.096 C 
ATOM     20  N   UNL     1      -3.994  -2.685  24.027  0.00  0.00    -0.133 NA
ATOM     21  C   UNL     1      -4.151  -1.265  23.999  0.00  0.00    +0.041 C 
ATOM     22  C   UNL     1      -3.861  -0.510  24.163  0.00  0.00    +0.096 C 
ATOM     23  N   UNL     1      -3.122  -0.422  24.520  0.00  0.00    -0.269 N 
ATOM     24  C   UNL     1      -2.936   0.374  24.635  0.00  0.00    +0.251 C 
ATOM     25  O   UNL     1      -3.505   0.915  24.380  0.00  0.00    -0.270 OA
ATOM     26  C   UNL     1      -0.971   0.748  25.589  0.00  0.00    +0.017 A 
ATOM     27  C   UNL     1      -1.006   1.573  25.600  0.00  0.00    +0.001 A 
ENDROOT
BRANCH  10   4
ATOM      3  C   UNL     1      -1.193   3.225  24.830  0.00  0.00    +0.139 A 
ATOM      4  C   UNL     1      -1.702   2.785  25.306  0.00  0.00    +0.035 A 
ATOM      5  C   UNL     1      -2.248   3.168  25.793  0.00  0.00    +0.014 A 
ATOM      6  C   UNL     1      -2.283   3.992  25.803  0.00  0.00    +0.058 A 
ATOM      7 CL   UNL     1      -2.828   4.375  26.290  0.00  0.00    -0.082 Cl
ATOM      8  C   UNL     1      -1.774   4.433  25.328  0.00  0.00    +0.015 A 
ATOM      9  C   UNL     1      -1.228   4.050  24.841  0.00  0.00    +0.038 A 
BRANCH   3   2
ATOM      1  C   UNL     1      -0.146   3.283  23.860  0.00  0.00    +0.252 C 
ATOM      2  O   UNL     1      -0.648   2.843  24.344  0.00  0.00    -0.471 OA
ENDBRANCH   3   2
ENDBRANCH  10   4
TORSDOF 2
ENDMDL
MODEL 5
REMARK VINA RESULT:     -11.9      2.277      4.914
REMARK  Name = 
REMARK  2 active torsions:
REMARK  status: ('A' for Active; 'I' for Inactive)
REMARK    1  A    between atoms: O_2  and  C_3
REMARK    2  A    between atoms: C_4  and  C_10
REMARK                            x       y       z     vdW  Elec       q    Type
REMARK                         _______ _______ _______ _____ _____    ______ ____
ROOT
ATOM     10  C   UNL     1      -3.779   1.854  24.798  0.00  0.00    +0.003 A 
ATOM     11  C   UNL     1      -3.144   1.328  24.776  0.00  0.00    +0.006 A 
ATOM     12  C   UNL     1      -3.283   0.518  24.704  0.00  0.00    +0.069 A 
ATOM     13  C   UNL     1      -4.057   0.235  24.655  0.00  0.00    +0.078 A 
ATOM     14  N   UNL     1      -4.315  -0.546  24.581  0.00  0.00    -0.178 NA
ATOM     15  C   UNL     1      -3.863  -1.235  24.539  0.00  0.00    +0.264 C 
ATOM     16  O   UNL     1      -4.289  -1.938  24.466  0.00  0.00    -0.271 OA
ATOM     17  C   UNL     1      -3.043  -1.315  24.561  0.00  0.00    +0.155 C 
ATOM     18  C   UNL     1      -2.815  -2.106  24.503  0.00  0.00    +0.048 C 
ATOM     19  C   UNL     1      -2.015  -2.306  24.513  0.00  0.00    +0.096 C 
ATOM     20  N   UNL     1      -1.787  -3.097  24.455  0.00  0.00    -0.133 NA
ATOM     21  C   UNL     1      -1.443  -1.717  24.582  0.00  0.00    +0.041 C 
ATOM     22  C   UNL     1      -1.670  -0.925  24.640  0.00  0.00    +0.096 C 
ATOM     23  N   UNL     1      -2.470  -0.725  24.629  0.00  0.00    -0.269 N 
ATOM     24  C   UNL     1      -2.578   0.091  24.693  0.00  0.00    +0.251 C 
ATOM     25  O   UNL     1      -1.887   0.539  24.754  0.00  0.00    -0.270 OA
ATOM     26  C   UNL     1      -4.691   0.762  24.677  0.00  0.00    +0.017 A 
ATOM     27  C   UNL     1      -4.552   1.572  24.749  0.00  0.00    +0.001 A 
ENDROOT
BRANCH  10   4
ATOM      3  C   UNL     1      -3.657   3.147  24.202  0.00  0.00    +0.139 A 
ATOM      4  C   UNL     1      -3.640   2.665  24.870  0.00  0.00    +0.035 A 
ATOM      5  C   UNL     1      -3.485   2.992  25.612  0.00  0.00    +0.014 A 
ATOM      6  C   UNL     1      -3.347   3.802  25.684  0.00  0.00    +0.058 A 
ATOM      7 CL   UNL     1      -3.192   4.129  26.425  0.00  0.00    -0.082 Cl
ATOM      8  C   UNL     1      -3.363   4.285  25.016  0.00  0.00    +0.015 A 
ATOM      9  C   UNL     1      -3.518   3.957  24.274  0.00  0.00    +0.038 A 
BRANCH   3   2
ATOM      1  C   UNL     1      -3.761   3.289  22.784  0.00  0.00    +0.252 C 
ATOM      2  O   UNL     1      -3.812   2.820  23.461  0.00  0.00    -0.471 OA
ENDBRANCH   3   2
ENDBRANCH  10   4
TORSDOF 2
ENDMDL
MODEL 6
REMARK VINA RESULT:     -11.9      2.281      4.570
REMARK  Name = 
REMARK  2 active torsions:
REMARK  status: ('A' for Active; 'I' for Inactive)
REMARK    1  A    between atoms: O_2  and  C_3
REMARK    2  A    between atoms: C_4  and  C_10
REMARK                            x       y       z     vdW  Elec       q    Type
REMARK                         _______ _______ _______ _____ _____    ______ ____
ROOT
ATOM     10  C   UNL     1      -3.550   2.033  24.600  0.00  0.00    +0.003 A 
ATOM     11  C   UNL     1      -3.235   1.343  24.926  0.00  0.00    +0.006 A 
ATOM     12  C   UNL     1      -2.525   1.038  24.635  0.00  0.00    +0.069 A 
ATOM     13  C   UNL     1      -2.131   1.423  24.021  0.00  0.00    +0.078 A 
ATOM     14  N   UNL     1      -1.423   1.213  23.654  0.00  0.00    -0.178 NA
ATOM     15  C   UNL     1      -0.933   0.568  23.810  0.00  0.00    +0.264 C 
ATOM     16  O   UNL     1      -0.256   0.510  23.343  0.00  0.00    -0.271 OA
ATOM     17  C   UNL     1      -1.032  -0.028  24.373  0.00  0.00    +0.155 C 
ATOM     18  C   UNL     1      -0.412  -0.572  24.348  0.00  0.00    +0.048 C 
ATOM     19  C   UNL     1      -0.404  -1.212  24.867  0.00  0.00    +0.096 C 
ATOM     20  N   UNL     1       0.216  -1.757  24.841  0.00  0.00    -0.133 NA
ATOM     21  C   UNL     1      -1.015  -1.310  25.411  0.00  0.00    +0.041 C 
ATOM     22  C   UNL     1      -1.636  -0.766  25.438  0.00  0.00    +0.096 C 
ATOM     23  N   UNL     1      -1.643  -0.125  24.918  0.00  0.00    -0.269 N 
ATOM     24  C   UNL     1      -2.308   0.350  25.035  0.00  0.00    +0.251 C 
ATOM     25  O   UNL     1      -2.824   0.103  25.629  0.00  0.00    -0.270 OA
ATOM     26  C   UNL     1      -2.447   2.112  23.696  0.00  0.00    +0.017 A 
ATOM     27  C   UNL     1      -3.157   2.417  23.986  0.00  0.00    +0.001 A 
ENDROOT
BRANCH  10   4
ATOM      3  C   UNL     1      -4.256   3.016  25.360  0.00  0.00    +0.139 A 
ATOM      4  C   UNL     1      -4.260   2.338  24.890  0.00  0.00    +0.035 A 
ATOM      5  C   UNL     1      -4.974   1.965  24.709  0.00  0.00    +0.014 A 
ATOM      6  C   UNL     1      -5.684   2.270  24.998  0.00  0.00    +0.058 A 
ATOM      7 CL   UNL     1      -6.397   1.897  24.817  0.00  0.00    -0.082 Cl
ATOM      8  C   UNL     1      -5.680   2.948  25.468  0.00  0.00    +0.015 A 
ATOM      9  C   UNL     1      -4.966   3.321  25.649  0.00  0.00    +0.038 A 
BRANCH   3   2
ATOM      1  C   UNL     1      -3.532   4.025  26.065  0.00  0.00    +0.252 C 
ATOM      2  O   UNL     1      -3.543   3.389  25.541  0.00  0.00    -0.471 OA
ENDBRANCH   3   2
ENDBRANCH  10   4
TORSDOF 2
ENDMDL
MODEL 7
REMARK VINA RESULT:     -11.9      2.127      2.534
REMARK  Name = 
REMARK  2 active torsions:
REMARK  status: ('A' for Active; 'I' for Inactive)
REMARK    1  A    between atoms: O_2  and  C_3
REMARK    2  A    between atoms: C_4  and  C_10
REMARK                            x       y       z     vdW  Elec       q    Type
REMARK                         _______ _______ _______ _____ _____    ______ ____
ROOT
ATOM     10  C   UNL     1      -2.311   0.127  24.572  0.00  0.00    +0.003 A 
ATOM     11  C   UNL     1      -2.543   0.880  24.816  0.00  0.00    +0.006 A 
ATOM     12  C   UNL     1      -2.030   1.520  24.719  0.00  0.00    +0.069 A 
ATOM     13  C   UNL     1      -1.288   1.406  24.379  0.00  0.00    +0.078 A 
ATOM     14  N   UNL     1      -0.698   1.965  24.234  0.00  0.00    -0.178 NA
ATOM     15  C   UNL     1      -0.706   2.775  24.392  0.00  0.00    +0.264 C 
ATOM     16  O   UNL     1      -0.024   3.188  24.179  0.00  0.00    -0.271 OA
ATOM     17  C   UNL     1      -1.305   3.226  24.735  0.00  0.00    +0.155 C 
ATOM     18  C   UNL     1      -1.089   4.020  24.795  0.00  0.00    +0.048 C 
ATOM     19  C   UNL     1      -1.611   4.566  25.124  0.00  0.00    +0.096 C 
ATOM     20  N   UNL     1      -1.395   5.361  25.183  0.00  0.00    -0.133 NA
ATOM     21  C   UNL     1      -2.351   4.320  25.393  0.00  0.00    +0.041 C 
ATOM     22  C   UNL     1      -2.568   3.526  25.334  0.00  0.00    +0.096 C 
ATOM     23  N   UNL     1      -2.044   2.980  25.005  0.00  0.00    -0.269 N 
ATOM     24  C   UNL     1      -2.367   2.220  24.998  0.00  0.00    +0.251 C 
ATOM     25  O   UNL     1      -3.128   2.151  25.310  0.00  0.00    -0.270 OA
ATOM     26  C   UNL     1      -1.056   0.653  24.136  0.00  0.00    +0.017 A 
ATOM     27  C   UNL     1      -1.568   0.013  24.232  0.00  0.00    +0.001 A 
ENDROOT
BRANCH  10   4
ATOM      3  C   UNL     1      -2.760  -0.994  25.335  0.00  0.00    +0.139 A 
ATOM      4  C   UNL     1      -2.822  -0.513  24.668  0.00  0.00    +0.035 A 
ATOM      5  C   UNL     1      -3.396  -0.672  24.097  0.00  0.00    +0.014 A 
ATOM      6  C   UNL     1      -3.907  -1.312  24.193  0.00  0.00    +0.058 A 
ATOM      7 CL   UNL     1      -4.481  -1.471  23.622  0.00  0.00    -0.082 Cl
ATOM      8  C   UNL     1      -3.845  -1.793  24.860  0.00  0.00    +0.015 A 
ATOM      9  C   UNL     1      -3.271  -1.635  25.432  0.00  0.00    +0.038 A 
BRANCH   3   2
ATOM      1  C   UNL     1      -2.132  -1.310  26.579  0.00  0.00    +0.252 C 
ATOM      2  O   UNL     1      -2.186  -0.836  25.906  0.00  0.00    -0.471 OA
ENDBRANCH   3   2
ENDBRANCH  10   4
TORSDOF 2
ENDMDL
MODEL 8
REMARK VINA RESULT:     -11.2      2.321      2.799
REMARK  Name = 
REMARK  2 active torsions:
REMARK  status: ('A' for Active; 'I' for Inactive)
REMARK    1  A    between atoms: O_2  and  C_3
REMARK    2  A    between atoms: C_4  and  C_10
REMARK                            x       y       z     vdW  Elec       q    Type
REMARK                         _______ _______ _______ _____ _____    ______ ____
ROOT
ATOM     10  C   UNL     1      -1.004   1.253  24.854  0.00  0.00    +0.003 A 
ATOM     11  C   UNL     1      -1.810   1.368  24.718  0.00  0.00    +0.006 A 
ATOM     12  C   UNL     1      -2.189   2.033  25.029  0.00  0.00    +0.069 A 
ATOM     13  C   UNL     1      -1.762   2.580  25.474  0.00  0.00    +0.078 A 
ATOM     14  N   UNL     1      -2.031   3.274  25.830  0.00  0.00    -0.178 NA
ATOM     15  C   UNL     1      -2.793   3.591  25.830  0.00  0.00    +0.264 C 
ATOM     16  O   UNL     1      -2.886   4.300  26.241  0.00  0.00    -0.271 OA
ATOM     17  C   UNL     1      -3.474   3.292  25.473  0.00  0.00    +0.155 C 
ATOM     18  C   UNL     1      -4.125   3.782  25.607  0.00  0.00    +0.048 C 
ATOM     19  C   UNL     1      -4.862   3.582  25.297  0.00  0.00    +0.096 C 
ATOM     20  N   UNL     1      -5.513   4.072  25.431  0.00  0.00    -0.133 NA
ATOM     21  C   UNL     1      -4.950   2.893  24.852  0.00  0.00    +0.041 C 
ATOM     22  C   UNL     1      -4.299   2.403  24.717  0.00  0.00    +0.096 C 
ATOM     23  N   UNL     1      -3.562   2.603  25.028  0.00  0.00    -0.269 N 
ATOM     24  C   UNL     1      -2.989   2.042  24.831  0.00  0.00    +0.251 C 
ATOM     25  O   UNL     1      -3.253   1.408  24.374  0.00  0.00    -0.270 OA
ATOM     26  C   UNL     1      -0.957   2.465  25.609  0.00  0.00    +0.017 A 
ATOM     27  C   UNL     1      -0.577   1.801  25.298  0.00  0.00    +0.001 A 
ENDROOT
BRANCH  10   4
ATOM      3  C   UNL     1      -0.673  -0.134  24.935  0.00  0.00    +0.139 A 
ATOM      4  C   UNL     1      -0.625   0.590  24.543  0.00  0.00    +0.035 A 
ATOM      5  C   UNL     1      -0.196   0.650  23.840  0.00  0.00    +0.014 A 
ATOM      6  C   UNL     1       0.183  -0.013  23.530  0.00  0.00    +0.058 A 
ATOM      7 CL   UNL     1       0.611   0.048  22.828  0.00  0.00    -0.082 Cl
ATOM      8  C   UNL     1       0.135  -0.737  23.922  0.00  0.00    +0.015 A 
ATOM      9  C   UNL     1      -0.294  -0.798  24.625  0.00  0.00    +0.038 A 
BRANCH   3   2
ATOM      1  C   UNL     1      -1.174  -0.925  26.015  0.00  0.00    +0.252 C 
ATOM      2  O   UNL     1      -1.101  -0.195  25.638  0.00  0.00    -0.471 OA
ENDBRANCH   3   2
ENDBRANCH  10   4
TORSDOF 2
ENDMDL
