MODEL 1
REMARK VINA RESULT:     -12.6      0.000      0.000
REMARK  Name = 
REMARK  3 active torsions:
REMARK  status: ('A' for Active; 'I' for Inactive)
REMARK    1  A    between atoms: N_2  and  C_4
REMARK    2  A    between atoms: C_4  and  C_5
REMARK    3  A    between atoms: C_16  and  C_17
REMARK                            x       y       z     vdW  Elec       q    Type
REMARK                         _______ _______ _______ _____ _____    ______ ____
ROOT
ATOM      5  C   UNL     1      -1.800  -0.698  24.636  0.00  0.00    +0.242 C 
ATOM      6  O   UNL     1      -1.004  -0.516  24.755  0.00  0.00    -0.273 OA
ATOM      7  N   UNL     1      -2.051  -1.484  24.653  0.00  0.00    -0.278 N 
ATOM      8  C   UNL     1      -2.005  -2.315  24.722  0.00  0.00    +0.095 C 
ATOM      9  C   UNL     1      -2.955  -2.546  24.582  0.00  0.00    +0.043 C 
ATOM     10  C   UNL     1      -3.684  -2.896  24.486  0.00  0.00    +0.011 C 
ATOM     11  C   UNL     1      -3.416  -2.247  24.483  0.00  0.00    +0.058 C 
ATOM     12  C   UNL     1      -2.494  -2.040  24.621  0.00  0.00    +0.099 C 
ATOM     13  C   UNL     1      -3.658  -1.367  24.377  0.00  0.00    +0.041 A 
ATOM     14  C   UNL     1      -4.321  -0.899  24.232  0.00  0.00    +0.013 A 
ATOM     15  C   UNL     1      -4.244  -0.079  24.183  0.00  0.00    +0.006 A 
ATOM     16  C   UNL     1      -3.504   0.272  24.280  0.00  0.00    +0.059 A 
ATOM     23  C   UNL     1      -2.841  -0.196  24.425  0.00  0.00    +0.261 A 
ATOM     24  O   UNL     1      -2.441   0.525  24.438  0.00  0.00    -0.267 OA
ATOM     25  N   UNL     1      -2.918  -1.016  24.474  0.00  0.00    -0.299 N 
ATOM     26  C   UNL     1      -3.199  -1.624  24.472  0.00  0.00    +0.110 C 
ENDROOT
BRANCH  16  17
ATOM     17  C   UNL     1      -3.427   1.092  24.232  0.00  0.00    +0.043 A 
ATOM     18  C   UNL     1      -3.563   1.559  24.899  0.00  0.00    +0.102 A 
ATOM     19  N   UNL     1      -3.487   2.379  24.851  0.00  0.00    -0.222 NA
ATOM     20  C   UNL     1      -3.275   2.732  24.137  0.00  0.00    +0.199 A 
ATOM     21  N   UNL     1      -3.139   2.266  23.469  0.00  0.00    -0.222 NA
ATOM     22  C   UNL     1      -3.215   1.445  23.517  0.00  0.00    +0.102 A 
ENDBRANCH  16  17
BRANCH   5   4
ATOM      4  C   UNL     1      -2.345  -0.093  24.500  0.00  0.00    +0.159 C 
BRANCH   4   2
ATOM      1  C   UNL     1      -1.449   0.986  24.226  0.00  0.00    +0.090 C 
ATOM      2  N   UNL     1      -2.122   0.694  24.603  0.00  0.00    -0.263 NA
ATOM      3  C   UNL     1      -2.182   1.461  24.901  0.00  0.00    +0.090 C 
ENDBRANCH   4   2
ENDBRANCH   5   4
TORSDOF 3
ENDMDL
MODEL 2
REMARK VINA RESULT:     -12.2      0.887      2.124
REMARK  Name = 
REMARK  3 active torsions:
REMARK  status: ('A' for Active; 'I' for Inactive)
REMARK    1  A    between atoms: N_2  and  C_4
REMARK    2  A    between atoms: C_4  and  C_5
REMARK    3  A    between atoms: C_16  and  C_17
REMARK                            x       y       z     vdW  Elec       q    Type
REMARK                         _______ _______ _______ _____ _____    ______ ____
ROOT
ATOM      5  C   UNL     1      -3.452  -0.038  24.190  0.00  0.00    +0.242 C 
ATOM      6  O   UNL     1      -3.910   0.616  23.980  0.00  0.00    -0.273 OA
ATOM      7  N   UNL     1      -3.783  -0.794  24.176  0.00  0.00    -0.278 N 
ATOM      8  C   UNL     1      -4.357  -1.391  24.071  0.00  0.00    +0.095 C 
ATOM      9  C   UNL     1      -3.820  -2.183  24.320  0.00  0.00    +0.043 C 
ATOM     10  C   UNL     1      -3.521  -2.921  24.492  0.00  0.00    +0.011 C 
ATOM     11  C   UNL     1      -3.293  -2.257  24.485  0.00  0.00    +0.058 C 
ATOM     12  C   UNL     1      -3.825  -1.502  24.242  0.00  0.00    +0.099 C 
ATOM     13  C   UNL     1      -2.545  -1.750  24.652  0.00  0.00    +0.041 A 
ATOM     14  C   UNL     1      -1.760  -1.827  24.894  0.00  0.00    +0.013 A 
ATOM     15  C   UNL     1      -1.282  -1.158  24.962  0.00  0.00    +0.006 A 
ATOM     16  C   UNL     1      -1.589  -0.412  24.787  0.00  0.00    +0.059 A 
ATOM     23  C   UNL     1      -2.373  -0.335  24.545  0.00  0.00    +0.261 A 
ATOM     24  O   UNL     1      -2.193   0.468  24.509  0.00  0.00    -0.267 OA
ATOM     25  N   UNL     1      -2.851  -1.004  24.477  0.00  0.00    -0.299 N 
ATOM     26  C   UNL     1      -3.044  -1.645  24.491  0.00  0.00    +0.110 C 
ENDROOT
BRANCH  16  17
ATOM     17  C   UNL     1      -1.110   0.256  24.855  0.00  0.00    +0.043 A 
ATOM     18  C   UNL     1      -0.619   0.477  24.230  0.00  0.00    +0.102 A 
ATOM     19  N   UNL     1      -0.141   1.145  24.297  0.00  0.00    -0.222 NA
ATOM     20  C   UNL     1      -0.152   1.593  24.990  0.00  0.00    +0.199 A 
ATOM     21  N   UNL     1      -0.643   1.373  25.616  0.00  0.00    -0.222 NA
ATOM     22  C   UNL     1      -1.122   0.704  25.548  0.00  0.00    +0.102 A 
ENDBRANCH  16  17
BRANCH   5   4
ATOM      4  C   UNL     1      -2.664   0.064  24.413  0.00  0.00    +0.159 C 
BRANCH   4   2
ATOM      1  C   UNL     1      -2.634   1.484  24.574  0.00  0.00    +0.090 C 
ATOM      2  N   UNL     1      -2.292   0.790  24.290  0.00  0.00    -0.263 NA
ATOM      3  C   UNL     1      -1.702   1.296  24.014  0.00  0.00    +0.090 C 
ENDBRANCH   4   2
ENDBRANCH   5   4
TORSDOF 3
ENDMDL
MODEL 3
REMARK VINA RESULT:     -12.1      0.945      3.457
REMARK  Name = 
REMARK  3 active torsions:
REMARK  status: ('A' for Active; 'I' for Inactive)
REMARK    1  A    between atoms: N_2  and  C_4
REMARK    2  A    between atoms: C_4  and  C_5
REMARK    3  A    between atoms: C_16  and  C_17
REMARK                            x       y       z     vdW  Elec       q    Type
REMARK                         _______ _______ _______ _____ _____    ______ ____
ROOT
ATOM      5  C   UNL     1      -2.584   1.366  24.323  0.00  0.00    +0.242 C 
ATOM      6  O   UNL     1      -1.793   1.285  24.108  0.00  0.00    -0.273 OA
ATOM      7  N   UNL     1      -2.929   2.116  24.352  0.00  0.00    -0.278 N 
ATOM      8  C   UNL     1      -2.992   2.947  24.294  0.00  0.00    +0.095 C 
ATOM      9  C   UNL     1      -3.940   3.058  24.550  0.00  0.00    +0.043 C 
ATOM     10  C   UNL     1      -4.690   3.316  24.737  0.00  0.00    +0.011 C 
ATOM     11  C   UNL     1      -4.346   2.705  24.696  0.00  0.00    +0.058 C 
ATOM     12  C   UNL     1      -3.429   2.614  24.447  0.00  0.00    +0.099 C 
ATOM     13  C   UNL     1      -4.466   1.801  24.811  0.00  0.00    +0.041 A 
ATOM     14  C   UNL     1      -5.046   1.254  25.023  0.00  0.00    +0.013 A 
ATOM     15  C   UNL     1      -4.865   0.450  25.045  0.00  0.00    +0.006 A 
ATOM     16  C   UNL     1      -4.104   0.192  24.855  0.00  0.00    +0.059 A 
ATOM     23  C   UNL     1      -3.525   0.740  24.643  0.00  0.00    +0.261 A 
ATOM     24  O   UNL     1      -3.045   0.073  24.569  0.00  0.00    -0.267 OA
ATOM     25  N   UNL     1      -3.706   1.544  24.621  0.00  0.00    -0.299 N 
ATOM     26  C   UNL     1      -4.056   2.113  24.668  0.00  0.00    +0.110 C 
ENDROOT
BRANCH  16  17
ATOM     17  C   UNL     1      -3.924  -0.612  24.877  0.00  0.00    +0.043 A 
ATOM     18  C   UNL     1      -4.049  -1.081  24.209  0.00  0.00    +0.102 A 
ATOM     19  N   UNL     1      -3.869  -1.885  24.231  0.00  0.00    -0.222 NA
ATOM     20  C   UNL     1      -3.564  -2.222  24.919  0.00  0.00    +0.199 A 
ATOM     21  N   UNL     1      -3.440  -1.754  25.588  0.00  0.00    -0.222 NA
ATOM     22  C   UNL     1      -3.620  -0.948  25.566  0.00  0.00    +0.102 A 
ENDBRANCH  16  17
BRANCH   5   4
ATOM      4  C   UNL     1      -3.033   0.698  24.509  0.00  0.00    +0.159 C 
BRANCH   4   2
ATOM      1  C   UNL     1      -1.969  -0.212  24.791  0.00  0.00    +0.090 C 
ATOM      2  N   UNL     1      -2.699  -0.053  24.444  0.00  0.00    -0.263 NA
ATOM      3  C   UNL     1      -2.660  -0.842  24.204  0.00  0.00    +0.090 C 
ENDBRANCH   4   2
ENDBRANCH   5   4
TORSDOF 3
ENDMDL
MODEL 4
REMARK VINA RESULT:     -12.0      1.969      3.493
REMARK  Name = 
REMARK  3 active torsions:
REMARK  status: ('A' for Active; 'I' for Inactive)
REMARK    1  A    between atoms: N_2  and  C_4
REMARK    2  A    between atoms: C_4  and  C_5
REMARK    3  A    between atoms: C_16  and  C_17
REMARK                            x       y       z     vdW  Elec       q    Type
REMARK                         _______ _______ _______ _____ _____    ______ ____
ROOT
ATOM      5  C   UNL     1      -3.583   3.079  25.155  0.00  0.00    +0.242 C 
ATOM      6  O   UNL     1      -3.207   3.799  25.295  0.00  0.00    -0.273 OA
ATOM      7  N   UNL     1      -4.401   3.016  25.246  0.00  0.00    -0.278 N 
ATOM      8  C   UNL     1      -5.187   3.248  25.409  0.00  0.00    +0.095 C 
ATOM      9  C   UNL     1      -5.650   2.391  25.244  0.00  0.00    +0.043 C 
ATOM     10  C   UNL     1      -6.172   1.772  25.150  0.00  0.00    +0.011 C 
ATOM     11  C   UNL     1      -5.482   1.883  25.088  0.00  0.00    +0.058 C 
ATOM     12  C   UNL     1      -5.048   2.718  25.252  0.00  0.00    +0.099 C 
ATOM     13  C   UNL     1      -4.699   1.452  24.872  0.00  0.00    +0.041 A 
ATOM     14  C   UNL     1      -4.418   0.712  24.641  0.00  0.00    +0.013 A 
ATOM     15  C   UNL     1      -3.612   0.601  24.506  0.00  0.00    +0.006 A 
ATOM     16  C   UNL     1      -3.087   1.230  24.603  0.00  0.00    +0.059 A 
ATOM     23  C   UNL     1      -3.367   1.970  24.834  0.00  0.00    +0.261 A 
ATOM     24  O   UNL     1      -2.574   2.189  24.788  0.00  0.00    -0.267 OA
ATOM     25  N   UNL     1      -4.174   2.081  24.969  0.00  0.00    -0.299 N 
ATOM     26  C   UNL     1      -4.828   1.950  25.020  0.00  0.00    +0.110 C 
ENDROOT
BRANCH  16  17
ATOM     17  C   UNL     1      -2.281   1.118  24.468  0.00  0.00    +0.043 A 
ATOM     18  C   UNL     1      -1.800   0.818  25.068  0.00  0.00    +0.102 A 
ATOM     19  N   UNL     1      -0.994   0.705  24.934  0.00  0.00    -0.222 NA
ATOM     20  C   UNL     1      -0.669   0.893  24.199  0.00  0.00    +0.199 A 
ATOM     21  N   UNL     1      -1.148   1.192  23.599  0.00  0.00    -0.222 NA
ATOM     22  C   UNL     1      -1.955   1.305  23.733  0.00  0.00    +0.102 A 
ENDBRANCH  16  17
BRANCH   5   4
ATOM      4  C   UNL     1      -3.142   2.420  24.924  0.00  0.00    +0.159 C 
BRANCH   4   2
ATOM      1  C   UNL     1      -1.897   3.053  24.622  0.00  0.00    +0.090 C 
ATOM      2  N   UNL     1      -2.319   2.438  24.973  0.00  0.00    -0.263 NA
ATOM      3  C   UNL     1      -1.572   2.168  25.196  0.00  0.00    +0.090 C 
ENDBRANCH   4   2
ENDBRANCH   5   4
TORSDOF 3
ENDMDL
