MODEL 1
REMARK VINA RESULT:     -13.5      0.000      0.000
REMARK  Name = 
REMARK  4 active torsions:
REMARK  status: ('A' for Active; 'I' for Inactive)
REMARK    1  A    between atoms: O_2  and  C_3
REMARK    2  A    between atoms: C_6  and  S_9
REMARK    3  A    between atoms: S_9  and  N_12
REMARK    4  A    between atoms: C_21  and  C_22
REMARK                            x       y       z     vdW  Elec       q    Type
REMARK                         _______ _______ _______ _____ _____    ______ ____
ROOT
ATOM     12  N   UNL     1      -4.010  -0.990  24.184  0.00  0.00    -0.155 NA
ATOM     13  C   UNL     1      -4.469  -1.680  24.083  0.00  0.00    +0.098 C 
ATOM     14  C   UNL     1      -3.794  -2.363  24.315  0.00  0.00    +0.041 C 
ATOM     15  C   UNL     1      -3.364  -3.036  24.475  0.00  0.00    +0.011 C 
ATOM     16  C   UNL     1      -3.259  -2.342  24.471  0.00  0.00    +0.056 C 
ATOM     17  C   UNL     1      -3.923  -1.694  24.244  0.00  0.00    +0.102 C 
ATOM     18  C   UNL     1      -2.611  -1.710  24.629  0.00  0.00    +0.041 A 
ATOM     19  C   UNL     1      -1.821  -1.645  24.857  0.00  0.00    +0.013 A 
ATOM     20  C   UNL     1      -1.471  -0.902  24.923  0.00  0.00    +0.006 A 
ATOM     21  C   UNL     1      -1.910  -0.222  24.761  0.00  0.00    +0.062 A 
ATOM     27  C   UNL     1      -2.700  -0.287  24.532  0.00  0.00    +0.261 A 
ATOM     28  O   UNL     1      -3.139   0.393  24.370  0.00  0.00    -0.267 OA
ATOM     29  N   UNL     1      -3.050  -1.030  24.467  0.00  0.00    -0.299 N 
ATOM     30  C   UNL     1      -3.124  -1.696  24.478  0.00  0.00    +0.110 C 
ENDROOT
BRANCH  21  22
ATOM     22  C   UNL     1      -1.558   0.521  24.827  0.00  0.00    +0.034 A 
ATOM     23  C   UNL     1      -1.564   1.002  25.497  0.00  0.00    +0.007 A 
ATOM     24  C   UNL     1      -1.149   1.692  25.320  0.00  0.00    +0.007 A 
ATOM     25  C   UNL     1      -0.886   1.638  24.539  0.00  0.00    +0.035 A 
ATOM     26  S   UNL     1      -1.139   0.914  24.235  0.00  0.00    -0.086 S 
ENDBRANCH  21  22
BRANCH  12   9
ATOM      9  S   UNL     1      -3.821  -0.186  24.199  0.00  0.00    +0.063 S 
ATOM     10  O   UNL     1      -3.589  -0.226  23.408  0.00  0.00    -0.153 OA
ATOM     11  O   UNL     1      -4.053  -0.147  24.990  0.00  0.00    -0.153 OA
BRANCH   9   6
ATOM      3  C   UNL     1      -3.255   2.222  24.245  0.00  0.00    +0.139 A 
ATOM      4  C   UNL     1      -3.562   1.858  24.918  0.00  0.00    +0.038 A 
ATOM      5  C   UNL     1      -3.751   1.055  24.903  0.00  0.00    +0.023 A 
ATOM      6  C   UNL     1      -3.632   0.617  24.214  0.00  0.00    +0.122 A 
ATOM      7  C   UNL     1      -3.325   0.981  23.541  0.00  0.00    +0.023 A 
ATOM      8  C   UNL     1      -3.136   1.785  23.556  0.00  0.00    +0.038 A 
BRANCH   3   2
ATOM      1  C   UNL     1      -3.662   3.591  24.187  0.00  0.00    +0.252 C 
ATOM      2  O   UNL     1      -3.066   3.026  24.260  0.00  0.00    -0.471 OA
ENDBRANCH   3   2
ENDBRANCH   9   6
ENDBRANCH  12   9
TORSDOF 4
ENDMDL
MODEL 2
REMARK VINA RESULT:     -13.5      1.204      3.390
REMARK  Name = 
REMARK  4 active torsions:
REMARK  status: ('A' for Active; 'I' for Inactive)
REMARK    1  A    between atoms: O_2  and  C_3
REMARK    2  A    between atoms: C_6  and  S_9
REMARK    3  A    between atoms: S_9  and  N_12
REMARK    4  A    between atoms: C_21  and  C_22
REMARK                            x       y       z     vdW  Elec       q    Type
REMARK                         _______ _______ _______ _____ _____    ______ ____
ROOT
ATOM     12  N   UNL     1      -4.556   1.411  24.691  0.00  0.00    -0.155 NA
ATOM     13  C   UNL     1      -5.122   2.023  24.636  0.00  0.00    +0.098 C 
ATOM     14  C   UNL     1      -4.526   2.807  24.725  0.00  0.00    +0.041 C 
ATOM     15  C   UNL     1      -4.180   3.542  24.783  0.00  0.00    +0.011 C 
ATOM     16  C   UNL     1      -3.976   2.870  24.793  0.00  0.00    +0.056 C 
ATOM     17  C   UNL     1      -4.565   2.123  24.706  0.00  0.00    +0.102 C 
ATOM     18  C   UNL     1      -3.226   2.345  24.872  0.00  0.00    +0.041 A 
ATOM     19  C   UNL     1      -2.410   2.405  24.973  0.00  0.00    +0.013 A 
ATOM     20  C   UNL     1      -1.948   1.723  25.014  0.00  0.00    +0.006 A 
ATOM     21  C   UNL     1      -2.303   0.980  24.955  0.00  0.00    +0.062 A 
ATOM     27  C   UNL     1      -3.119   0.920  24.855  0.00  0.00    +0.261 A 
ATOM     28  O   UNL     1      -3.474   0.177  24.796  0.00  0.00    -0.267 OA
ATOM     29  N   UNL     1      -3.581   1.602  24.814  0.00  0.00    -0.299 N 
ATOM     30  C   UNL     1      -3.748   2.250  24.807  0.00  0.00    +0.110 C 
ENDROOT
BRANCH  21  22
ATOM     22  C   UNL     1      -1.840   0.299  24.997  0.00  0.00    +0.034 A 
ATOM     23  C   UNL     1      -1.683  -0.140  25.678  0.00  0.00    +0.007 A 
ATOM     24  C   UNL     1      -1.200  -0.774  25.468  0.00  0.00    +0.007 A 
ATOM     25  C   UNL     1      -1.057  -0.727  24.656  0.00  0.00    +0.035 A 
ATOM     26  S   UNL     1      -1.453  -0.064  24.365  0.00  0.00    -0.086 S 
ENDBRANCH  21  22
BRANCH  12   9
ATOM      9  S   UNL     1      -4.252   0.644  24.712  0.00  0.00    +0.063 S 
ATOM     10  O   UNL     1      -4.119   0.675  23.898  0.00  0.00    -0.153 OA
ATOM     11  O   UNL     1      -4.384   0.613  25.526  0.00  0.00    -0.153 OA
BRANCH   9   6
ATOM      3  C   UNL     1      -3.339  -1.655  24.773  0.00  0.00    +0.139 A 
ATOM      4  C   UNL     1      -3.416  -1.262  24.053  0.00  0.00    +0.038 A 
ATOM      5  C   UNL     1      -3.720  -0.495  24.032  0.00  0.00    +0.023 A 
ATOM      6  C   UNL     1      -3.947  -0.123  24.732  0.00  0.00    +0.122 A 
ATOM      7  C   UNL     1      -3.870  -0.517  25.453  0.00  0.00    +0.023 A 
ATOM      8  C   UNL     1      -3.565  -1.283  25.473  0.00  0.00    +0.038 A 
BRANCH   3   2
ATOM      1  C   UNL     1      -3.526  -3.065  24.637  0.00  0.00    +0.252 C 
ATOM      2  O   UNL     1      -3.034  -2.422  24.794  0.00  0.00    -0.471 OA
ENDBRANCH   3   2
ENDBRANCH   9   6
ENDBRANCH  12   9
TORSDOF 4
ENDMDL
MODEL 3
REMARK VINA RESULT:     -13.3      1.079      2.142
REMARK  Name = 
REMARK  4 active torsions:
REMARK  status: ('A' for Active; 'I' for Inactive)
REMARK    1  A    between atoms: O_2  and  C_3
REMARK    2  A    between atoms: C_6  and  S_9
REMARK    3  A    between atoms: S_9  and  N_12
REMARK    4  A    between atoms: C_21  and  C_22
REMARK                            x       y       z     vdW  Elec       q    Type
REMARK                         _______ _______ _______ _____ _____    ______ ____
ROOT
ATOM     12  N   UNL     1      -2.109  -1.656  24.794  0.00  0.00    -0.155 NA
ATOM     13  C   UNL     1      -2.133  -2.488  24.867  0.00  0.00    +0.098 C 
ATOM     14  C   UNL     1      -3.072  -2.650  24.604  0.00  0.00    +0.041 C 
ATOM     15  C   UNL     1      -3.807  -2.947  24.416  0.00  0.00    +0.011 C 
ATOM     16  C   UNL     1      -3.493  -2.320  24.448  0.00  0.00    +0.056 C 
ATOM     17  C   UNL     1      -2.584  -2.180  24.704  0.00  0.00    +0.102 C 
ATOM     18  C   UNL     1      -3.655  -1.426  24.314  0.00  0.00    +0.041 A 
ATOM     19  C   UNL     1      -4.258  -0.911  24.086  0.00  0.00    +0.013 A 
ATOM     20  C   UNL     1      -4.116  -0.099  24.051  0.00  0.00    +0.006 A 
ATOM     21  C   UNL     1      -3.371   0.198  24.242  0.00  0.00    +0.062 A 
ATOM     27  C   UNL     1      -2.767  -0.317  24.470  0.00  0.00    +0.261 A 
ATOM     28  O   UNL     1      -2.022  -0.019  24.662  0.00  0.00    -0.267 OA
ATOM     29  N   UNL     1      -2.910  -1.128  24.506  0.00  0.00    -0.299 N 
ATOM     30  C   UNL     1      -3.232  -1.714  24.467  0.00  0.00    +0.110 C 
ENDROOT
BRANCH  21  22
ATOM     22  C   UNL     1      -3.229   1.009  24.206  0.00  0.00    +0.034 A 
ATOM     23  C   UNL     1      -2.926   1.421  23.558  0.00  0.00    +0.007 A 
ATOM     24  C   UNL     1      -2.875   2.218  23.762  0.00  0.00    +0.007 A 
ATOM     25  C   UNL     1      -3.147   2.300  24.537  0.00  0.00    +0.035 A 
ATOM     26  S   UNL     1      -3.365   1.554  24.811  0.00  0.00    -0.086 S 
ENDBRANCH  21  22
BRANCH  12   9
ATOM      9  S   UNL     1      -1.801  -0.891  24.811  0.00  0.00    +0.063 S 
ATOM     10  O   UNL     1      -1.557  -0.971  24.027  0.00  0.00    -0.153 OA
ATOM     11  O   UNL     1      -2.045  -0.810  25.596  0.00  0.00    -0.153 OA
BRANCH   9   6
ATOM      3  C   UNL     1      -0.879   1.405  24.864  0.00  0.00    +0.139 A 
ATOM      4  C   UNL     1      -1.232   1.087  25.538  0.00  0.00    +0.038 A 
ATOM      5  C   UNL     1      -1.539   0.322  25.520  0.00  0.00    +0.023 A 
ATOM      6  C   UNL     1      -1.494  -0.125  24.829  0.00  0.00    +0.122 A 
ATOM      7  C   UNL     1      -1.140   0.193  24.154  0.00  0.00    +0.023 A 
ATOM      8  C   UNL     1      -0.833   0.958  24.172  0.00  0.00    +0.038 A 
BRANCH   3   2
ATOM      1  C   UNL     1       0.203   2.298  25.137  0.00  0.00    +0.252 C 
ATOM      2  O   UNL     1      -0.571   2.171  24.881  0.00  0.00    -0.471 OA
ENDBRANCH   3   2
ENDBRANCH   9   6
ENDBRANCH  12   9
TORSDOF 4
ENDMDL
MODEL 4
REMARK VINA RESULT:     -13.2      1.500      3.845
REMARK  Name = 
REMARK  4 active torsions:
REMARK  status: ('A' for Active; 'I' for Inactive)
REMARK    1  A    between atoms: O_2  and  C_3
REMARK    2  A    between atoms: C_6  and  S_9
REMARK    3  A    between atoms: S_9  and  N_12
REMARK    4  A    between atoms: C_21  and  C_22
REMARK                            x       y       z     vdW  Elec       q    Type
REMARK                         _______ _______ _______ _____ _____    ______ ____
ROOT
ATOM     12  N   UNL     1      -3.237   2.824  24.866  0.00  0.00    -0.155 NA
ATOM     13  C   UNL     1      -3.380   3.644  24.942  0.00  0.00    +0.098 C 
ATOM     14  C   UNL     1      -4.353   3.627  25.113  0.00  0.00    +0.041 C 
ATOM     15  C   UNL     1      -5.139   3.781  25.262  0.00  0.00    +0.011 C 
ATOM     16  C   UNL     1      -4.732   3.220  25.155  0.00  0.00    +0.056 C 
ATOM     17  C   UNL     1      -3.792   3.253  24.991  0.00  0.00    +0.102 C 
ATOM     18  C   UNL     1      -4.768   2.303  25.105  0.00  0.00    +0.041 A 
ATOM     19  C   UNL     1      -5.305   1.679  25.162  0.00  0.00    +0.013 A 
ATOM     20  C   UNL     1      -5.044   0.902  25.068  0.00  0.00    +0.006 A 
ATOM     21  C   UNL     1      -4.248   0.748  24.917  0.00  0.00    +0.062 A 
ATOM     27  C   UNL     1      -3.711   1.372  24.860  0.00  0.00    +0.261 A 
ATOM     28  O   UNL     1      -2.915   1.219  24.709  0.00  0.00    -0.267 OA
ATOM     29  N   UNL     1      -3.971   2.149  24.954  0.00  0.00    -0.299 N 
ATOM     30  C   UNL     1      -4.381   2.668  25.059  0.00  0.00    +0.110 C 
ENDROOT
BRANCH  21  22
ATOM     22  C   UNL     1      -3.989  -0.029  24.823  0.00  0.00    +0.034 A 
ATOM     23  C   UNL     1      -3.925  -0.436  24.108  0.00  0.00    +0.007 A 
ATOM     24  C   UNL     1      -3.645  -1.194  24.269  0.00  0.00    +0.007 A 
ATOM     25  C   UNL     1      -3.535  -1.256  25.085  0.00  0.00    +0.035 A 
ATOM     26  S   UNL     1      -3.747  -0.537  25.427  0.00  0.00    -0.086 S 
ENDBRANCH  21  22
BRANCH  12   9
ATOM      9  S   UNL     1      -2.816   2.124  24.748  0.00  0.00    +0.063 S 
ATOM     10  O   UNL     1      -2.971   2.167  23.938  0.00  0.00    -0.153 OA
ATOM     11  O   UNL     1      -2.661   2.081  25.557  0.00  0.00    -0.153 OA
BRANCH   9   6
ATOM      3  C   UNL     1      -1.554   0.025  24.395  0.00  0.00    +0.139 A 
ATOM      4  C   UNL     1      -1.637   0.333  25.155  0.00  0.00    +0.038 A 
ATOM      5  C   UNL     1      -2.058   1.033  25.273  0.00  0.00    +0.023 A 
ATOM      6  C   UNL     1      -2.395   1.424  24.630  0.00  0.00    +0.122 A 
ATOM      7  C   UNL     1      -2.312   1.116  23.869  0.00  0.00    +0.023 A 
ATOM      8  C   UNL     1      -1.891   0.416  23.752  0.00  0.00    +0.038 A 
BRANCH   3   2
ATOM      1  C   UNL     1      -0.311  -0.657  24.217  0.00  0.00    +0.252 C 
ATOM      2  O   UNL     1      -1.133  -0.675  24.277  0.00  0.00    -0.471 OA
ENDBRANCH   3   2
ENDBRANCH   9   6
ENDBRANCH  12   9
TORSDOF 4
ENDMDL
MODEL 5
REMARK VINA RESULT:     -13.1      2.228      3.556
REMARK  Name = 
REMARK  4 active torsions:
REMARK  status: ('A' for Active; 'I' for Inactive)
REMARK    1  A    between atoms: O_2  and  C_3
REMARK    2  A    between atoms: C_6  and  S_9
REMARK    3  A    between atoms: S_9  and  N_12
REMARK    4  A    between atoms: C_21  and  C_22
REMARK                            x       y       z     vdW  Elec       q    Type
REMARK                         _______ _______ _______ _____ _____    ______ ____
ROOT
ATOM     12  N   UNL     1      -4.226   1.772  24.702  0.00  0.00    -0.155 NA
ATOM     13  C   UNL     1      -5.053   1.649  24.703  0.00  0.00    +0.098 C 
ATOM     14  C   UNL     1      -5.341   2.467  25.176  0.00  0.00    +0.041 C 
ATOM     15  C   UNL     1      -5.734   3.078  25.544  0.00  0.00    +0.011 C 
ATOM     16  C   UNL     1      -5.071   2.904  25.394  0.00  0.00    +0.056 C 
ATOM     17  C   UNL     1      -4.809   2.109  24.935  0.00  0.00    +0.102 C 
ATOM     18  C   UNL     1      -4.208   3.205  25.488  0.00  0.00    +0.041 A 
ATOM     19  C   UNL     1      -3.781   3.838  25.801  0.00  0.00    +0.013 A 
ATOM     20  C   UNL     1      -2.959   3.850  25.740  0.00  0.00    +0.006 A 
ATOM     21  C   UNL     1      -2.563   3.230  25.366  0.00  0.00    +0.062 A 
ATOM     27  C   UNL     1      -2.990   2.597  25.053  0.00  0.00    +0.261 A 
ATOM     28  O   UNL     1      -2.595   1.977  24.680  0.00  0.00    -0.267 OA
ATOM     29  N   UNL     1      -3.813   2.585  25.115  0.00  0.00    -0.299 N 
ATOM     30  C   UNL     1      -4.436   2.774  25.270  0.00  0.00    +0.110 C 
ENDROOT
BRANCH  21  22
ATOM     22  C   UNL     1      -1.741   3.243  25.305  0.00  0.00    +0.034 A 
ATOM     23  C   UNL     1      -1.210   2.904  25.838  0.00  0.00    +0.007 A 
ATOM     24  C   UNL     1      -0.446   3.048  25.565  0.00  0.00    +0.007 A 
ATOM     25  C   UNL     1      -0.504   3.477  24.861  0.00  0.00    +0.035 A 
ATOM     26  S   UNL     1      -1.304   3.597  24.701  0.00  0.00    -0.086 S 
ENDBRANCH  21  22
BRANCH  12   9
ATOM      9  S   UNL     1      -3.427   1.627  24.556  0.00  0.00    +0.063 S 
ATOM     10  O   UNL     1      -3.484   2.033  23.839  0.00  0.00    -0.153 OA
ATOM     11  O   UNL     1      -3.370   1.222  25.273  0.00  0.00    -0.153 OA
BRANCH   9   6
ATOM      3  C   UNL     1      -1.030   1.193  24.120  0.00  0.00    +0.139 A 
ATOM      4  C   UNL     1      -1.377   0.922  24.817  0.00  0.00    +0.038 A 
ATOM      5  C   UNL     1      -2.177   1.067  24.962  0.00  0.00    +0.023 A 
ATOM      6  C   UNL     1      -2.627   1.482  24.411  0.00  0.00    +0.122 A 
ATOM      7  C   UNL     1      -2.280   1.753  23.714  0.00  0.00    +0.023 A 
ATOM      8  C   UNL     1      -1.480   1.609  23.568  0.00  0.00    +0.038 A 
BRANCH   3   2
ATOM      1  C   UNL     1       0.006   0.327  23.651  0.00  0.00    +0.252 C 
ATOM      2  O   UNL     1      -0.230   1.048  23.974  0.00  0.00    -0.471 OA
ENDBRANCH   3   2
ENDBRANCH   9   6
ENDBRANCH  12   9
TORSDOF 4
ENDMDL
