MODEL 1
REMARK VINA RESULT:      -8.6      0.000      0.000
REMARK  Name = 
REMARK  8 active torsions:
REMARK  status: ('A' for Active; 'I' for Inactive)
REMARK    1  A    between atoms: C_2  and  N_3
REMARK    2  A    between atoms: N_6  and  C_7
REMARK    3  A    between atoms: C_10  and  C_13
REMARK    4  A    between atoms: C_13  and  C_15
REMARK    5  A    between atoms: N_21  and  C_22
REMARK    6  A    between atoms: C_22  and  C_23
REMARK    7  A    between atoms: C_23  and  O_24
REMARK    8  A    between atoms: O_24  and  C_25
REMARK                            x       y       z     vdW  Elec       q    Type
REMARK                         _______ _______ _______ _____ _____    ______ ____
ROOT
ATOM     13  C   UNL     1      -4.202   2.183  24.278  0.00  0.00    +0.195 C 
ATOM     14  O   UNL     1      -3.931   2.437  23.540  0.00  0.00    -0.216 OA
ENDROOT
BRANCH  13  15
ATOM     15  C   UNL     1      -4.597   2.708  24.775  0.00  0.00    +0.139 C 
ATOM     16  C   UNL     1      -5.344   2.516  25.068  0.00  0.00    +0.165 C 
ATOM     17  O   UNL     1      -5.740   3.041  25.566  0.00  0.00    -0.343 OA
ATOM     18  C   UNL     1      -5.389   3.759  25.770  0.00  0.00    +0.227 C 
ATOM     19  C   UNL     1      -4.642   3.952  25.478  0.00  0.00    +0.256 C 
ATOM     20  O   UNL     1      -4.292   4.669  25.682  0.00  0.00    -0.272 OA
ATOM     21  N   UNL     1      -4.247   3.426  24.980  0.00  0.00    -0.271 N 
BRANCH  21  22
ATOM     22  C   UNL     1      -3.499   3.618  24.687  0.00  0.00    +0.126 C 
BRANCH  22  23
ATOM     23  C   UNL     1      -2.971   4.047  25.154  0.00  0.00    +0.164 C 
BRANCH  23  24
ATOM     24  O   UNL     1      -2.263   4.321  24.832  0.00  0.00    -0.352 OA
BRANCH  24  25
ATOM     25  C   UNL     1      -1.596   4.403  25.311  0.00  0.00    +0.142 C 
ATOM     26  C   UNL     1      -0.898   4.710  24.997  0.00  0.00    +0.035 C 
ENDBRANCH  24  25
ENDBRANCH  23  24
ENDBRANCH  22  23
ENDBRANCH  21  22
ENDBRANCH  13  15
BRANCH  13  10
ATOM      7  C   UNL     1      -3.822  -0.156  24.994  0.00  0.00    +0.075 A 
ATOM      8  C   UNL     1      -3.182   0.358  24.909  0.00  0.00    +0.016 A 
ATOM      9  C   UNL     1      -3.309   1.138  24.670  0.00  0.00    -0.000 A 
ATOM     10  C   UNL     1      -4.075   1.403  24.517  0.00  0.00    +0.010 A 
ATOM     11  C   UNL     1      -4.714   0.888  24.603  0.00  0.00    -0.000 A 
ATOM     12  C   UNL     1      -4.588   0.109  24.841  0.00  0.00    +0.016 A 
BRANCH   7   6
ATOM      3  N   UNL     1      -3.577  -2.323  24.914  0.00  0.00    -0.187 NA
ATOM      4  C   UNL     1      -3.705  -1.544  24.675  0.00  0.00    +0.343 C 
ATOM      5  O   UNL     1      -3.843  -1.373  23.880  0.00  0.00    -0.249 OA
ATOM      6  N   UNL     1      -3.694  -0.935  25.233  0.00  0.00    -0.161 NA
BRANCH   3   2
ATOM      1  C   UNL     1      -3.252  -3.663  24.539  0.00  0.00    +0.025 C 
ATOM      2  C   UNL     1      -3.588  -2.932  24.356  0.00  0.00    +0.117 C 
ENDBRANCH   3   2
ENDBRANCH   7   6
ENDBRANCH  13  10
TORSDOF 8
ENDMDL
MODEL 2
REMARK VINA RESULT:      -8.0      2.421      5.418
REMARK  Name = 
REMARK  8 active torsions:
REMARK  status: ('A' for Active; 'I' for Inactive)
REMARK    1  A    between atoms: C_2  and  N_3
REMARK    2  A    between atoms: N_6  and  C_7
REMARK    3  A    between atoms: C_10  and  C_13
REMARK    4  A    between atoms: C_13  and  C_15
REMARK    5  A    between atoms: N_21  and  C_22
REMARK    6  A    between atoms: C_22  and  C_23
REMARK    7  A    between atoms: C_23  and  O_24
REMARK    8  A    between atoms: O_24  and  C_25
REMARK                            x       y       z     vdW  Elec       q    Type
REMARK                         _______ _______ _______ _____ _____    ______ ____
ROOT
ATOM     13  C   UNL     1      -1.104   0.902  25.250  0.00  0.00    +0.195 C 
ATOM     14  O   UNL     1      -1.044   0.535  25.988  0.00  0.00    -0.216 OA
ENDROOT
BRANCH  13  15
ATOM     15  C   UNL     1      -0.584   0.696  24.644  0.00  0.00    +0.139 C 
ATOM     16  C   UNL     1      -0.188   1.285  24.223  0.00  0.00    +0.165 C 
ATOM     17  O   UNL     1       0.332   1.080  23.617  0.00  0.00    -0.343 OA
ATOM     18  C   UNL     1       0.457   0.285  23.431  0.00  0.00    +0.227 C 
ATOM     19  C   UNL     1       0.061  -0.303  23.852  0.00  0.00    +0.256 C 
ATOM     20  O   UNL     1       0.185  -1.097  23.667  0.00  0.00    -0.272 OA
ATOM     21  N   UNL     1      -0.460  -0.097  24.459  0.00  0.00    -0.271 N 
BRANCH  21  22
ATOM     22  C   UNL     1      -0.856  -0.687  24.880  0.00  0.00    +0.126 C 
BRANCH  22  23
ATOM     23  C   UNL     1      -1.150  -1.349  24.485  0.00  0.00    +0.164 C 
BRANCH  23  24
ATOM     24  O   UNL     1      -1.618  -1.896  24.887  0.00  0.00    -0.352 OA
BRANCH  24  25
ATOM     25  C   UNL     1      -2.119  -2.399  24.467  0.00  0.00    +0.142 C 
ATOM     26  C   UNL     1      -2.883  -2.543  24.739  0.00  0.00    +0.035 C 
ENDBRANCH  24  25
ENDBRANCH  23  24
ENDBRANCH  22  23
ENDBRANCH  21  22
ENDBRANCH  13  15
BRANCH  13  10
ATOM      7  C   UNL     1      -2.846   2.616  24.860  0.00  0.00    +0.075 A 
ATOM      8  C   UNL     1      -2.156   2.815  25.265  0.00  0.00    +0.016 A 
ATOM      9  C   UNL     1      -1.575   2.243  25.395  0.00  0.00    -0.000 A 
ATOM     10  C   UNL     1      -1.685   1.473  25.120  0.00  0.00    +0.010 A 
ATOM     11  C   UNL     1      -2.377   1.275  24.715  0.00  0.00    -0.000 A 
ATOM     12  C   UNL     1      -2.957   1.846  24.585  0.00  0.00    +0.016 A 
BRANCH   7   6
ATOM      3  N   UNL     1      -4.688   3.769  25.068  0.00  0.00    -0.187 NA
ATOM      4  C   UNL     1      -4.108   3.197  25.197  0.00  0.00    +0.343 C 
ATOM      5  O   UNL     1      -4.208   2.634  25.792  0.00  0.00    -0.249 OA
ATOM      6  N   UNL     1      -3.426   3.188  24.731  0.00  0.00    -0.161 NA
BRANCH   3   2
ATOM      1  C   UNL     1      -5.894   4.412  25.485  0.00  0.00    +0.025 C 
ATOM      2  C   UNL     1      -5.369   3.778  25.534  0.00  0.00    +0.117 C 
ENDBRANCH   3   2
ENDBRANCH   7   6
ENDBRANCH  13  10
TORSDOF 8
ENDMDL
MODEL 3
REMARK VINA RESULT:      -8.0      3.026      5.241
REMARK  Name = 
REMARK  8 active torsions:
REMARK  status: ('A' for Active; 'I' for Inactive)
REMARK    1  A    between atoms: C_2  and  N_3
REMARK    2  A    between atoms: N_6  and  C_7
REMARK    3  A    between atoms: C_10  and  C_13
REMARK    4  A    between atoms: C_13  and  C_15
REMARK    5  A    between atoms: N_21  and  C_22
REMARK    6  A    between atoms: C_22  and  C_23
REMARK    7  A    between atoms: C_23  and  O_24
REMARK    8  A    between atoms: O_24  and  C_25
REMARK                            x       y       z     vdW  Elec       q    Type
REMARK                         _______ _______ _______ _____ _____    ______ ____
ROOT
ATOM     13  C   UNL     1      -0.530   1.438  24.813  0.00  0.00    +0.195 C 
ATOM     14  O   UNL     1       0.232   1.722  24.669  0.00  0.00    -0.216 OA
ENDROOT
BRANCH  13  15
ATOM     15  C   UNL     1      -0.653   0.634  24.943  0.00  0.00    +0.139 C 
ATOM     16  C   UNL     1      -1.061   0.382  25.615  0.00  0.00    +0.165 C 
ATOM     17  O   UNL     1      -1.183  -0.423  25.746  0.00  0.00    -0.343 OA
ATOM     18  C   UNL     1      -0.897  -0.977  25.204  0.00  0.00    +0.227 C 
ATOM     19  C   UNL     1      -0.489  -0.725  24.533  0.00  0.00    +0.256 C 
ATOM     20  O   UNL     1      -0.204  -1.279  23.992  0.00  0.00    -0.272 OA
ATOM     21  N   UNL     1      -0.367   0.080  24.403  0.00  0.00    -0.271 N 
BRANCH  21  22
ATOM     22  C   UNL     1       0.041   0.333  23.731  0.00  0.00    +0.126 C 
BRANCH  22  23
ATOM     23  C   UNL     1       0.678  -0.109  23.446  0.00  0.00    +0.164 C 
BRANCH  23  24
ATOM     24  O   UNL     1       1.154   0.194  22.845  0.00  0.00    -0.352 OA
BRANCH  24  25
ATOM     25  C   UNL     1       1.837  -0.209  22.616  0.00  0.00    +0.142 C 
ATOM     26  C   UNL     1       2.497   0.211  22.358  0.00  0.00    +0.035 C 
ENDBRANCH  24  25
ENDBRANCH  23  24
ENDBRANCH  22  23
ENDBRANCH  21  22
ENDBRANCH  13  15
BRANCH  13  10
ATOM      7  C   UNL     1      -2.445   3.006  24.855  0.00  0.00    +0.075 A 
ATOM      8  C   UNL     1      -1.937   2.960  25.502  0.00  0.00    +0.016 A 
ATOM      9  C   UNL     1      -1.298   2.437  25.488  0.00  0.00    -0.000 A 
ATOM     10  C   UNL     1      -1.169   1.961  24.827  0.00  0.00    +0.010 A 
ATOM     11  C   UNL     1      -1.679   2.008  24.179  0.00  0.00    -0.000 A 
ATOM     12  C   UNL     1      -2.316   2.530  24.193  0.00  0.00    +0.016 A 
BRANCH   7   6
ATOM      3  N   UNL     1      -4.454   3.800  25.170  0.00  0.00    -0.187 NA
ATOM      4  C   UNL     1      -3.816   3.277  25.155  0.00  0.00    +0.343 C 
ATOM      5  O   UNL     1      -3.909   2.504  25.426  0.00  0.00    -0.249 OA
ATOM      6  N   UNL     1      -3.083   3.529  24.869  0.00  0.00    -0.161 NA
BRANCH   3   2
ATOM      1  C   UNL     1      -5.807   4.087  25.530  0.00  0.00    +0.025 C 
ATOM      2  C   UNL     1      -5.186   3.548  25.456  0.00  0.00    +0.117 C 
ENDBRANCH   3   2
ENDBRANCH   7   6
ENDBRANCH  13  10
TORSDOF 8
ENDMDL
MODEL 4
REMARK VINA RESULT:      -7.8      1.138      2.481
REMARK  Name = 
REMARK  8 active torsions:
REMARK  status: ('A' for Active; 'I' for Inactive)
REMARK    1  A    between atoms: C_2  and  N_3
REMARK    2  A    between atoms: N_6  and  C_7
REMARK    3  A    between atoms: C_10  and  C_13
REMARK    4  A    between atoms: C_13  and  C_15
REMARK    5  A    between atoms: N_21  and  C_22
REMARK    6  A    between atoms: C_22  and  C_23
REMARK    7  A    between atoms: C_23  and  O_24
REMARK    8  A    between atoms: O_24  and  C_25
REMARK                            x       y       z     vdW  Elec       q    Type
REMARK                         _______ _______ _______ _____ _____    ______ ____
ROOT
ATOM     13  C   UNL     1      -2.334   2.352  24.032  0.00  0.00    +0.195 C 
ATOM     14  O   UNL     1      -2.762   2.609  23.374  0.00  0.00    -0.216 OA
ENDROOT
BRANCH  13  15
ATOM     15  C   UNL     1      -1.930   2.898  24.499  0.00  0.00    +0.139 C 
ATOM     16  C   UNL     1      -1.129   2.788  24.662  0.00  0.00    +0.165 C 
ATOM     17  O   UNL     1      -0.723   3.334  25.129  0.00  0.00    -0.343 OA
ATOM     18  C   UNL     1      -1.120   3.990  25.434  0.00  0.00    +0.227 C 
ATOM     19  C   UNL     1      -1.921   4.100  25.272  0.00  0.00    +0.256 C 
ATOM     20  O   UNL     1      -2.317   4.756  25.576  0.00  0.00    -0.272 OA
ATOM     21  N   UNL     1      -2.326   3.554  24.804  0.00  0.00    -0.271 N 
BRANCH  21  22
ATOM     22  C   UNL     1      -3.128   3.664  24.641  0.00  0.00    +0.126 C 
BRANCH  22  23
ATOM     23  C   UNL     1      -3.648   3.867  25.249  0.00  0.00    +0.164 C 
BRANCH  23  24
ATOM     24  O   UNL     1      -4.456   3.930  25.098  0.00  0.00    -0.352 OA
BRANCH  24  25
ATOM     25  C   UNL     1      -5.000   3.823  25.709  0.00  0.00    +0.142 C 
ATOM     26  C   UNL     1      -5.656   3.336  25.597  0.00  0.00    +0.035 C 
ENDBRANCH  24  25
ENDBRANCH  23  24
ENDBRANCH  22  23
ENDBRANCH  21  22
ENDBRANCH  13  15
BRANCH  13  10
ATOM      7  C   UNL     1      -2.269  -0.056  24.601  0.00  0.00    +0.075 A 
ATOM      8  C   UNL     1      -2.794   0.446  24.992  0.00  0.00    +0.016 A 
ATOM      9  C   UNL     1      -2.816   1.249  24.802  0.00  0.00    -0.000 A 
ATOM     10  C   UNL     1      -2.312   1.549  24.222  0.00  0.00    +0.010 A 
ATOM     11  C   UNL     1      -1.787   1.047  23.832  0.00  0.00    -0.000 A 
ATOM     12  C   UNL     1      -1.765   0.245  24.021  0.00  0.00    +0.016 A 
BRANCH   7   6
ATOM      3  N   UNL     1      -2.830  -2.161  24.724  0.00  0.00    -0.187 NA
ATOM      4  C   UNL     1      -2.851  -1.359  24.534  0.00  0.00    +0.343 C 
ATOM      5  O   UNL     1      -3.475  -1.057  24.086  0.00  0.00    -0.249 OA
ATOM      6  N   UNL     1      -2.248  -0.858  24.792  0.00  0.00    -0.161 NA
BRANCH   3   2
ATOM      1  C   UNL     1      -3.393  -3.471  24.622  0.00  0.00    +0.025 C 
ATOM      2  C   UNL     1      -3.434  -2.662  24.466  0.00  0.00    +0.117 C 
ENDBRANCH   3   2
ENDBRANCH   7   6
ENDBRANCH  13  10
TORSDOF 8
ENDMDL
MODEL 5
REMARK VINA RESULT:      -7.7      1.857      5.091
REMARK  Name = 
REMARK  8 active torsions:
REMARK  status: ('A' for Active; 'I' for Inactive)
REMARK    1  A    between atoms: C_2  and  N_3
REMARK    2  A    between atoms: N_6  and  C_7
REMARK    3  A    between atoms: C_10  and  C_13
REMARK    4  A    between atoms: C_13  and  C_15
REMARK    5  A    between atoms: N_21  and  C_22
REMARK    6  A    between atoms: C_22  and  C_23
REMARK    7  A    between atoms: C_23  and  O_24
REMARK    8  A    between atoms: O_24  and  C_25
REMARK                            x       y       z     vdW  Elec       q    Type
REMARK                         _______ _______ _______ _____ _____    ______ ____
ROOT
ATOM     13  C   UNL     1      -2.846  -0.788  25.474  0.00  0.00    +0.195 C 
ATOM     14  O   UNL     1      -2.309  -0.714  26.097  0.00  0.00    -0.216 OA
ENDROOT
BRANCH  13  15
ATOM     15  C   UNL     1      -2.873  -1.484  25.034  0.00  0.00    +0.139 C 
ATOM     16  C   UNL     1      -3.594  -1.863  24.904  0.00  0.00    +0.165 C 
ATOM     17  O   UNL     1      -3.621  -2.560  24.463  0.00  0.00    -0.343 OA
ATOM     18  C   UNL     1      -2.926  -2.878  24.152  0.00  0.00    +0.227 C 
ATOM     19  C   UNL     1      -2.205  -2.499  24.282  0.00  0.00    +0.256 C 
ATOM     20  O   UNL     1      -1.511  -2.817  23.971  0.00  0.00    -0.272 OA
ATOM     21  N   UNL     1      -2.179  -1.802  24.723  0.00  0.00    -0.271 N 
BRANCH  21  22
ATOM     22  C   UNL     1      -1.457  -1.423  24.853  0.00  0.00    +0.126 C 
BRANCH  22  23
ATOM     23  C   UNL     1      -0.907  -1.362  24.240  0.00  0.00    +0.164 C 
BRANCH  23  24
ATOM     24  O   UNL     1      -0.245  -0.879  24.326  0.00  0.00    -0.352 OA
BRANCH  24  25
ATOM     25  C   UNL     1       0.177  -0.634  23.661  0.00  0.00    +0.142 C 
ATOM     26  C   UNL     1       0.444   0.144  23.605  0.00  0.00    +0.035 C 
ENDBRANCH  24  25
ENDBRANCH  23  24
ENDBRANCH  22  23
ENDBRANCH  21  22
ENDBRANCH  13  15
BRANCH  13  10
ATOM      7  C   UNL     1      -4.376   1.081  24.932  0.00  0.00    +0.075 A 
ATOM      8  C   UNL     1      -4.634   0.464  25.416  0.00  0.00    +0.016 A 
ATOM      9  C   UNL     1      -4.123  -0.159  25.597  0.00  0.00    -0.000 A 
ATOM     10  C   UNL     1      -3.356  -0.165  25.293  0.00  0.00    +0.010 A 
ATOM     11  C   UNL     1      -3.100   0.452  24.809  0.00  0.00    -0.000 A 
ATOM     12  C   UNL     1      -3.609   1.075  24.629  0.00  0.00    +0.016 A 
BRANCH   7   6
ATOM      3  N   UNL     1      -5.353   3.032  24.998  0.00  0.00    -0.187 NA
ATOM      4  C   UNL     1      -4.842   2.409  25.178  0.00  0.00    +0.343 C 
ATOM      5  O   UNL     1      -4.287   2.492  25.783  0.00  0.00    -0.249 OA
ATOM      6  N   UNL     1      -4.887   1.703  24.752  0.00  0.00    -0.161 NA
BRANCH   3   2
ATOM      1  C   UNL     1      -5.942   4.265  25.413  0.00  0.00    +0.025 C 
ATOM      2  C   UNL     1      -5.308   3.738  25.423  0.00  0.00    +0.117 C 
ENDBRANCH   3   2
ENDBRANCH   7   6
ENDBRANCH  13  10
TORSDOF 8
ENDMDL
MODEL 6
REMARK VINA RESULT:      -7.6      1.563      5.249
REMARK  Name = 
REMARK  8 active torsions:
REMARK  status: ('A' for Active; 'I' for Inactive)
REMARK    1  A    between atoms: C_2  and  N_3
REMARK    2  A    between atoms: N_6  and  C_7
REMARK    3  A    between atoms: C_10  and  C_13
REMARK    4  A    between atoms: C_13  and  C_15
REMARK    5  A    between atoms: N_21  and  C_22
REMARK    6  A    between atoms: C_22  and  C_23
REMARK    7  A    between atoms: C_23  and  O_24
REMARK    8  A    between atoms: O_24  and  C_25
REMARK                            x       y       z     vdW  Elec       q    Type
REMARK                         _______ _______ _______ _____ _____    ______ ____
ROOT
ATOM     13  C   UNL     1      -3.518  -0.411  25.324  0.00  0.00    +0.195 C 
ATOM     14  O   UNL     1      -3.389  -0.661  26.100  0.00  0.00    -0.216 OA
ENDROOT
BRANCH  13  15
ATOM     15  C   UNL     1      -3.808  -0.941  24.763  0.00  0.00    +0.139 C 
ATOM     16  C   UNL     1      -4.463  -0.739  24.304  0.00  0.00    +0.165 C 
ATOM     17  O   UNL     1      -4.753  -1.269  23.742  0.00  0.00    -0.343 OA
ATOM     18  C   UNL     1      -4.388  -2.002  23.640  0.00  0.00    +0.227 C 
ATOM     19  C   UNL     1      -3.733  -2.204  24.099  0.00  0.00    +0.256 C 
ATOM     20  O   UNL     1      -3.368  -2.937  23.997  0.00  0.00    -0.272 OA
ATOM     21  N   UNL     1      -3.443  -1.673  24.660  0.00  0.00    -0.271 N 
BRANCH  21  22
ATOM     22  C   UNL     1      -2.787  -1.876  25.120  0.00  0.00    +0.126 C 
BRANCH  22  23
ATOM     23  C   UNL     1      -2.130  -2.228  24.767  0.00  0.00    +0.164 C 
BRANCH  23  24
ATOM     24  O   UNL     1      -1.456  -2.386  25.214  0.00  0.00    -0.352 OA
BRANCH  24  25
ATOM     25  C   UNL     1      -0.710  -2.360  24.862  0.00  0.00    +0.142 C 
ATOM     26  C   UNL     1      -0.068  -2.052  25.276  0.00  0.00    +0.035 C 
ENDBRANCH  24  25
ENDBRANCH  23  24
ENDBRANCH  22  23
ENDBRANCH  21  22
ENDBRANCH  13  15
BRANCH  13  10
ATOM      7  C   UNL     1      -3.036   1.931  24.683  0.00  0.00    +0.075 A 
ATOM      8  C   UNL     1      -3.783   1.727  24.967  0.00  0.00    +0.016 A 
ATOM      9  C   UNL     1      -3.944   0.946  25.181  0.00  0.00    -0.000 A 
ATOM     10  C   UNL     1      -3.357   0.370  25.110  0.00  0.00    +0.010 A 
ATOM     11  C   UNL     1      -2.610   0.575  24.825  0.00  0.00    -0.000 A 
ATOM     12  C   UNL     1      -2.450   1.355  24.612  0.00  0.00    +0.016 A 
BRANCH   7   6
ATOM      3  N   UNL     1      -2.315   3.989  24.780  0.00  0.00    -0.187 NA
ATOM      4  C   UNL     1      -2.475   3.208  24.993  0.00  0.00    +0.343 C 
ATOM      5  O   UNL     1      -2.234   2.923  25.729  0.00  0.00    -0.249 OA
ATOM      6  N   UNL     1      -2.877   2.712  24.470  0.00  0.00    -0.161 NA
BRANCH   3   2
ATOM      1  C   UNL     1      -1.530   5.158  25.021  0.00  0.00    +0.025 C 
ATOM      2  C   UNL     1      -1.914   4.485  25.304  0.00  0.00    +0.117 C 
ENDBRANCH   3   2
ENDBRANCH   7   6
ENDBRANCH  13  10
TORSDOF 8
ENDMDL
MODEL 7
REMARK VINA RESULT:      -7.5      3.035      4.060
REMARK  Name = 
REMARK  8 active torsions:
REMARK  status: ('A' for Active; 'I' for Inactive)
REMARK    1  A    between atoms: C_2  and  N_3
REMARK    2  A    between atoms: N_6  and  C_7
REMARK    3  A    between atoms: C_10  and  C_13
REMARK    4  A    between atoms: C_13  and  C_15
REMARK    5  A    between atoms: N_21  and  C_22
REMARK    6  A    between atoms: C_22  and  C_23
REMARK    7  A    between atoms: C_23  and  O_24
REMARK    8  A    between atoms: O_24  and  C_25
REMARK                            x       y       z     vdW  Elec       q    Type
REMARK                         _______ _______ _______ _____ _____    ______ ____
ROOT
ATOM     13  C   UNL     1      -2.114   1.513  25.087  0.00  0.00    +0.195 C 
ATOM     14  O   UNL     1      -2.747   1.071  25.381  0.00  0.00    -0.216 OA
ENDROOT
BRANCH  13  15
ATOM     15  C   UNL     1      -2.083   2.326  25.218  0.00  0.00    +0.139 C 
ATOM     16  C   UNL     1      -1.398   2.668  25.527  0.00  0.00    +0.165 C 
ATOM     17  O   UNL     1      -1.366   3.482  25.658  0.00  0.00    -0.343 OA
ATOM     18  C   UNL     1      -2.020   3.954  25.480  0.00  0.00    +0.227 C 
ATOM     19  C   UNL     1      -2.704   3.612  25.171  0.00  0.00    +0.256 C 
ATOM     20  O   UNL     1      -3.356   4.084  24.993  0.00  0.00    -0.272 OA
ATOM     21  N   UNL     1      -2.735   2.798  25.040  0.00  0.00    -0.271 N 
BRANCH  21  22
ATOM     22  C   UNL     1      -3.420   2.456  24.731  0.00  0.00    +0.126 C 
BRANCH  22  23
ATOM     23  C   UNL     1      -4.160   2.697  25.004  0.00  0.00    +0.164 C 
BRANCH  23  24
ATOM     24  O   UNL     1      -4.844   2.340  24.713  0.00  0.00    -0.352 OA
BRANCH  24  25
ATOM     25  C   UNL     1      -5.547   2.382  25.143  0.00  0.00    +0.142 C 
ATOM     26  C   UNL     1      -6.176   1.883  24.955  0.00  0.00    +0.035 C 
ENDBRANCH  24  25
ENDBRANCH  23  24
ENDBRANCH  22  23
ENDBRANCH  21  22
ENDBRANCH  13  15
BRANCH  13  10
ATOM      7  C   UNL     1      -0.311   0.391  23.815  0.00  0.00    +0.075 A 
ATOM      8  C   UNL     1      -0.353   0.304  24.634  0.00  0.00    +0.016 A 
ATOM      9  C   UNL     1      -0.954   0.678  25.058  0.00  0.00    -0.000 A 
ATOM     10  C   UNL     1      -1.513   1.139  24.663  0.00  0.00    +0.010 A 
ATOM     11  C   UNL     1      -1.470   1.225  23.843  0.00  0.00    -0.000 A 
ATOM     12  C   UNL     1      -0.870   0.851  23.419  0.00  0.00    +0.016 A 
BRANCH   7   6
ATOM      3  N   UNL     1       1.613   0.025  22.853  0.00  0.00    -0.187 NA
ATOM      4  C   UNL     1       1.012   0.399  23.276  0.00  0.00    +0.343 C 
ATOM      5  O   UNL     1       1.133   1.155  23.585  0.00  0.00    -0.249 OA
ATOM      6  N   UNL     1       0.290   0.017  23.392  0.00  0.00    -0.161 NA
BRANCH   3   2
ATOM      1  C   UNL     1       2.941   0.028  22.325  0.00  0.00    +0.025 C 
ATOM      2  C   UNL     1       2.336   0.407  22.738  0.00  0.00    +0.117 C 
ENDBRANCH   3   2
ENDBRANCH   7   6
ENDBRANCH  13  10
TORSDOF 8
ENDMDL
MODEL 8
REMARK VINA RESULT:      -7.4      3.287      4.580
REMARK  Name = 
REMARK  8 active torsions:
REMARK  status: ('A' for Active; 'I' for Inactive)
REMARK    1  A    between atoms: C_2  and  N_3
REMARK    2  A    between atoms: N_6  and  C_7
REMARK    3  A    between atoms: C_10  and  C_13
REMARK    4  A    between atoms: C_13  and  C_15
REMARK    5  A    between atoms: N_21  and  C_22
REMARK    6  A    between atoms: C_22  and  C_23
REMARK    7  A    between atoms: C_23  and  O_24
REMARK    8  A    between atoms: O_24  and  C_25
REMARK                            x       y       z     vdW  Elec       q    Type
REMARK                         _______ _______ _______ _____ _____    ______ ____
ROOT
ATOM     13  C   UNL     1      -1.806   0.185  24.936  0.00  0.00    +0.195 C 
ATOM     14  O   UNL     1      -1.761   0.663  25.608  0.00  0.00    -0.216 OA
ENDROOT
BRANCH  13  15
ATOM     15  C   UNL     1      -2.515  -0.187  24.742  0.00  0.00    +0.139 C 
ATOM     16  C   UNL     1      -2.521  -0.990  24.554  0.00  0.00    +0.165 C 
ATOM     17  O   UNL     1      -3.231  -1.364  24.360  0.00  0.00    -0.343 OA
ATOM     18  C   UNL     1      -3.935  -0.934  24.355  0.00  0.00    +0.227 C 
ATOM     19  C   UNL     1      -3.930  -0.131  24.544  0.00  0.00    +0.256 C 
ATOM     20  O   UNL     1      -4.633   0.299  24.539  0.00  0.00    -0.272 OA
ATOM     21  N   UNL     1      -3.219   0.242  24.738  0.00  0.00    -0.271 N 
BRANCH  21  22
ATOM     22  C   UNL     1      -3.213   1.046  24.927  0.00  0.00    +0.126 C 
BRANCH  22  23
ATOM     23  C   UNL     1      -3.712   1.567  24.526  0.00  0.00    +0.164 C 
BRANCH  23  24
ATOM     24  O   UNL     1      -3.708   2.370  24.714  0.00  0.00    -0.352 OA
BRANCH  24  25
ATOM     25  C   UNL     1      -3.956   2.926  24.157  0.00  0.00    +0.142 C 
ATOM     26  C   UNL     1      -3.934   3.730  24.338  0.00  0.00    +0.035 C 
ENDBRANCH  24  25
ENDBRANCH  23  24
ENDBRANCH  22  23
ENDBRANCH  21  22
ENDBRANCH  13  15
BRANCH  13  10
ATOM      7  C   UNL     1       0.189  -0.127  23.504  0.00  0.00    +0.075 A 
ATOM      8  C   UNL     1       0.041  -0.650  24.124  0.00  0.00    +0.016 A 
ATOM      9  C   UNL     1      -0.625  -0.545  24.602  0.00  0.00    -0.000 A 
ATOM     10  C   UNL     1      -1.141   0.082  24.458  0.00  0.00    +0.010 A 
ATOM     11  C   UNL     1      -0.992   0.604  23.837  0.00  0.00    -0.000 A 
ATOM     12  C   UNL     1      -0.328   0.500  23.360  0.00  0.00    +0.016 A 
BRANCH   7   6
ATOM      3  N   UNL     1       2.175   0.156  22.645  0.00  0.00    -0.187 NA
ATOM      4  C   UNL     1       1.510   0.261  23.122  0.00  0.00    +0.343 C 
ATOM      5  O   UNL     1       1.500   0.857  23.692  0.00  0.00    -0.249 OA
ATOM      6  N   UNL     1       0.854  -0.232  23.027  0.00  0.00    -0.161 NA
BRANCH   3   2
ATOM      1  C   UNL     1       3.536   0.474  22.348  0.00  0.00    +0.025 C 
ATOM      2  C   UNL     1       2.831   0.648  22.739  0.00  0.00    +0.117 C 
ENDBRANCH   3   2
ENDBRANCH   7   6
ENDBRANCH  13  10
TORSDOF 8
ENDMDL
