MODEL 1
REMARK VINA RESULT:     -13.7      0.000      0.000
REMARK  Name = 
REMARK  5 active torsions:
REMARK  status: ('A' for Active; 'I' for Inactive)
REMARK    1  A    between atoms: C_6  and  N_7
REMARK    2  A    between atoms: N_10  and  C_11
REMARK    3  A    between atoms: C_16  and  C_17
REMARK    4  A    between atoms: C_17  and  C_18
REMARK    5  A    between atoms: C_18  and  C_19
REMARK                            x       y       z     vdW  Elec       q    Type
REMARK                         _______ _______ _______ _____ _____    ______ ____
ROOT
ATOM     11  C   UNL     1      -4.826   0.975  24.624  0.00  0.00    +0.115 C 
ATOM     12  C   UNL     1      -5.397   1.109  25.205  0.00  0.00    +0.049 C 
ATOM     13  C   UNL     1      -5.316   1.888  25.467  0.00  0.00    +0.138 C 
ATOM     14  N   UNL     1      -4.695   2.234  25.048  0.00  0.00    -0.265 NA
ATOM     15  C   UNL     1      -4.393   1.669  24.527  0.00  0.00    +0.094 C 
ATOM     16  C   UNL     1      -4.486   3.018  25.194  0.00  0.00    +0.080 C 
ATOM     30  C   UNL     1      -4.897   3.456  25.760  0.00  0.00    +0.131 C 
ATOM     31  N   UNL     1      -5.518   3.110  26.179  0.00  0.00    -0.203 NA
ATOM     32  C   UNL     1      -5.727   2.325  26.032  0.00  0.00    +0.256 C 
ATOM     33  O   UNL     1      -6.348   1.979  26.451  0.00  0.00    -0.272 OA
ENDROOT
BRANCH  11  10
ATOM      7  N   UNL     1      -3.991  -0.953  24.032  0.00  0.00    -0.159 NA
ATOM      8  C   UNL     1      -4.108  -0.247  24.443  0.00  0.00    +0.344 C 
ATOM      9  O   UNL     1      -3.623  -0.058  25.083  0.00  0.00    -0.249 OA
ATOM     10  N   UNL     1      -4.709   0.269  24.213  0.00  0.00    -0.187 NA
BRANCH   7   6
ATOM      1  F   UNL     1      -1.586  -3.019  24.947  0.00  0.00    -0.204 F 
ATOM      2  C   UNL     1      -2.188  -2.502  24.718  0.00  0.00    +0.142 A 
ATOM      3  C   UNL     1      -2.948  -2.790  24.580  0.00  0.00    +0.061 A 
ATOM      4  C   UNL     1      -3.550  -2.274  24.351  0.00  0.00    +0.158 A 
ATOM      5  F   UNL     1      -4.310  -2.561  24.214  0.00  0.00    -0.203 F 
ATOM      6  C   UNL     1      -3.390  -1.470  24.260  0.00  0.00    +0.102 A 
ATOM     34  C   UNL     1      -2.629  -1.181  24.398  0.00  0.00    +0.021 A 
ATOM     35  C   UNL     1      -2.028  -1.698  24.627  0.00  0.00    +0.031 A 
ENDBRANCH   7   6
ENDBRANCH  11  10
BRANCH  16  17
ATOM     17  C   UNL     1      -3.866   3.364  24.775  0.00  0.00    +0.027 C 
BRANCH  17  18
ATOM     18  C   UNL     1      -3.149   3.521  25.153  0.00  0.00    +0.087 C 
BRANCH  18  19
ATOM     19  C   UNL     1      -2.692   4.168  24.921  0.00  0.00    +0.229 C 
ATOM     20  O   UNL     1      -3.054   4.830  24.586  0.00  0.00    -0.275 OA
ATOM     21  N   UNL     1      -1.874   4.152  25.022  0.00  0.00    -0.259 N 
ATOM     22  C   UNL     1      -1.349   4.754  24.817  0.00  0.00    +0.103 C 
ATOM     23  C   UNL     1      -0.586   4.506  25.015  0.00  0.00    +0.049 C 
ATOM     24  C   UNL     1      -0.641   3.752  25.342  0.00  0.00    -0.007 A 
ATOM     25  C   UNL     1      -0.070   3.234  25.636  0.00  0.00    -0.003 A 
ATOM     26  C   UNL     1      -0.293   2.499  25.935  0.00  0.00    -0.000 A 
ATOM     27  C   UNL     1      -1.089   2.280  25.940  0.00  0.00    +0.001 A 
ATOM     28  C   UNL     1      -1.661   2.796  25.645  0.00  0.00    +0.015 A 
ATOM     29  C   UNL     1      -1.437   3.533  25.346  0.00  0.00    +0.050 A 
ENDBRANCH  18  19
ENDBRANCH  17  18
ENDBRANCH  16  17
TORSDOF 5
ENDMDL
MODEL 2
REMARK VINA RESULT:     -13.2      1.822      3.711
REMARK  Name = 
REMARK  5 active torsions:
REMARK  status: ('A' for Active; 'I' for Inactive)
REMARK    1  A    between atoms: C_6  and  N_7
REMARK    2  A    between atoms: N_10  and  C_11
REMARK    3  A    between atoms: C_16  and  C_17
REMARK    4  A    between atoms: C_17  and  C_18
REMARK    5  A    between atoms: C_18  and  C_19
REMARK                            x       y       z     vdW  Elec       q    Type
REMARK                         _______ _______ _______ _____ _____    ______ ____
ROOT
ATOM     11  C   UNL     1      -0.746  -0.092  25.008  0.00  0.00    +0.115 C 
ATOM     12  C   UNL     1      -0.144   0.000  24.451  0.00  0.00    +0.049 C 
ATOM     13  C   UNL     1       0.053   0.801  24.420  0.00  0.00    +0.138 C 
ATOM     14  N   UNL     1      -0.427   1.203  24.957  0.00  0.00    -0.265 NA
ATOM     15  C   UNL     1      -0.921   0.651  25.320  0.00  0.00    +0.094 C 
ATOM     16  C   UNL     1      -0.353   2.019  25.045  0.00  0.00    +0.080 C 
ATOM     30  C   UNL     1       0.202   2.435  24.597  0.00  0.00    +0.131 C 
ATOM     31  N   UNL     1       0.682   2.033  24.060  0.00  0.00    -0.203 NA
ATOM     32  C   UNL     1       0.608   1.216  23.971  0.00  0.00    +0.256 C 
ATOM     33  O   UNL     1       1.088   0.814  23.434  0.00  0.00    -0.272 OA
ENDROOT
BRANCH  11  10
ATOM      7  N   UNL     1      -2.174  -1.742  25.055  0.00  0.00    -0.159 NA
ATOM      8  C   UNL     1      -1.811  -1.031  24.847  0.00  0.00    +0.344 C 
ATOM      9  O   UNL     1      -2.151  -0.547  24.271  0.00  0.00    -0.249 OA
ATOM     10  N   UNL     1      -1.109  -0.803  25.216  0.00  0.00    -0.187 NA
BRANCH   7   6
ATOM      1  F   UNL     1      -4.984  -2.653  23.582  0.00  0.00    -0.204 F 
ATOM      2  C   UNL     1      -4.281  -2.426  23.950  0.00  0.00    +0.142 A 
ATOM      3  C   UNL     1      -3.645  -2.949  23.985  0.00  0.00    +0.061 A 
ATOM      4  C   UNL     1      -2.942  -2.722  24.353  0.00  0.00    +0.158 A 
ATOM      5  F   UNL     1      -2.306  -3.245  24.387  0.00  0.00    -0.203 F 
ATOM      6  C   UNL     1      -2.876  -1.970  24.686  0.00  0.00    +0.102 A 
ATOM     34  C   UNL     1      -3.513  -1.446  24.652  0.00  0.00    +0.021 A 
ATOM     35  C   UNL     1      -4.216  -1.673  24.284  0.00  0.00    +0.031 A 
ENDBRANCH   7   6
ENDBRANCH  11  10
BRANCH  16  17
ATOM     17  C   UNL     1      -0.833   2.421  25.582  0.00  0.00    +0.027 C 
BRANCH  17  18
ATOM     18  C   UNL     1      -1.467   2.874  25.310  0.00  0.00    +0.087 C 
BRANCH  18  19
ATOM     19  C   UNL     1      -1.857   3.388  25.824  0.00  0.00    +0.229 C 
ATOM     20  O   UNL     1      -1.472   3.672  26.496  0.00  0.00    -0.275 OA
ATOM     21  N   UNL     1      -2.634   3.618  25.666  0.00  0.00    -0.259 N 
ATOM     22  C   UNL     1      -3.092   4.126  26.127  0.00  0.00    +0.103 C 
ATOM     23  C   UNL     1      -3.830   4.203  25.766  0.00  0.00    +0.049 C 
ATOM     24  C   UNL     1      -3.827   3.742  25.082  0.00  0.00    -0.007 A 
ATOM     25  C   UNL     1      -4.402   3.605  24.506  0.00  0.00    -0.003 A 
ATOM     26  C   UNL     1      -4.238   3.107  23.869  0.00  0.00    -0.000 A 
ATOM     27  C   UNL     1      -3.499   2.746  23.808  0.00  0.00    +0.001 A 
ATOM     28  C   UNL     1      -2.924   2.883  24.383  0.00  0.00    +0.015 A 
ATOM     29  C   UNL     1      -3.088   3.381  25.020  0.00  0.00    +0.050 A 
ENDBRANCH  18  19
ENDBRANCH  17  18
ENDBRANCH  16  17
TORSDOF 5
ENDMDL
MODEL 3
REMARK VINA RESULT:     -12.7      2.611      6.058
REMARK  Name = 
REMARK  5 active torsions:
REMARK  status: ('A' for Active; 'I' for Inactive)
REMARK    1  A    between atoms: C_6  and  N_7
REMARK    2  A    between atoms: N_10  and  C_11
REMARK    3  A    between atoms: C_16  and  C_17
REMARK    4  A    between atoms: C_17  and  C_18
REMARK    5  A    between atoms: C_18  and  C_19
REMARK                            x       y       z     vdW  Elec       q    Type
REMARK                         _______ _______ _______ _____ _____    ______ ____
ROOT
ATOM     11  C   UNL     1      -0.578   1.740  24.978  0.00  0.00    +0.115 C 
ATOM     12  C   UNL     1      -0.007   1.751  24.383  0.00  0.00    +0.049 C 
ATOM     13  C   UNL     1       0.134   0.971  24.150  0.00  0.00    +0.138 C 
ATOM     14  N   UNL     1      -0.350   0.479  24.602  0.00  0.00    -0.265 NA
ATOM     15  C   UNL     1      -0.790   0.954  25.113  0.00  0.00    +0.094 C 
ATOM     16  C   UNL     1      -0.328  -0.337  24.488  0.00  0.00    +0.080 C 
ATOM     30  C   UNL     1       0.179  -0.662  23.924  0.00  0.00    +0.131 C 
ATOM     31  N   UNL     1       0.663  -0.170  23.473  0.00  0.00    -0.203 NA
ATOM     32  C   UNL     1       0.641   0.647  23.586  0.00  0.00    +0.256 C 
ATOM     33  O   UNL     1       1.125   1.140  23.135  0.00  0.00    -0.272 OA
ENDROOT
BRANCH  11  10
ATOM      7  N   UNL     1      -1.972   3.285  25.635  0.00  0.00    -0.159 NA
ATOM      8  C   UNL     1      -1.667   2.626  25.244  0.00  0.00    +0.344 C 
ATOM      9  O   UNL     1      -2.144   2.195  24.727  0.00  0.00    -0.249 OA
ATOM     10  N   UNL     1      -0.884   2.399  25.370  0.00  0.00    -0.187 NA
BRANCH   7   6
ATOM      1  F   UNL     1      -5.103   4.199  25.133  0.00  0.00    -0.204 F 
ATOM      2  C   UNL     1      -4.320   3.971  25.259  0.00  0.00    +0.142 A 
ATOM      3  C   UNL     1      -3.980   4.058  26.004  0.00  0.00    +0.061 A 
ATOM      4  C   UNL     1      -3.197   3.830  26.130  0.00  0.00    +0.158 A 
ATOM      5  F   UNL     1      -2.857   3.917  26.876  0.00  0.00    -0.203 F 
ATOM      6  C   UNL     1      -2.755   3.514  25.510  0.00  0.00    +0.102 A 
ATOM     34  C   UNL     1      -3.095   3.426  24.763  0.00  0.00    +0.021 A 
ATOM     35  C   UNL     1      -3.878   3.655  24.637  0.00  0.00    +0.031 A 
ENDBRANCH   7   6
ENDBRANCH  11  10
BRANCH  16  17
ATOM     17  C   UNL     1      -0.812  -0.829  24.940  0.00  0.00    +0.027 C 
BRANCH  17  18
ATOM     18  C   UNL     1      -1.467  -1.192  24.595  0.00  0.00    +0.087 C 
BRANCH  18  19
ATOM     19  C   UNL     1      -1.686  -1.954  24.824  0.00  0.00    +0.229 C 
ATOM     20  O   UNL     1      -1.130  -2.457  25.168  0.00  0.00    -0.275 OA
ATOM     21  N   UNL     1      -2.461  -2.214  24.709  0.00  0.00    -0.259 N 
ATOM     22  C   UNL     1      -2.757  -2.957  24.909  0.00  0.00    +0.103 C 
ATOM     23  C   UNL     1      -3.555  -2.978  24.697  0.00  0.00    +0.049 C 
ATOM     24  C   UNL     1      -3.750  -2.249  24.366  0.00  0.00    -0.007 A 
ATOM     25  C   UNL     1      -4.456  -1.952  24.059  0.00  0.00    -0.003 A 
ATOM     26  C   UNL     1      -4.486  -1.185  23.759  0.00  0.00    -0.000 A 
ATOM     27  C   UNL     1      -3.810  -0.713  23.767  0.00  0.00    +0.001 A 
ATOM     28  C   UNL     1      -3.104  -1.008  24.073  0.00  0.00    +0.015 A 
ATOM     29  C   UNL     1      -3.074  -1.776  24.374  0.00  0.00    +0.050 A 
ENDBRANCH  18  19
ENDBRANCH  17  18
ENDBRANCH  16  17
TORSDOF 5
ENDMDL
MODEL 4
REMARK VINA RESULT:     -12.3      2.214      5.251
REMARK  Name = 
REMARK  5 active torsions:
REMARK  status: ('A' for Active; 'I' for Inactive)
REMARK    1  A    between atoms: C_6  and  N_7
REMARK    2  A    between atoms: N_10  and  C_11
REMARK    3  A    between atoms: C_16  and  C_17
REMARK    4  A    between atoms: C_17  and  C_18
REMARK    5  A    between atoms: C_18  and  C_19
REMARK                            x       y       z     vdW  Elec       q    Type
REMARK                         _______ _______ _______ _____ _____    ______ ____
ROOT
ATOM     11  C   UNL     1      -2.044   2.788  24.573  0.00  0.00    +0.115 C 
ATOM     12  C   UNL     1      -1.447   3.140  25.022  0.00  0.00    +0.049 C 
ATOM     13  C   UNL     1      -0.818   2.608  25.070  0.00  0.00    +0.138 C 
ATOM     14  N   UNL     1      -1.025   1.928  24.652  0.00  0.00    -0.265 NA
ATOM     15  C   UNL     1      -1.783   2.039  24.345  0.00  0.00    +0.094 C 
ATOM     16  C   UNL     1      -0.498   1.296  24.605  0.00  0.00    +0.080 C 
ATOM     30  C   UNL     1       0.238   1.343  24.976  0.00  0.00    +0.131 C 
ATOM     31  N   UNL     1       0.445   2.023  25.394  0.00  0.00    -0.203 NA
ATOM     32  C   UNL     1      -0.082   2.656  25.442  0.00  0.00    +0.256 C 
ATOM     33  O   UNL     1       0.125   3.336  25.860  0.00  0.00    -0.272 OA
ENDROOT
BRANCH  11  10
ATOM      7  N   UNL     1      -4.194   3.158  24.529  0.00  0.00    -0.159 NA
ATOM      8  C   UNL     1      -3.465   2.820  24.716  0.00  0.00    +0.344 C 
ATOM      9  O   UNL     1      -3.428   2.178  25.233  0.00  0.00    -0.249 OA
ATOM     10  N   UNL     1      -2.773   3.125  24.386  0.00  0.00    -0.187 NA
BRANCH   7   6
ATOM      1  F   UNL     1      -6.964   1.940  25.846  0.00  0.00    -0.204 F 
ATOM      2  C   UNL     1      -6.272   2.245  25.517  0.00  0.00    +0.142 A 
ATOM      3  C   UNL     1      -6.029   3.011  25.702  0.00  0.00    +0.061 A 
ATOM      4  C   UNL     1      -5.336   3.316  25.373  0.00  0.00    +0.158 A 
ATOM      5  F   UNL     1      -5.094   4.082  25.558  0.00  0.00    -0.203 F 
ATOM      6  C   UNL     1      -4.887   2.854  24.858  0.00  0.00    +0.102 A 
ATOM     34  C   UNL     1      -5.129   2.087  24.673  0.00  0.00    +0.021 A 
ATOM     35  C   UNL     1      -5.822   1.783  25.002  0.00  0.00    +0.031 A 
ENDBRANCH   7   6
ENDBRANCH  11  10
BRANCH  16  17
ATOM     17  C   UNL     1      -0.705   0.616  24.187  0.00  0.00    +0.027 C 
BRANCH  17  18
ATOM     18  C   UNL     1      -0.930  -0.066  24.592  0.00  0.00    +0.087 C 
BRANCH  18  19
ATOM     19  C   UNL     1      -0.770  -0.809  24.272  0.00  0.00    +0.229 C 
ATOM     20  O   UNL     1      -0.094  -0.923  23.813  0.00  0.00    -0.275 OA
ATOM     21  N   UNL     1      -1.285  -1.439  24.412  0.00  0.00    -0.259 N 
ATOM     22  C   UNL     1      -1.196  -2.208  24.129  0.00  0.00    +0.103 C 
ATOM     23  C   UNL     1      -1.836  -2.655  24.401  0.00  0.00    +0.049 C 
ATOM     24  C   UNL     1      -2.318  -2.160  24.851  0.00  0.00    -0.007 A 
ATOM     25  C   UNL     1      -3.024  -2.296  25.256  0.00  0.00    -0.003 A 
ATOM     26  C   UNL     1      -3.389  -1.682  25.667  0.00  0.00    -0.000 A 
ATOM     27  C   UNL     1      -3.049  -0.931  25.674  0.00  0.00    +0.001 A 
ATOM     28  C   UNL     1      -2.343  -0.793  25.269  0.00  0.00    +0.015 A 
ATOM     29  C   UNL     1      -1.977  -1.409  24.857  0.00  0.00    +0.050 A 
ENDBRANCH  18  19
ENDBRANCH  17  18
ENDBRANCH  16  17
TORSDOF 5
ENDMDL
MODEL 5
REMARK VINA RESULT:     -11.9      2.147      4.325
REMARK  Name = 
REMARK  5 active torsions:
REMARK  status: ('A' for Active; 'I' for Inactive)
REMARK    1  A    between atoms: C_6  and  N_7
REMARK    2  A    between atoms: N_10  and  C_11
REMARK    3  A    between atoms: C_16  and  C_17
REMARK    4  A    between atoms: C_17  and  C_18
REMARK    5  A    between atoms: C_18  and  C_19
REMARK                            x       y       z     vdW  Elec       q    Type
REMARK                         _______ _______ _______ _____ _____    ______ ____
ROOT
ATOM     11  C   UNL     1      -3.949  -0.467  24.490  0.00  0.00    +0.115 C 
ATOM     12  C   UNL     1      -3.952  -1.183  24.900  0.00  0.00    +0.049 C 
ATOM     13  C   UNL     1      -3.183  -1.484  24.892  0.00  0.00    +0.138 C 
ATOM     14  N   UNL     1      -2.706  -0.955  24.477  0.00  0.00    -0.265 NA
ATOM     15  C   UNL     1      -3.180  -0.326  24.229  0.00  0.00    +0.094 C 
ATOM     16  C   UNL     1      -1.903  -1.113  24.379  0.00  0.00    +0.080 C 
ATOM     30  C   UNL     1      -1.576  -1.801  24.696  0.00  0.00    +0.131 C 
ATOM     31  N   UNL     1      -2.053  -2.331  25.111  0.00  0.00    -0.203 NA
ATOM     32  C   UNL     1      -2.857  -2.173  25.209  0.00  0.00    +0.256 C 
ATOM     33  O   UNL     1      -3.334  -2.702  25.625  0.00  0.00    -0.272 OA
ENDROOT
BRANCH  11  10
ATOM      7  N   UNL     1      -5.269   1.269  24.560  0.00  0.00    -0.159 NA
ATOM      8  C   UNL     1      -4.616   0.781  24.686  0.00  0.00    +0.344 C 
ATOM      9  O   UNL     1      -3.979   1.051  25.135  0.00  0.00    -0.249 OA
ATOM     10  N   UNL     1      -4.601   0.021  24.364  0.00  0.00    -0.187 NA
BRANCH   7   6
ATOM      1  F   UNL     1      -5.331   4.307  25.848  0.00  0.00    -0.204 F 
ATOM      2  C   UNL     1      -5.316   3.547  25.526  0.00  0.00    +0.142 A 
ATOM      3  C   UNL     1      -5.915   3.011  25.707  0.00  0.00    +0.061 A 
ATOM      4  C   UNL     1      -5.900   2.251  25.385  0.00  0.00    +0.158 A 
ATOM      5  F   UNL     1      -6.499   1.714  25.566  0.00  0.00    -0.203 F 
ATOM      6  C   UNL     1      -5.285   2.029  24.882  0.00  0.00    +0.102 A 
ATOM     34  C   UNL     1      -4.685   2.566  24.701  0.00  0.00    +0.021 A 
ATOM     35  C   UNL     1      -4.700   3.326  25.023  0.00  0.00    +0.031 A 
ENDBRANCH   7   6
ENDBRANCH  11  10
BRANCH  16  17
ATOM     17  C   UNL     1      -1.426  -0.583  23.964  0.00  0.00    +0.027 C 
BRANCH  17  18
ATOM     18  C   UNL     1      -0.876  -0.120  24.368  0.00  0.00    +0.087 C 
BRANCH  18  19
ATOM     19  C   UNL     1      -0.262   0.246  23.955  0.00  0.00    +0.229 C 
ATOM     20  O   UNL     1       0.046  -0.106  23.275  0.00  0.00    -0.275 OA
ATOM     21  N   UNL     1       0.044   0.965  24.222  0.00  0.00    -0.259 N 
ATOM     22  C   UNL     1       0.653   1.393  23.868  0.00  0.00    +0.103 C 
ATOM     23  C   UNL     1       0.780   2.074  24.317  0.00  0.00    +0.049 C 
ATOM     24  C   UNL     1       0.248   2.066  24.947  0.00  0.00    -0.007 A 
ATOM     25  C   UNL     1       0.119   2.595  25.567  0.00  0.00    -0.003 A 
ATOM     26  C   UNL     1      -0.464   2.438  26.128  0.00  0.00    -0.000 A 
ATOM     27  C   UNL     1      -0.919   1.752  26.070  0.00  0.00    +0.001 A 
ATOM     28  C   UNL     1      -0.791   1.223  25.450  0.00  0.00    +0.015 A 
ATOM     29  C   UNL     1      -0.207   1.381  24.888  0.00  0.00    +0.050 A 
ENDBRANCH  18  19
ENDBRANCH  17  18
ENDBRANCH  16  17
TORSDOF 5
ENDMDL
MODEL 6
REMARK VINA RESULT:     -11.5      3.933      5.471
REMARK  Name = 
REMARK  5 active torsions:
REMARK  status: ('A' for Active; 'I' for Inactive)
REMARK    1  A    between atoms: C_6  and  N_7
REMARK    2  A    between atoms: N_10  and  C_11
REMARK    3  A    between atoms: C_16  and  C_17
REMARK    4  A    between atoms: C_17  and  C_18
REMARK    5  A    between atoms: C_18  and  C_19
REMARK                            x       y       z     vdW  Elec       q    Type
REMARK                         _______ _______ _______ _____ _____    ______ ____
ROOT
ATOM     11  C   UNL     1       0.555   0.031  23.376  0.00  0.00    +0.115 C 
ATOM     12  C   UNL     1       0.169  -0.678  23.547  0.00  0.00    +0.049 C 
ATOM     13  C   UNL     1      -0.393  -0.527  24.133  0.00  0.00    +0.138 C 
ATOM     14  N   UNL     1      -0.354   0.274  24.323  0.00  0.00    -0.265 NA
ATOM     15  C   UNL     1       0.232   0.619  23.855  0.00  0.00    +0.094 C 
ATOM     16  C   UNL     1      -0.856   0.587  24.898  0.00  0.00    +0.080 C 
ATOM     30  C   UNL     1      -1.399   0.098  25.282  0.00  0.00    +0.131 C 
ATOM     31  N   UNL     1      -1.438  -0.704  25.092  0.00  0.00    -0.203 NA
ATOM     32  C   UNL     1      -0.935  -1.017  24.517  0.00  0.00    +0.256 C 
ATOM     33  O   UNL     1      -0.975  -1.818  24.326  0.00  0.00    -0.272 OA
ENDROOT
BRANCH  11  10
ATOM      7  N   UNL     1       2.550   0.221  22.512  0.00  0.00    -0.159 NA
ATOM      8  C   UNL     1       1.947   0.119  23.065  0.00  0.00    +0.344 C 
ATOM      9  O   UNL     1       2.132   0.004  23.861  0.00  0.00    -0.249 OA
ATOM     10  N   UNL     1       1.158   0.132  22.823  0.00  0.00    -0.187 NA
BRANCH   7   6
ATOM      1  F   UNL     1       5.705   0.166  23.478  0.00  0.00    -0.204 F 
ATOM      2  C   UNL     1       4.916   0.180  23.236  0.00  0.00    +0.142 A 
ATOM      3  C   UNL     1       4.590   0.873  22.931  0.00  0.00    +0.061 A 
ATOM      4  C   UNL     1       3.801   0.887  22.689  0.00  0.00    +0.158 A 
ATOM      5  F   UNL     1       3.476   1.580  22.383  0.00  0.00    -0.203 F 
ATOM      6  C   UNL     1       3.338   0.208  22.753  0.00  0.00    +0.102 A 
ATOM     34  C   UNL     1       3.664  -0.486  23.059  0.00  0.00    +0.021 A 
ATOM     35  C   UNL     1       4.453  -0.500  23.301  0.00  0.00    +0.031 A 
ENDBRANCH   7   6
ENDBRANCH  11  10
BRANCH  16  17
ATOM     17  C   UNL     1      -0.817   1.388  25.088  0.00  0.00    +0.027 C 
BRANCH  17  18
ATOM     18  C   UNL     1      -1.508   1.837  25.129  0.00  0.00    +0.087 C 
BRANCH  18  19
ATOM     19  C   UNL     1      -1.512   2.551  25.543  0.00  0.00    +0.229 C 
ATOM     20  O   UNL     1      -0.914   2.717  26.086  0.00  0.00    -0.275 OA
ATOM     21  N   UNL     1      -2.114   3.100  25.412  0.00  0.00    -0.259 N 
ATOM     22  C   UNL     1      -2.191   3.833  25.782  0.00  0.00    +0.103 C 
ATOM     23  C   UNL     1      -2.870   4.198  25.487  0.00  0.00    +0.049 C 
ATOM     24  C   UNL     1      -3.212   3.691  24.935  0.00  0.00    -0.007 A 
ATOM     25  C   UNL     1      -3.889   3.758  24.468  0.00  0.00    -0.003 A 
ATOM     26  C   UNL     1      -4.099   3.148  23.955  0.00  0.00    -0.000 A 
ATOM     27  C   UNL     1      -3.632   2.469  23.909  0.00  0.00    +0.001 A 
ATOM     28  C   UNL     1      -2.955   2.401  24.375  0.00  0.00    +0.015 A 
ATOM     29  C   UNL     1      -2.745   3.012  24.889  0.00  0.00    +0.050 A 
ENDBRANCH  18  19
ENDBRANCH  17  18
ENDBRANCH  16  17
TORSDOF 5
ENDMDL
