MODEL 1
REMARK VINA RESULT:     -11.5      0.000      0.000
REMARK  Name = 
REMARK  5 active torsions:
REMARK  status: ('A' for Active; 'I' for Inactive)
REMARK    1  A    between atoms: C_2  and  C_3
REMARK    2  A    between atoms: C_3  and  N_4
REMARK    3  A    between atoms: C_12  and  O_14
REMARK    4  A    between atoms: O_14  and  C_15
REMARK    5  A    between atoms: C_18  and  C_21
REMARK                            x       y       z     vdW  Elec       q    Type
REMARK                         _______ _______ _______ _____ _____    ______ ____
ROOT
ATOM      4  N   UNL     1      -2.445   3.534  25.025  0.00  0.00    -0.188 NA
ATOM      5  C   UNL     1      -2.489   2.814  24.625  0.00  0.00    +0.323 C 
ATOM      6  O   UNL     1      -1.838   2.538  24.200  0.00  0.00    -0.251 OA
ATOM      7  N   UNL     1      -3.184   2.370  24.650  0.00  0.00    -0.257 N 
ATOM      8  C   UNL     1      -3.801   2.696  25.091  0.00  0.00    +0.127 C 
ATOM      9  C   UNL     1      -4.557   2.391  25.221  0.00  0.00    +0.164 C 
ATOM     10  O   UNL     1      -4.882   1.685  24.944  0.00  0.00    -0.348 OA
ATOM     11  C   UNL     1      -4.531   1.110  24.468  0.00  0.00    +0.187 C 
ATOM     12  C   UNL     1      -3.770   1.098  24.152  0.00  0.00    +0.215 C 
ATOM     13  C   UNL     1      -3.171   1.659  24.233  0.00  0.00    +0.141 C 
ENDROOT
BRANCH   4   3
ATOM      3  C   UNL     1      -1.750   3.978  24.999  0.00  0.00    +0.117 C 
BRANCH   3   2
ATOM      1  C   UNL     1      -1.226   5.307  25.024  0.00  0.00    +0.002 C 
ATOM      2  C   UNL     1      -1.729   4.732  25.334  0.00  0.00    +0.023 C 
ENDBRANCH   3   2
ENDBRANCH   4   3
BRANCH  12  14
ATOM     14  O   UNL     1      -3.583   0.438  23.693  0.00  0.00    -0.475 OA
BRANCH  14  15
ATOM     15  C   UNL     1      -3.569  -0.312  24.037  0.00  0.00    +0.139 A 
ATOM     16  C   UNL     1      -2.938  -0.534  24.519  0.00  0.00    +0.037 A 
ATOM     17  C   UNL     1      -2.925  -1.284  24.862  0.00  0.00    +0.007 A 
ATOM     18  C   UNL     1      -3.543  -1.812  24.724  0.00  0.00    +0.072 A 
ATOM     19  C   UNL     1      -4.175  -1.590  24.241  0.00  0.00    +0.007 A 
ATOM     20  C   UNL     1      -4.188  -0.840  23.898  0.00  0.00    +0.037 A 
BRANCH  18  21
ATOM     21  C   UNL     1      -3.530  -2.561  25.067  0.00  0.00    +0.419 C 
ATOM     22  F   UNL     1      -3.517  -3.313  25.410  0.00  0.00    -0.166 F 
ATOM     23  F   UNL     1      -3.612  -2.222  25.814  0.00  0.00    -0.166 F 
ATOM     24  F   UNL     1      -3.448  -2.902  24.320  0.00  0.00    -0.166 F 
ENDBRANCH  18  21
ENDBRANCH  14  15
ENDBRANCH  12  14
TORSDOF 5
ENDMDL
MODEL 2
REMARK VINA RESULT:     -11.2      1.635      2.337
REMARK  Name = 
REMARK  5 active torsions:
REMARK  status: ('A' for Active; 'I' for Inactive)
REMARK    1  A    between atoms: C_2  and  C_3
REMARK    2  A    between atoms: C_3  and  N_4
REMARK    3  A    between atoms: C_12  and  O_14
REMARK    4  A    between atoms: O_14  and  C_15
REMARK    5  A    between atoms: C_18  and  C_21
REMARK                            x       y       z     vdW  Elec       q    Type
REMARK                         _______ _______ _______ _____ _____    ______ ____
ROOT
ATOM      4  N   UNL     1      -1.100   2.947  24.939  0.00  0.00    -0.188 NA
ATOM      5  C   UNL     1      -1.464   2.267  25.229  0.00  0.00    +0.323 C 
ATOM      6  O   UNL     1      -2.101   2.330  25.749  0.00  0.00    -0.251 OA
ATOM      7  N   UNL     1      -1.190   1.523  25.001  0.00  0.00    -0.257 N 
ATOM      8  C   UNL     1      -0.550   1.522  24.480  0.00  0.00    +0.127 C 
ATOM      9  C   UNL     1      -0.155   0.876  24.153  0.00  0.00    +0.164 C 
ATOM     10  O   UNL     1      -0.302   0.071  24.265  0.00  0.00    -0.348 OA
ATOM     11  C   UNL     1      -0.880  -0.285  24.733  0.00  0.00    +0.187 C 
ATOM     12  C   UNL     1      -1.454   0.074  25.203  0.00  0.00    +0.215 C 
ATOM     13  C   UNL     1      -1.592   0.878  25.322  0.00  0.00    +0.141 C 
ENDROOT
BRANCH   4   3
ATOM      3  C   UNL     1      -1.373   3.691  25.168  0.00  0.00    +0.117 C 
BRANCH   3   2
ATOM      1  C   UNL     1      -1.282   5.110  25.025  0.00  0.00    +0.002 C 
ATOM      2  C   UNL     1      -0.929   4.365  24.997  0.00  0.00    +0.023 C 
ENDBRANCH   3   2
ENDBRANCH   4   3
BRANCH  12  14
ATOM     14  O   UNL     1      -1.958  -0.439  25.608  0.00  0.00    -0.475 OA
BRANCH  14  15
ATOM     15  C   UNL     1      -2.503  -0.896  25.191  0.00  0.00    +0.139 A 
ATOM     16  C   UNL     1      -3.254  -0.596  25.026  0.00  0.00    +0.037 A 
ATOM     17  C   UNL     1      -3.798  -1.054  24.609  0.00  0.00    +0.007 A 
ATOM     18  C   UNL     1      -3.593  -1.811  24.355  0.00  0.00    +0.072 A 
ATOM     19  C   UNL     1      -2.842  -2.112  24.519  0.00  0.00    +0.007 A 
ATOM     20  C   UNL     1      -2.297  -1.654  24.937  0.00  0.00    +0.037 A 
BRANCH  18  21
ATOM     21  C   UNL     1      -4.138  -2.268  23.938  0.00  0.00    +0.419 C 
ATOM     22  F   UNL     1      -4.683  -2.727  23.520  0.00  0.00    -0.166 F 
ATOM     23  F   UNL     1      -4.316  -1.620  23.459  0.00  0.00    -0.166 F 
ATOM     24  F   UNL     1      -3.960  -2.917  24.416  0.00  0.00    -0.166 F 
ENDBRANCH  18  21
ENDBRANCH  14  15
ENDBRANCH  12  14
TORSDOF 5
ENDMDL
MODEL 3
REMARK VINA RESULT:     -10.6      3.415      5.661
REMARK  Name = 
REMARK  5 active torsions:
REMARK  status: ('A' for Active; 'I' for Inactive)
REMARK    1  A    between atoms: C_2  and  C_3
REMARK    2  A    between atoms: C_3  and  N_4
REMARK    3  A    between atoms: C_12  and  O_14
REMARK    4  A    between atoms: O_14  and  C_15
REMARK    5  A    between atoms: C_18  and  C_21
REMARK                            x       y       z     vdW  Elec       q    Type
REMARK                         _______ _______ _______ _____ _____    ______ ____
ROOT
ATOM      4  N   UNL     1      -2.281  -1.135  24.637  0.00  0.00    -0.188 NA
ATOM      5  C   UNL     1      -2.114  -0.473  25.099  0.00  0.00    +0.323 C 
ATOM      6  O   UNL     1      -2.583  -0.300  25.756  0.00  0.00    -0.251 OA
ATOM      7  N   UNL     1      -1.478   0.016  24.907  0.00  0.00    -0.257 N 
ATOM      8  C   UNL     1      -1.045  -0.207  24.240  0.00  0.00    +0.127 C 
ATOM      9  C   UNL     1      -0.386   0.162  23.908  0.00  0.00    +0.164 C 
ATOM     10  O   UNL     1       0.003   0.845  24.160  0.00  0.00    -0.348 OA
ATOM     11  C   UNL     1      -0.171   1.327  24.806  0.00  0.00    +0.187 C 
ATOM     12  C   UNL     1      -0.777   1.246  25.360  0.00  0.00    +0.215 C 
ATOM     13  C   UNL     1      -1.358   0.662  25.405  0.00  0.00    +0.141 C 
ENDROOT
BRANCH   4   3
ATOM      3  C   UNL     1      -2.917  -1.623  24.830  0.00  0.00    +0.117 C 
BRANCH   3   2
ATOM      1  C   UNL     1      -3.605  -2.845  24.556  0.00  0.00    +0.002 C 
ATOM      2  C   UNL     1      -3.181  -2.190  24.291  0.00  0.00    +0.023 C 
ENDBRANCH   3   2
ENDBRANCH   4   3
BRANCH  12  14
ATOM     14  O   UNL     1      -0.805   1.825  25.948  0.00  0.00    -0.475 OA
BRANCH  14  15
ATOM     15  C   UNL     1      -0.947   2.611  25.744  0.00  0.00    +0.139 A 
ATOM     16  C   UNL     1      -0.315   3.115  25.575  0.00  0.00    +0.037 A 
ATOM     17  C   UNL     1      -0.457   3.901  25.371  0.00  0.00    +0.007 A 
ATOM     18  C   UNL     1      -1.230   4.185  25.336  0.00  0.00    +0.072 A 
ATOM     19  C   UNL     1      -1.863   3.683  25.505  0.00  0.00    +0.007 A 
ATOM     20  C   UNL     1      -1.721   2.895  25.709  0.00  0.00    +0.037 A 
BRANCH  18  21
ATOM     21  C   UNL     1      -1.372   4.972  25.133  0.00  0.00    +0.419 C 
ATOM     22  F   UNL     1      -1.514   5.759  24.929  0.00  0.00    -0.166 F 
ATOM     23  F   UNL     1      -2.004   4.996  25.663  0.00  0.00    -0.166 F 
ATOM     24  F   UNL     1      -0.741   4.948  24.602  0.00  0.00    -0.166 F 
ENDBRANCH  18  21
ENDBRANCH  14  15
ENDBRANCH  12  14
TORSDOF 5
ENDMDL
MODEL 4
REMARK VINA RESULT:     -10.5      3.073      5.299
REMARK  Name = 
REMARK  5 active torsions:
REMARK  status: ('A' for Active; 'I' for Inactive)
REMARK    1  A    between atoms: C_2  and  C_3
REMARK    2  A    between atoms: C_3  and  N_4
REMARK    3  A    between atoms: C_12  and  O_14
REMARK    4  A    between atoms: O_14  and  C_15
REMARK    5  A    between atoms: C_18  and  C_21
REMARK                            x       y       z     vdW  Elec       q    Type
REMARK                         _______ _______ _______ _____ _____    ______ ____
ROOT
ATOM      4  N   UNL     1      -4.098  -0.071  24.422  0.00  0.00    -0.188 NA
ATOM      5  C   UNL     1      -3.695   0.482  24.882  0.00  0.00    +0.323 C 
ATOM      6  O   UNL     1      -3.049   0.247  25.337  0.00  0.00    -0.251 OA
ATOM      7  N   UNL     1      -3.938   1.271  24.886  0.00  0.00    -0.257 N 
ATOM      8  C   UNL     1      -4.589   1.447  24.412  0.00  0.00    +0.127 C 
ATOM      9  C   UNL     1      -4.961   2.175  24.299  0.00  0.00    +0.164 C 
ATOM     10  O   UNL     1      -4.773   2.906  24.632  0.00  0.00    -0.348 OA
ATOM     11  C   UNL     1      -4.167   3.090  25.160  0.00  0.00    +0.187 C 
ATOM     12  C   UNL     1      -3.599   2.588  25.486  0.00  0.00    +0.215 C 
ATOM     13  C   UNL     1      -3.497   1.779  25.364  0.00  0.00    +0.141 C 
ENDROOT
BRANCH   4   3
ATOM      3  C   UNL     1      -3.855  -0.859  24.417  0.00  0.00    +0.117 C 
BRANCH   3   2
ATOM      1  C   UNL     1      -4.046  -2.204  23.974  0.00  0.00    +0.002 C 
ATOM      2  C   UNL     1      -4.220  -1.400  23.913  0.00  0.00    +0.023 C 
ENDBRANCH   3   2
ENDBRANCH   4   3
BRANCH  12  14
ATOM     14  O   UNL     1      -3.062   2.943  26.003  0.00  0.00    -0.475 OA
BRANCH  14  15
ATOM     15  C   UNL     1      -2.503   3.476  25.713  0.00  0.00    +0.139 A 
ATOM     16  C   UNL     1      -1.746   3.214  25.515  0.00  0.00    +0.037 A 
ATOM     17  C   UNL     1      -1.188   3.748  25.226  0.00  0.00    +0.007 A 
ATOM     18  C   UNL     1      -1.385   4.543  25.134  0.00  0.00    +0.072 A 
ATOM     19  C   UNL     1      -2.142   4.806  25.332  0.00  0.00    +0.007 A 
ATOM     20  C   UNL     1      -2.701   4.271  25.621  0.00  0.00    +0.037 A 
BRANCH  18  21
ATOM     21  C   UNL     1      -0.827   5.076  24.845  0.00  0.00    +0.419 C 
ATOM     22  F   UNL     1      -0.267   5.610  24.555  0.00  0.00    -0.166 F 
ATOM     23  F   UNL     1      -1.173   5.680  25.287  0.00  0.00    -0.166 F 
ATOM     24  F   UNL     1      -0.480   4.472  24.401  0.00  0.00    -0.166 F 
ENDBRANCH  18  21
ENDBRANCH  14  15
ENDBRANCH  12  14
TORSDOF 5
ENDMDL
MODEL 5
REMARK VINA RESULT:      -9.5      2.668      4.921
REMARK  Name = 
REMARK  5 active torsions:
REMARK  status: ('A' for Active; 'I' for Inactive)
REMARK    1  A    between atoms: C_2  and  C_3
REMARK    2  A    between atoms: C_3  and  N_4
REMARK    3  A    between atoms: C_12  and  O_14
REMARK    4  A    between atoms: O_14  and  C_15
REMARK    5  A    between atoms: C_18  and  C_21
REMARK                            x       y       z     vdW  Elec       q    Type
REMARK                         _______ _______ _______ _____ _____    ______ ____
ROOT
ATOM      4  N   UNL     1      -2.696  -1.158  24.679  0.00  0.00    -0.188 NA
ATOM      5  C   UNL     1      -2.854  -0.389  24.429  0.00  0.00    +0.323 C 
ATOM      6  O   UNL     1      -3.475  -0.245  23.905  0.00  0.00    -0.251 OA
ATOM      7  N   UNL     1      -2.391   0.238  24.701  0.00  0.00    -0.257 N 
ATOM      8  C   UNL     1      -1.785   0.033  25.223  0.00  0.00    +0.127 C 
ATOM      9  C   UNL     1      -1.233   0.526  25.588  0.00  0.00    +0.164 C 
ATOM     10  O   UNL     1      -1.151   1.345  25.523  0.00  0.00    -0.348 OA
ATOM     11  C   UNL     1      -1.601   1.872  25.076  0.00  0.00    +0.187 C 
ATOM     12  C   UNL     1      -2.243   1.712  24.584  0.00  0.00    +0.215 C 
ATOM     13  C   UNL     1      -2.595   0.985  24.417  0.00  0.00    +0.141 C 
ENDROOT
BRANCH   4   3
ATOM      3  C   UNL     1      -3.159  -1.784  24.407  0.00  0.00    +0.117 C 
BRANCH   3   2
ATOM      1  C   UNL     1      -3.537  -3.157  24.527  0.00  0.00    +0.002 C 
ATOM      2  C   UNL     1      -2.979  -2.558  24.628  0.00  0.00    +0.023 C 
ENDBRANCH   3   2
ENDBRANCH   4   3
BRANCH  12  14
ATOM     14  O   UNL     1      -2.579   2.366  24.208  0.00  0.00    -0.475 OA
BRANCH  14  15
ATOM     15  C   UNL     1      -3.248   2.726  24.529  0.00  0.00    +0.139 A 
ATOM     16  C   UNL     1      -3.186   3.178  25.216  0.00  0.00    +0.037 A 
ATOM     17  C   UNL     1      -3.855   3.537  25.536  0.00  0.00    +0.007 A 
ATOM     18  C   UNL     1      -4.588   3.446  25.169  0.00  0.00    +0.072 A 
ATOM     19  C   UNL     1      -4.652   2.994  24.481  0.00  0.00    +0.007 A 
ATOM     20  C   UNL     1      -3.981   2.634  24.161  0.00  0.00    +0.037 A 
BRANCH  18  21
ATOM     21  C   UNL     1      -5.257   3.806  25.489  0.00  0.00    +0.419 C 
ATOM     22  F   UNL     1      -5.928   4.167  25.809  0.00  0.00    -0.166 F 
ATOM     23  F   UNL     1      -5.473   3.092  25.842  0.00  0.00    -0.166 F 
ATOM     24  F   UNL     1      -5.043   4.520  25.136  0.00  0.00    -0.166 F 
ENDBRANCH  18  21
ENDBRANCH  14  15
ENDBRANCH  12  14
TORSDOF 5
ENDMDL
MODEL 6
REMARK VINA RESULT:      -9.4      3.024      4.051
REMARK  Name = 
REMARK  5 active torsions:
REMARK  status: ('A' for Active; 'I' for Inactive)
REMARK    1  A    between atoms: C_2  and  C_3
REMARK    2  A    between atoms: C_3  and  N_4
REMARK    3  A    between atoms: C_12  and  O_14
REMARK    4  A    between atoms: O_14  and  C_15
REMARK    5  A    between atoms: C_18  and  C_21
REMARK                            x       y       z     vdW  Elec       q    Type
REMARK                         _______ _______ _______ _____ _____    ______ ____
ROOT
ATOM      4  N   UNL     1      -0.425   1.263  24.057  0.00  0.00    -0.188 NA
ATOM      5  C   UNL     1      -1.137   1.665  23.948  0.00  0.00    +0.323 C 
ATOM      6  O   UNL     1      -1.596   1.515  23.279  0.00  0.00    -0.251 OA
ATOM      7  N   UNL     1      -1.390   2.217  24.507  0.00  0.00    -0.257 N 
ATOM      8  C   UNL     1      -0.889   2.325  25.154  0.00  0.00    +0.127 C 
ATOM      9  C   UNL     1      -0.985   2.831  25.799  0.00  0.00    +0.164 C 
ATOM     10  O   UNL     1      -1.605   3.353  25.956  0.00  0.00    -0.348 OA
ATOM     11  C   UNL     1      -2.280   3.498  25.507  0.00  0.00    +0.187 C 
ATOM     12  C   UNL     1      -2.505   3.158  24.790  0.00  0.00    +0.215 C 
ATOM     13  C   UNL     1      -2.108   2.588  24.345  0.00  0.00    +0.141 C 
ENDROOT
BRANCH   4   3
ATOM      3  C   UNL     1      -0.173   0.712  23.499  0.00  0.00    +0.117 C 
BRANCH   3   2
ATOM      1  C   UNL     1       0.921  -0.095  23.056  0.00  0.00    +0.002 C 
ATOM      2  C   UNL     1       0.462   0.213  23.669  0.00  0.00    +0.023 C 
ENDBRANCH   3   2
ENDBRANCH   4   3
BRANCH  12  14
ATOM     14  O   UNL     1      -3.221   3.423  24.476  0.00  0.00    -0.475 OA
BRANCH  14  15
ATOM     15  C   UNL     1      -3.931   3.095  24.736  0.00  0.00    +0.139 A 
ATOM     16  C   UNL     1      -4.257   2.447  24.343  0.00  0.00    +0.037 A 
ATOM     17  C   UNL     1      -4.967   2.120  24.604  0.00  0.00    +0.007 A 
ATOM     18  C   UNL     1      -5.353   2.439  25.259  0.00  0.00    +0.072 A 
ATOM     19  C   UNL     1      -5.028   3.088  25.654  0.00  0.00    +0.007 A 
ATOM     20  C   UNL     1      -4.317   3.415  25.392  0.00  0.00    +0.037 A 
BRANCH  18  21
ATOM     21  C   UNL     1      -6.063   2.112  25.520  0.00  0.00    +0.419 C 
ATOM     22  F   UNL     1      -6.774   1.784  25.782  0.00  0.00    -0.166 F 
ATOM     23  F   UNL     1      -5.879   2.330  26.295  0.00  0.00    -0.166 F 
ATOM     24  F   UNL     1      -6.248   1.894  24.746  0.00  0.00    -0.166 F 
ENDBRANCH  18  21
ENDBRANCH  14  15
ENDBRANCH  12  14
TORSDOF 5
ENDMDL
MODEL 7
REMARK VINA RESULT:      -7.6     16.302     18.569
REMARK  Name = 
REMARK  5 active torsions:
REMARK  status: ('A' for Active; 'I' for Inactive)
REMARK    1  A    between atoms: C_2  and  C_3
REMARK    2  A    between atoms: C_3  and  N_4
REMARK    3  A    between atoms: C_12  and  O_14
REMARK    4  A    between atoms: O_14  and  C_15
REMARK    5  A    between atoms: C_18  and  C_21
REMARK                            x       y       z     vdW  Elec       q    Type
REMARK                         _______ _______ _______ _____ _____    ______ ____
ROOT
ATOM      4  N   UNL     1      15.473   6.787  19.059  0.00  0.00    -0.188 NA
ATOM      5  C   UNL     1      14.970   7.263  19.506  0.00  0.00    +0.323 C 
ATOM      6  O   UNL     1      15.196   7.508  20.261  0.00  0.00    -0.251 OA
ATOM      7  N   UNL     1      14.240   7.496  19.199  0.00  0.00    -0.257 N 
ATOM      8  C   UNL     1      14.068   7.221  18.440  0.00  0.00    +0.127 C 
ATOM      9  C   UNL     1      13.392   7.355  17.986  0.00  0.00    +0.164 C 
ATOM     10  O   UNL     1      12.721   7.796  18.179  0.00  0.00    -0.348 OA
ATOM     11  C   UNL     1      12.561   8.211  18.872  0.00  0.00    +0.187 C 
ATOM     12  C   UNL     1      13.032   8.290  19.546  0.00  0.00    +0.215 C 
ATOM     13  C   UNL     1      13.778   7.971  19.691  0.00  0.00    +0.141 C 
ENDROOT
BRANCH   4   3
ATOM      3  C   UNL     1      16.202   6.556  19.366  0.00  0.00    +0.117 C 
BRANCH   3   2
ATOM      1  C   UNL     1      17.405   5.794  19.247  0.00  0.00    +0.002 C 
ATOM      2  C   UNL     1      16.713   6.092  18.913  0.00  0.00    +0.023 C 
ENDBRANCH   3   2
ENDBRANCH   4   3
BRANCH  12  14
ATOM     14  O   UNL     1      12.713   8.747  20.154  0.00  0.00    -0.475 OA
BRANCH  14  15
ATOM     15  C   UNL     1      12.115   8.438  20.631  0.00  0.00    +0.139 A 
ATOM     16  C   UNL     1      12.307   7.990  21.297  0.00  0.00    +0.037 A 
ATOM     17  C   UNL     1      11.709   7.682  21.773  0.00  0.00    +0.007 A 
ATOM     18  C   UNL     1      10.918   7.822  21.585  0.00  0.00    +0.072 A 
ATOM     19  C   UNL     1      10.725   8.270  20.920  0.00  0.00    +0.007 A 
ATOM     20  C   UNL     1      11.324   8.578  20.443  0.00  0.00    +0.037 A 
BRANCH  18  21
ATOM     21  C   UNL     1      10.320   7.514  22.062  0.00  0.00    +0.419 C 
ATOM     22  F   UNL     1       9.721   7.206  22.539  0.00  0.00    -0.166 F 
ATOM     23  F   UNL     1      10.351   6.804  21.643  0.00  0.00    -0.166 F 
ATOM     24  F   UNL     1      10.288   8.224  22.481  0.00  0.00    -0.166 F 
ENDBRANCH  18  21
ENDBRANCH  14  15
ENDBRANCH  12  14
TORSDOF 5
ENDMDL
