MODEL 1
REMARK VINA RESULT:      -7.1      0.000      0.000
REMARK  Name = 
REMARK  3 active torsions:
REMARK  status: ('A' for Active; 'I' for Inactive)
REMARK    1  A    between atoms: C_2  and  N_4
REMARK    2  A    between atoms: N_7  and  C_8
REMARK    3  A    between atoms: C_11  and  C_12
REMARK                            x       y       z     vdW  Elec       q    Type
REMARK                         _______ _______ _______ _____ _____    ______ ____
ROOT
ATOM      8  C   UNL     1      -4.548   1.653  24.700  0.00  0.00    +0.159 C 
ATOM      9  C   UNL     1      -5.350   1.580  24.881  0.00  0.00    +0.167 C 
ATOM     10  O   UNL     1      -5.602   2.293  25.212  0.00  0.00    -0.349 OA
ATOM     11  C   UNL     1      -4.957   2.806  25.236  0.00  0.00    +0.180 C 
ATOM     14  C   UNL     1      -4.305   2.410  24.920  0.00  0.00    +0.204 C 
ATOM     15  O   UNL     1      -3.544   2.718  24.838  0.00  0.00    -0.218 OA
ENDROOT
BRANCH   8   7
ATOM      4  N   UNL     1      -3.688  -0.300  24.244  0.00  0.00    -0.189 NA
ATOM      5  C   UNL     1      -4.162   0.282  24.584  0.00  0.00    +0.339 C 
ATOM      6  O   UNL     1      -4.727   0.075  25.149  0.00  0.00    -0.249 OA
ATOM      7  N   UNL     1      -4.073   1.070  24.360  0.00  0.00    -0.184 NA
BRANCH   4   2
ATOM      1  C   UNL     1      -3.432  -1.362  25.165  0.00  0.00    +0.023 C 
ATOM      2  C   UNL     1      -3.777  -1.089  24.468  0.00  0.00    +0.097 C 
ATOM      3  C   UNL     1      -4.212  -1.605  23.994  0.00  0.00    +0.023 C 
ENDBRANCH   4   2
ENDBRANCH   8   7
BRANCH  11  12
ATOM     12  C   UNL     1      -4.962   3.578  25.526  0.00  0.00    +0.214 C 
ATOM     13  O   UNL     1      -5.671   3.926  25.761  0.00  0.00    -0.218 OA
ENDBRANCH  11  12
TORSDOF 3
ENDMDL
MODEL 2
REMARK VINA RESULT:      -7.0      2.345      3.630
REMARK  Name = 
REMARK  3 active torsions:
REMARK  status: ('A' for Active; 'I' for Inactive)
REMARK    1  A    between atoms: C_2  and  N_4
REMARK    2  A    between atoms: N_7  and  C_8
REMARK    3  A    between atoms: C_11  and  C_12
REMARK                            x       y       z     vdW  Elec       q    Type
REMARK                         _______ _______ _______ _____ _____    ______ ____
ROOT
ATOM      8  C   UNL     1      -4.116   3.204  24.953  0.00  0.00    +0.159 C 
ATOM      9  C   UNL     1      -4.497   3.636  25.545  0.00  0.00    +0.167 C 
ATOM     10  O   UNL     1      -5.178   3.223  25.762  0.00  0.00    -0.349 OA
ATOM     11  C   UNL     1      -5.218   2.537  25.306  0.00  0.00    +0.180 C 
ATOM     14  C   UNL     1      -4.562   2.525  24.806  0.00  0.00    +0.204 C 
ATOM     15  O   UNL     1      -4.382   1.938  24.255  0.00  0.00    -0.218 OA
ENDROOT
BRANCH   8   7
ATOM      4  N   UNL     1      -2.081   3.926  24.638  0.00  0.00    -0.189 NA
ATOM      5  C   UNL     1      -2.783   3.716  25.015  0.00  0.00    +0.339 C 
ATOM      6  O   UNL     1      -2.856   3.806  25.832  0.00  0.00    -0.249 OA
ATOM      7  N   UNL     1      -3.413   3.415  24.576  0.00  0.00    -0.184 NA
BRANCH   4   2
ATOM      1  C   UNL     1      -0.907   3.715  25.425  0.00  0.00    +0.023 C 
ATOM      2  C   UNL     1      -1.451   4.228  25.077  0.00  0.00    +0.097 C 
ATOM      3  C   UNL     1      -1.364   5.043  25.167  0.00  0.00    +0.023 C 
ENDBRANCH   4   2
ENDBRANCH   8   7
BRANCH  11  12
ATOM     12  C   UNL     1      -5.810   1.965  25.343  0.00  0.00    +0.214 C 
ATOM     13  O   UNL     1      -6.230   1.849  26.043  0.00  0.00    -0.218 OA
ENDBRANCH  11  12
TORSDOF 3
ENDMDL
MODEL 3
REMARK VINA RESULT:      -6.9      1.046      1.562
REMARK  Name = 
REMARK  3 active torsions:
REMARK  status: ('A' for Active; 'I' for Inactive)
REMARK    1  A    between atoms: C_2  and  N_4
REMARK    2  A    between atoms: N_7  and  C_8
REMARK    3  A    between atoms: C_11  and  C_12
REMARK                            x       y       z     vdW  Elec       q    Type
REMARK                         _______ _______ _______ _____ _____    ______ ____
ROOT
ATOM      8  C   UNL     1      -4.035   0.893  24.880  0.00  0.00    +0.159 C 
ATOM      9  C   UNL     1      -3.357   1.168  24.497  0.00  0.00    +0.167 C 
ATOM     10  O   UNL     1      -3.458   1.973  24.350  0.00  0.00    -0.349 OA
ATOM     11  C   UNL     1      -4.197   2.196  24.642  0.00  0.00    +0.180 C 
ATOM     14  C   UNL     1      -4.553   1.528  24.970  0.00  0.00    +0.204 C 
ATOM     15  O   UNL     1      -5.297   1.499  25.324  0.00  0.00    -0.218 OA
ENDROOT
BRANCH   8   7
ATOM      4  N   UNL     1      -4.042  -1.289  24.919  0.00  0.00    -0.189 NA
ATOM      5  C   UNL     1      -3.908  -0.515  24.670  0.00  0.00    +0.339 C 
ATOM      6  O   UNL     1      -3.514  -0.373  23.959  0.00  0.00    -0.249 OA
ATOM      7  N   UNL     1      -4.168   0.117  25.130  0.00  0.00    -0.184 NA
BRANCH   4   2
ATOM      1  C   UNL     1      -4.227  -2.174  23.812  0.00  0.00    +0.023 C 
ATOM      2  C   UNL     1      -3.782  -1.923  24.459  0.00  0.00    +0.097 C 
ATOM      3  C   UNL     1      -3.075  -2.305  24.646  0.00  0.00    +0.023 C 
ENDBRANCH   4   2
ENDBRANCH   8   7
BRANCH  11  12
ATOM     12  C   UNL     1      -4.522   2.953  24.612  0.00  0.00    +0.214 C 
ATOM     13  O   UNL     1      -4.077   3.582  24.318  0.00  0.00    -0.218 OA
ENDBRANCH  11  12
TORSDOF 3
ENDMDL
MODEL 4
REMARK VINA RESULT:      -6.8      1.345      3.948
REMARK  Name = 
REMARK  3 active torsions:
REMARK  status: ('A' for Active; 'I' for Inactive)
REMARK    1  A    between atoms: C_2  and  N_4
REMARK    2  A    between atoms: N_7  and  C_8
REMARK    3  A    between atoms: C_11  and  C_12
REMARK                            x       y       z     vdW  Elec       q    Type
REMARK                         _______ _______ _______ _____ _____    ______ ____
ROOT
ATOM      8  C   UNL     1      -3.884  -0.430  24.687  0.00  0.00    +0.159 C 
ATOM      9  C   UNL     1      -3.634  -0.584  25.458  0.00  0.00    +0.167 C 
ATOM     10  O   UNL     1      -3.491  -1.394  25.522  0.00  0.00    -0.349 OA
ATOM     11  C   UNL     1      -3.652  -1.741  24.792  0.00  0.00    +0.180 C 
ATOM     14  C   UNL     1      -3.896  -1.146  24.275  0.00  0.00    +0.204 C 
ATOM     15  O   UNL     1      -4.113  -1.246  23.486  0.00  0.00    -0.218 OA
ENDROOT
BRANCH   8   7
ATOM      4  N   UNL     1      -4.734   1.574  24.530  0.00  0.00    -0.189 NA
ATOM      5  C   UNL     1      -4.531   0.835  24.836  0.00  0.00    +0.339 C 
ATOM      6  O   UNL     1      -4.772   0.623  25.596  0.00  0.00    -0.249 OA
ATOM      7  N   UNL     1      -4.088   0.309  24.382  0.00  0.00    -0.184 NA
BRANCH   4   2
ATOM      1  C   UNL     1      -4.802   2.712  25.391  0.00  0.00    +0.023 C 
ATOM      2  C   UNL     1      -5.177   2.101  24.985  0.00  0.00    +0.097 C 
ATOM      3  C   UNL     1      -5.997   2.016  25.031  0.00  0.00    +0.023 C 
ENDBRANCH   4   2
ENDBRANCH   8   7
BRANCH  11  12
ATOM     12  C   UNL     1      -3.583  -2.542  24.610  0.00  0.00    +0.214 C 
ATOM     13  O   UNL     1      -3.439  -3.091  25.208  0.00  0.00    -0.218 OA
ENDBRANCH  11  12
TORSDOF 3
ENDMDL
