MODEL 1
REMARK VINA RESULT:      -9.6      0.000      0.000
REMARK  Name = 
REMARK  5 active torsions:
REMARK  status: ('A' for Active; 'I' for Inactive)
REMARK    1  A    between atoms: N_2  and  C_3
REMARK    2  A    between atoms: C_3  and  C_4
REMARK    3  A    between atoms: N_6  and  C_7
REMARK    4  A    between atoms: C_7  and  C_8
REMARK    5  A    between atoms: C_15  and  C_16
REMARK                            x       y       z     vdW  Elec       q    Type
REMARK                         _______ _______ _______ _____ _____    ______ ____
ROOT
ATOM      8  C   UNL     1      -3.272   1.441  24.737  0.00  0.00    +0.082 C 
ATOM      9  C   UNL     1      -2.629   1.027  24.882  0.00  0.00    +0.019 C 
ATOM     10  C   UNL     1      -2.601   0.228  25.009  0.00  0.00    +0.013 C 
ATOM     11  C   UNL     1      -1.764  -0.057  25.158  0.00  0.00    +0.018 C 
ATOM     12  C   UNL     1      -2.229   0.385  25.032  0.00  0.00    +0.072 C 
ATOM     13  N   UNL     1      -3.235   0.627  24.868  0.00  0.00    -0.272 NA
ATOM     14  C   UNL     1      -3.881  -0.018  24.886  0.00  0.00    +0.081 C 
ATOM     15  C   UNL     1      -3.227  -0.387  25.025  0.00  0.00    +0.093 C 
ENDROOT
BRANCH  15  16
ATOM     16  C   UNL     1      -3.129  -1.195  25.162  0.00  0.00    +0.227 C 
ATOM     17  O   UNL     1      -2.638  -1.453  25.774  0.00  0.00    -0.275 OA
ATOM     18  N   UNL     1      -3.521  -1.743  24.689  0.00  0.00    -0.280 N 
ATOM     19  C   UNL     1      -3.477  -2.565  24.759  0.00  0.00    +0.093 C 
ATOM     20  C   UNL     1      -3.955  -2.897  24.175  0.00  0.00    +0.023 C 
ATOM     21  C   UNL     1      -4.295  -2.282  23.743  0.00  0.00    +0.023 C 
ATOM     22  C   UNL     1      -4.027  -1.569  24.060  0.00  0.00    +0.093 C 
ENDBRANCH  15  16
BRANCH   8   7
ATOM      7  C   UNL     1      -3.675   2.143  24.578  0.00  0.00    +0.145 C 
BRANCH   7   6
ATOM      4  C   UNL     1      -2.775   4.004  25.110  0.00  0.00    +0.118 A 
ATOM      5  C   UNL     1      -2.865   3.368  24.591  0.00  0.00    +0.115 A 
ATOM      6  N   UNL     1      -3.419   2.851  24.914  0.00  0.00    -0.229 N 
ATOM     23  N   UNL     1      -3.673   3.167  25.633  0.00  0.00    -0.064 NA
ATOM     24  N   UNL     1      -3.275   3.879  25.754  0.00  0.00    -0.132 NA
BRANCH   4   3
ATOM      3  C   UNL     1      -2.274   4.651  25.003  0.00  0.00    +0.138 C 
BRANCH   3   2
ATOM      1  C   UNL     1      -0.946   5.178  25.001  0.00  0.00    +0.108 C 
ATOM      2  N   UNL     1      -1.488   4.609  25.251  0.00  0.00    -0.210 NA
ENDBRANCH   3   2
ENDBRANCH   4   3
ENDBRANCH   7   6
ENDBRANCH   8   7
TORSDOF 5
ENDMDL
MODEL 2
REMARK VINA RESULT:      -9.4      1.634      4.992
REMARK  Name = 
REMARK  5 active torsions:
REMARK  status: ('A' for Active; 'I' for Inactive)
REMARK    1  A    between atoms: N_2  and  C_3
REMARK    2  A    between atoms: C_3  and  C_4
REMARK    3  A    between atoms: N_6  and  C_7
REMARK    4  A    between atoms: C_7  and  C_8
REMARK    5  A    between atoms: C_15  and  C_16
REMARK                            x       y       z     vdW  Elec       q    Type
REMARK                         _______ _______ _______ _____ _____    ______ ____
ROOT
ATOM      8  C   UNL     1      -4.189   1.193  24.828  0.00  0.00    +0.082 C 
ATOM      9  C   UNL     1      -4.146   1.655  24.203  0.00  0.00    +0.019 C 
ATOM     10  C   UNL     1      -3.813   2.392  24.184  0.00  0.00    +0.013 C 
ATOM     11  C   UNL     1      -3.864   2.761  23.368  0.00  0.00    +0.018 C 
ATOM     12  C   UNL     1      -3.956   2.296  23.818  0.00  0.00    +0.072 C 
ATOM     13  N   UNL     1      -3.851   1.946  24.800  0.00  0.00    -0.272 NA
ATOM     14  C   UNL     1      -3.445   2.456  25.439  0.00  0.00    +0.081 C 
ATOM     15  C   UNL     1      -3.424   2.878  24.803  0.00  0.00    +0.093 C 
ENDROOT
BRANCH  15  16
ATOM     16  C   UNL     1      -3.101   3.633  24.715  0.00  0.00    +0.227 C 
ATOM     17  O   UNL     1      -3.538   4.227  24.343  0.00  0.00    -0.275 OA
ATOM     18  N   UNL     1      -2.344   3.793  24.999  0.00  0.00    -0.280 N 
ATOM     19  C   UNL     1      -1.952   4.518  24.952  0.00  0.00    +0.093 C 
ATOM     20  C   UNL     1      -1.211   4.430  25.304  0.00  0.00    +0.023 C 
ATOM     21  C   UNL     1      -1.145   3.651  25.569  0.00  0.00    +0.023 C 
ATOM     22  C   UNL     1      -1.846   3.258  25.380  0.00  0.00    +0.093 C 
ENDBRANCH  15  16
BRANCH   8   7
ATOM      7  C   UNL     1      -4.403   0.497  25.215  0.00  0.00    +0.145 C 
BRANCH   7   6
ATOM      4  C   UNL     1      -3.568  -1.394  24.681  0.00  0.00    +0.118 A 
ATOM      5  C   UNL     1      -3.580  -0.718  25.156  0.00  0.00    +0.115 A 
ATOM      6  N   UNL     1      -4.194  -0.234  24.896  0.00  0.00    -0.229 N 
ATOM     23  N   UNL     1      -4.562  -0.609  24.260  0.00  0.00    -0.064 NA
ATOM     24  N   UNL     1      -4.175  -1.325  24.127  0.00  0.00    -0.132 NA
BRANCH   4   3
ATOM      3  C   UNL     1      -3.042  -2.026  24.749  0.00  0.00    +0.138 C 
BRANCH   3   2
ATOM      1  C   UNL     1      -1.758  -2.599  24.496  0.00  0.00    +0.108 C 
ATOM      2  N   UNL     1      -2.291  -1.974  24.412  0.00  0.00    -0.210 NA
ENDBRANCH   3   2
ENDBRANCH   4   3
ENDBRANCH   7   6
ENDBRANCH   8   7
TORSDOF 5
ENDMDL
MODEL 3
REMARK VINA RESULT:      -9.3      1.039      1.416
REMARK  Name = 
REMARK  5 active torsions:
REMARK  status: ('A' for Active; 'I' for Inactive)
REMARK    1  A    between atoms: N_2  and  C_3
REMARK    2  A    between atoms: C_3  and  C_4
REMARK    3  A    between atoms: N_6  and  C_7
REMARK    4  A    between atoms: C_7  and  C_8
REMARK    5  A    between atoms: C_15  and  C_16
REMARK                            x       y       z     vdW  Elec       q    Type
REMARK                         _______ _______ _______ _____ _____    ______ ____
ROOT
ATOM      8  C   UNL     1      -3.796   1.620  24.146  0.00  0.00    +0.082 C 
ATOM      9  C   UNL     1      -4.217   1.174  24.626  0.00  0.00    +0.019 C 
ATOM     10  C   UNL     1      -4.189   0.366  24.666  0.00  0.00    +0.013 C 
ATOM     11  C   UNL     1      -4.751   0.042  25.284  0.00  0.00    +0.018 C 
ATOM     12  C   UNL     1      -4.456   0.508  24.934  0.00  0.00    +0.072 C 
ATOM     13  N   UNL     1      -3.773   0.796  24.192  0.00  0.00    -0.272 NA
ATOM     14  C   UNL     1      -3.288   0.172  23.736  0.00  0.00    +0.081 C 
ATOM     15  C   UNL     1      -3.718  -0.228  24.223  0.00  0.00    +0.093 C 
ENDROOT
BRANCH  15  16
ATOM     16  C   UNL     1      -3.738  -1.048  24.313  0.00  0.00    +0.227 C 
ATOM     17  O   UNL     1      -4.459  -1.448  24.292  0.00  0.00    -0.275 OA
ATOM     18  N   UNL     1      -3.037  -1.467  24.425  0.00  0.00    -0.280 N 
ATOM     19  C   UNL     1      -2.970  -2.284  24.524  0.00  0.00    +0.093 C 
ATOM     20  C   UNL     1      -2.170  -2.465  24.618  0.00  0.00    +0.023 C 
ATOM     21  C   UNL     1      -1.743  -1.760  24.578  0.00  0.00    +0.023 C 
ATOM     22  C   UNL     1      -2.279  -1.144  24.459  0.00  0.00    +0.093 C 
ENDBRANCH  15  16
BRANCH   8   7
ATOM      7  C   UNL     1      -3.559   2.346  23.835  0.00  0.00    +0.145 C 
BRANCH   7   6
ATOM      4  C   UNL     1      -2.557   3.801  25.032  0.00  0.00    +0.118 A 
ATOM      5  C   UNL     1      -2.541   3.170  24.499  0.00  0.00    +0.115 A 
ATOM      6  N   UNL     1      -3.320   2.953  24.339  0.00  0.00    -0.229 N 
ATOM     23  N   UNL     1      -3.818   3.448  24.772  0.00  0.00    -0.064 NA
ATOM     24  N   UNL     1      -3.346   3.973  25.200  0.00  0.00    -0.132 NA
BRANCH   4   3
ATOM      3  C   UNL     1      -1.899   4.192  25.341  0.00  0.00    +0.138 C 
BRANCH   3   2
ATOM      1  C   UNL     1      -0.881   5.155  25.063  0.00  0.00    +0.108 C 
ATOM      2  N   UNL     1      -1.673   4.924  25.035  0.00  0.00    -0.210 NA
ENDBRANCH   3   2
ENDBRANCH   4   3
ENDBRANCH   7   6
ENDBRANCH   8   7
TORSDOF 5
ENDMDL
MODEL 4
REMARK VINA RESULT:      -9.3      2.549      4.260
REMARK  Name = 
REMARK  5 active torsions:
REMARK  status: ('A' for Active; 'I' for Inactive)
REMARK    1  A    between atoms: N_2  and  C_3
REMARK    2  A    between atoms: C_3  and  C_4
REMARK    3  A    between atoms: N_6  and  C_7
REMARK    4  A    between atoms: C_7  and  C_8
REMARK    5  A    between atoms: C_15  and  C_16
REMARK                            x       y       z     vdW  Elec       q    Type
REMARK                         _______ _______ _______ _____ _____    ______ ____
ROOT
ATOM      8  C   UNL     1      -1.919   2.715  24.250  0.00  0.00    +0.082 C 
ATOM      9  C   UNL     1      -2.057   3.150  24.881  0.00  0.00    +0.019 C 
ATOM     10  C   UNL     1      -2.788   3.335  25.175  0.00  0.00    +0.013 C 
ATOM     11  C   UNL     1      -2.732   3.847  25.909  0.00  0.00    +0.018 C 
ATOM     12  C   UNL     1      -2.500   3.502  25.405  0.00  0.00    +0.072 C 
ATOM     13  N   UNL     1      -2.661   2.908  24.556  0.00  0.00    -0.272 NA
ATOM     14  C   UNL     1      -3.506   2.697  24.286  0.00  0.00    +0.081 C 
ATOM     15  C   UNL     1      -3.599   3.128  24.909  0.00  0.00    +0.093 C 
ENDROOT
BRANCH  15  16
ATOM     16  C   UNL     1      -4.311   3.352  25.260  0.00  0.00    +0.227 C 
ATOM     17  O   UNL     1      -4.398   4.114  25.566  0.00  0.00    -0.275 OA
ATOM     18  N   UNL     1      -4.935   2.816  25.304  0.00  0.00    -0.280 N 
ATOM     19  C   UNL     1      -5.676   2.961  25.637  0.00  0.00    +0.093 C 
ATOM     20  C   UNL     1      -6.129   2.274  25.563  0.00  0.00    +0.023 C 
ATOM     21  C   UNL     1      -5.666   1.705  25.184  0.00  0.00    +0.023 C 
ATOM     22  C   UNL     1      -4.929   2.040  25.024  0.00  0.00    +0.093 C 
ENDBRANCH  15  16
BRANCH   8   7
ATOM      7  C   UNL     1      -1.422   2.349  23.703  0.00  0.00    +0.145 C 
BRANCH   7   6
ATOM      4  C   UNL     1      -0.405   0.545  24.222  0.00  0.00    +0.118 A 
ATOM      5  C   UNL     1      -1.067   0.941  23.926  0.00  0.00    +0.115 A 
ATOM      6  N   UNL     1      -0.910   1.750  23.948  0.00  0.00    -0.229 N 
ATOM     23  N   UNL     1      -0.152   1.855  24.257  0.00  0.00    -0.064 NA
ATOM     24  N   UNL     1       0.159   1.110  24.426  0.00  0.00    -0.132 NA
BRANCH   4   3
ATOM      3  C   UNL     1      -0.323  -0.273  24.299  0.00  0.00    +0.138 C 
BRANCH   3   2
ATOM      1  C   UNL     1      -0.552  -1.474  25.038  0.00  0.00    +0.108 C 
ATOM      2  N   UNL     1      -0.598  -0.652  24.978  0.00  0.00    -0.210 NA
ENDBRANCH   3   2
ENDBRANCH   4   3
ENDBRANCH   7   6
ENDBRANCH   8   7
TORSDOF 5
ENDMDL
MODEL 5
REMARK VINA RESULT:      -9.2      1.618      2.037
REMARK  Name = 
REMARK  5 active torsions:
REMARK  status: ('A' for Active; 'I' for Inactive)
REMARK    1  A    between atoms: N_2  and  C_3
REMARK    2  A    between atoms: C_3  and  C_4
REMARK    3  A    between atoms: N_6  and  C_7
REMARK    4  A    between atoms: C_7  and  C_8
REMARK    5  A    between atoms: C_15  and  C_16
REMARK                            x       y       z     vdW  Elec       q    Type
REMARK                         _______ _______ _______ _____ _____    ______ ____
ROOT
ATOM      8  C   UNL     1      -0.985   0.424  25.507  0.00  0.00    +0.082 C 
ATOM      9  C   UNL     1      -0.701  -0.112  25.019  0.00  0.00    +0.019 C 
ATOM     10  C   UNL     1      -1.083  -0.787  24.786  0.00  0.00    +0.013 C 
ATOM     11  C   UNL     1      -0.586  -1.273  24.220  0.00  0.00    +0.018 C 
ATOM     12  C   UNL     1      -0.719  -0.767  24.611  0.00  0.00    +0.072 C 
ATOM     13  N   UNL     1      -1.368  -0.266  25.264  0.00  0.00    -0.272 NA
ATOM     14  C   UNL     1      -2.188  -0.612  25.465  0.00  0.00    +0.081 C 
ATOM     15  C   UNL     1      -1.873  -1.114  24.983  0.00  0.00    +0.093 C 
ENDROOT
BRANCH  15  16
ATOM     16  C   UNL     1      -2.206  -1.816  24.707  0.00  0.00    +0.227 C 
ATOM     17  O   UNL     1      -1.753  -2.506  24.684  0.00  0.00    -0.275 OA
ATOM     18  N   UNL     1      -2.991  -1.829  24.454  0.00  0.00    -0.280 N 
ATOM     19  C   UNL     1      -3.396  -2.487  24.165  0.00  0.00    +0.093 C 
ATOM     20  C   UNL     1      -4.165  -2.251  23.977  0.00  0.00    +0.023 C 
ATOM     21  C   UNL     1      -4.234  -1.447  24.151  0.00  0.00    +0.023 C 
ATOM     22  C   UNL     1      -3.508  -1.186  24.445  0.00  0.00    +0.093 C 
ENDBRANCH  15  16
BRANCH   8   7
ATOM      7  C   UNL     1      -0.940   1.129  25.933  0.00  0.00    +0.145 C 
BRANCH   7   6
ATOM      4  C   UNL     1      -0.751   3.042  25.004  0.00  0.00    +0.118 A 
ATOM      5  C   UNL     1      -1.204   2.466  25.385  0.00  0.00    +0.115 A 
ATOM      6  N   UNL     1      -0.714   1.826  25.554  0.00  0.00    -0.229 N 
ATOM     23  N   UNL     1       0.043   2.004  25.278  0.00  0.00    -0.064 NA
ATOM     24  N   UNL     1       0.020   2.756  24.938  0.00  0.00    -0.132 NA
BRANCH   4   3
ATOM      3  C   UNL     1      -1.021   3.774  24.737  0.00  0.00    +0.138 C 
BRANCH   3   2
ATOM      1  C   UNL     1      -1.316   5.149  24.991  0.00  0.00    +0.108 C 
ATOM      2  N   UNL     1      -0.980   4.434  25.230  0.00  0.00    -0.210 NA
ENDBRANCH   3   2
ENDBRANCH   4   3
ENDBRANCH   7   6
ENDBRANCH   8   7
TORSDOF 5
ENDMDL
MODEL 6
REMARK VINA RESULT:      -9.0      2.363      4.099
REMARK  Name = 
REMARK  5 active torsions:
REMARK  status: ('A' for Active; 'I' for Inactive)
REMARK    1  A    between atoms: N_2  and  C_3
REMARK    2  A    between atoms: C_3  and  C_4
REMARK    3  A    between atoms: N_6  and  C_7
REMARK    4  A    between atoms: C_7  and  C_8
REMARK    5  A    between atoms: C_15  and  C_16
REMARK                            x       y       z     vdW  Elec       q    Type
REMARK                         _______ _______ _______ _____ _____    ______ ____
ROOT
ATOM      8  C   UNL     1      -2.006   0.457  24.984  0.00  0.00    +0.082 C 
ATOM      9  C   UNL     1      -2.602  -0.044  24.997  0.00  0.00    +0.019 C 
ATOM     10  C   UNL     1      -3.385   0.154  24.945  0.00  0.00    +0.013 C 
ATOM     11  C   UNL     1      -3.915  -0.569  24.979  0.00  0.00    +0.018 C 
ATOM     12  C   UNL     1      -3.346  -0.247  24.979  0.00  0.00    +0.072 C 
ATOM     13  N   UNL     1      -2.807   0.650  24.931  0.00  0.00    -0.272 NA
ATOM     14  C   UNL     1      -3.237   1.451  24.847  0.00  0.00    +0.081 C 
ATOM     15  C   UNL     1      -3.792   0.927  24.864  0.00  0.00    +0.093 C 
ENDROOT
BRANCH  15  16
ATOM     16  C   UNL     1      -4.606   1.060  24.816  0.00  0.00    +0.227 C 
ATOM     17  O   UNL     1      -5.099   0.483  24.493  0.00  0.00    -0.275 OA
ATOM     18  N   UNL     1      -4.923   1.769  25.090  0.00  0.00    -0.280 N 
ATOM     19  C   UNL     1      -5.722   1.980  25.079  0.00  0.00    +0.093 C 
ATOM     20  C   UNL     1      -5.792   2.734  25.406  0.00  0.00    +0.023 C 
ATOM     21  C   UNL     1      -5.037   2.990  25.620  0.00  0.00    +0.023 C 
ATOM     22  C   UNL     1      -4.500   2.394  25.425  0.00  0.00    +0.093 C 
ENDBRANCH  15  16
BRANCH   8   7
ATOM      7  C   UNL     1      -1.204   0.646  25.005  0.00  0.00    +0.145 C 
BRANCH   7   6
ATOM      4  C   UNL     1       0.213  -0.119  23.603  0.00  0.00    +0.118 A 
ATOM      5  C   UNL     1      -0.268   0.491  23.883  0.00  0.00    +0.115 A 
ATOM      6  N   UNL     1      -0.666   0.217  24.551  0.00  0.00    -0.229 N 
ATOM     23  N   UNL     1      -0.432  -0.563  24.685  0.00  0.00    -0.064 NA
ATOM     24  N   UNL     1       0.111  -0.770  24.099  0.00  0.00    -0.132 NA
BRANCH   4   3
ATOM      3  C   UNL     1       0.708  -0.084  22.944  0.00  0.00    +0.138 C 
BRANCH   3   2
ATOM      1  C   UNL     1       2.021  -0.029  22.384  0.00  0.00    +0.108 C 
ATOM      2  N   UNL     1       1.526  -0.067  23.043  0.00  0.00    -0.210 NA
ENDBRANCH   3   2
ENDBRANCH   4   3
ENDBRANCH   7   6
ENDBRANCH   8   7
TORSDOF 5
ENDMDL
MODEL 7
REMARK VINA RESULT:      -8.9      1.943      5.268
REMARK  Name = 
REMARK  5 active torsions:
REMARK  status: ('A' for Active; 'I' for Inactive)
REMARK    1  A    between atoms: N_2  and  C_3
REMARK    2  A    between atoms: C_3  and  C_4
REMARK    3  A    between atoms: N_6  and  C_7
REMARK    4  A    between atoms: C_7  and  C_8
REMARK    5  A    between atoms: C_15  and  C_16
REMARK                            x       y       z     vdW  Elec       q    Type
REMARK                         _______ _______ _______ _____ _____    ______ ____
ROOT
ATOM      8  C   UNL     1      -0.985   0.313  25.389  0.00  0.00    +0.082 C 
ATOM      9  C   UNL     1      -0.611   0.625  24.781  0.00  0.00    +0.019 C 
ATOM     10  C   UNL     1      -0.483   1.415  24.661  0.00  0.00    +0.013 C 
ATOM     11  C   UNL     1      -0.033   1.569  23.901  0.00  0.00    +0.018 C 
ATOM     12  C   UNL     1      -0.324   1.202  24.357  0.00  0.00    +0.072 C 
ATOM     13  N   UNL     1      -0.850   1.117  25.259  0.00  0.00    -0.272 NA
ATOM     14  C   UNL     1      -1.073   1.859  25.742  0.00  0.00    +0.081 C 
ATOM     15  C   UNL     1      -0.701   2.124  25.131  0.00  0.00    +0.093 C 
ENDROOT
BRANCH  15  16
ATOM     16  C   UNL     1      -0.537   2.913  24.950  0.00  0.00    +0.227 C 
ATOM     17  O   UNL     1       0.164   3.109  24.561  0.00  0.00    -0.275 OA
ATOM     18  N   UNL     1      -1.074   3.502  25.156  0.00  0.00    -0.280 N 
ATOM     19  C   UNL     1      -0.986   4.310  25.012  0.00  0.00    +0.093 C 
ATOM     20  C   UNL     1      -1.652   4.697  25.310  0.00  0.00    +0.023 C 
ATOM     21  C   UNL     1      -2.150   4.128  25.639  0.00  0.00    +0.023 C 
ATOM     22  C   UNL     1      -1.794   3.390  25.544  0.00  0.00    +0.093 C 
ENDBRANCH  15  16
BRANCH   8   7
ATOM      7  C   UNL     1      -1.282  -0.322  25.822  0.00  0.00    +0.145 C 
BRANCH   7   6
ATOM      4  C   UNL     1      -2.452  -1.850  24.897  0.00  0.00    +0.118 A 
ATOM      5  C   UNL     1      -2.392  -1.137  25.310  0.00  0.00    +0.115 A 
ATOM      6  N   UNL     1      -1.592  -0.979  25.432  0.00  0.00    -0.229 N 
ATOM     23  N   UNL     1      -1.157  -1.593  25.095  0.00  0.00    -0.064 NA
ATOM     24  N   UNL     1      -1.688  -2.131  24.764  0.00  0.00    -0.132 NA
BRANCH   4   3
ATOM      3  C   UNL     1      -3.152  -2.216  24.659  0.00  0.00    +0.138 C 
BRANCH   3   2
ATOM      1  C   UNL     1      -4.314  -2.242  23.829  0.00  0.00    +0.108 C 
ATOM      2  N   UNL     1      -3.619  -1.871  24.073  0.00  0.00    -0.210 NA
ENDBRANCH   3   2
ENDBRANCH   4   3
ENDBRANCH   7   6
ENDBRANCH   8   7
TORSDOF 5
ENDMDL
