MODEL 1
REMARK VINA RESULT:     -10.3      0.000      0.000
REMARK  Name = 
REMARK  6 active torsions:
REMARK  status: ('A' for Active; 'I' for Inactive)
REMARK    1  A    between atoms: C_2  and  C_4
REMARK    2  A    between atoms: C_6  and  C_7
REMARK    3  A    between atoms: C_7  and  C_8
REMARK    4  A    between atoms: C_18  and  C_19
REMARK    5  A    between atoms: C_19  and  N_20
REMARK    6  A    between atoms: C_21  and  C_23
REMARK                            x       y       z     vdW  Elec       q    Type
REMARK                         _______ _______ _______ _____ _____    ______ ____
ROOT
ATOM      4  C   UNL     1      -3.339   2.026  24.514  0.00  0.00    +0.006 C 
ATOM      5  C   UNL     1      -2.779   2.602  24.701  0.00  0.00    +0.005 C 
ATOM      6  C   UNL     1      -2.058   2.382  25.036  0.00  0.00    +0.027 C 
ATOM     15  C   UNL     1      -1.896   1.586  25.183  0.00  0.00    -0.048 C 
ATOM     16  C   UNL     1      -1.176   1.366  25.517  0.00  0.00    +0.026 C 
ATOM     17  C   UNL     1      -2.456   1.010  24.995  0.00  0.00    -0.033 C 
ATOM     18  C   UNL     1      -3.178   1.230  24.660  0.00  0.00    +0.043 C 
ENDROOT
BRANCH   4   2
ATOM      1  C   UNL     1      -4.733   2.312  24.653  0.00  0.00    +0.000 C 
ATOM      2  C   UNL     1      -4.061   2.246  24.179  0.00  0.00    +0.000 C 
ATOM      3  C   UNL     1      -4.110   2.399  23.370  0.00  0.00    +0.000 C 
ENDBRANCH   4   2
BRANCH   6   7
ATOM      7  C   UNL     1      -1.498   2.958  25.224  0.00  0.00    +0.089 C 
BRANCH   7   8
ATOM      8  C   UNL     1      -1.742   3.701  25.486  0.00  0.00    +0.226 C 
ATOM      9  O   UNL     1      -2.342   3.763  26.049  0.00  0.00    -0.275 OA
ATOM     10  N   UNL     1      -1.387   4.383  25.186  0.00  0.00    -0.280 N 
ATOM     11  C   UNL     1      -0.783   4.407  24.623  0.00  0.00    +0.093 C 
ATOM     12  C   UNL     1      -0.596   5.198  24.485  0.00  0.00    +0.023 C 
ATOM     13  C   UNL     1      -1.084   5.662  24.962  0.00  0.00    +0.023 C 
ATOM     14  C   UNL     1      -1.572   5.159  25.395  0.00  0.00    +0.093 C 
ENDBRANCH   7   8
ENDBRANCH   6   7
BRANCH  18  19
ATOM     19  C   UNL     1      -3.738   0.654  24.472  0.00  0.00    +0.120 C 
BRANCH  19  20
ATOM     20  N   UNL     1      -3.540  -0.145  24.521  0.00  0.00    -0.200 NA
ATOM     21  C   UNL     1      -4.123  -0.721  24.422  0.00  0.00    +0.284 C 
ATOM     22  O   UNL     1      -4.903  -0.498  24.275  0.00  0.00    -0.267 OA
BRANCH  21  23
ATOM     23  C   UNL     1      -3.924  -1.521  24.470  0.00  0.00    +0.155 A 
ATOM     24  C   UNL     1      -4.096  -2.027  23.842  0.00  0.00    +0.123 A 
ATOM     25  N   UNL     1      -3.898  -2.826  23.890  0.00  0.00    -0.239 NA
ATOM     26  C   UNL     1      -3.529  -3.119  24.566  0.00  0.00    +0.120 A 
ATOM     27  C   UNL     1      -3.357  -2.613  25.195  0.00  0.00    +0.120 A 
ATOM     28  N   UNL     1      -3.555  -1.813  25.147  0.00  0.00    -0.236 NA
ENDBRANCH  21  23
ENDBRANCH  19  20
ENDBRANCH  18  19
TORSDOF 6
ENDMDL
MODEL 2
REMARK VINA RESULT:     -10.3      0.975      5.478
REMARK  Name = 
REMARK  6 active torsions:
REMARK  status: ('A' for Active; 'I' for Inactive)
REMARK    1  A    between atoms: C_2  and  C_4
REMARK    2  A    between atoms: C_6  and  C_7
REMARK    3  A    between atoms: C_7  and  C_8
REMARK    4  A    between atoms: C_18  and  C_19
REMARK    5  A    between atoms: C_19  and  N_20
REMARK    6  A    between atoms: C_21  and  C_23
REMARK                            x       y       z     vdW  Elec       q    Type
REMARK                         _______ _______ _______ _____ _____    ______ ____
ROOT
ATOM      4  C   UNL     1      -4.298   1.326  24.997  0.00  0.00    +0.006 C 
ATOM      5  C   UNL     1      -4.291   0.502  25.009  0.00  0.00    +0.005 C 
ATOM      6  C   UNL     1      -3.574   0.095  24.991  0.00  0.00    +0.027 C 
ATOM     15  C   UNL     1      -2.863   0.513  24.962  0.00  0.00    -0.048 C 
ATOM     16  C   UNL     1      -2.145   0.107  24.945  0.00  0.00    +0.026 C 
ATOM     17  C   UNL     1      -2.870   1.338  24.950  0.00  0.00    -0.033 C 
ATOM     18  C   UNL     1      -3.588   1.745  24.968  0.00  0.00    +0.043 C 
ENDROOT
BRANCH   4   2
ATOM      1  C   UNL     1      -5.348   2.015  24.313  0.00  0.00    +0.000 C 
ATOM      2  C   UNL     1      -5.016   1.733  25.014  0.00  0.00    +0.000 C 
ATOM      3  C   UNL     1      -5.401   1.858  25.732  0.00  0.00    +0.000 C 
ENDBRANCH   4   2
BRANCH   6   7
ATOM      7  C   UNL     1      -3.566  -0.729  25.003  0.00  0.00    +0.089 C 
BRANCH   7   8
ATOM      8  C   UNL     1      -3.869  -1.154  24.363  0.00  0.00    +0.226 C 
ATOM      9  O   UNL     1      -4.215  -0.754  23.730  0.00  0.00    -0.275 OA
ATOM     10  N   UNL     1      -3.824  -1.978  24.357  0.00  0.00    -0.280 N 
ATOM     11  C   UNL     1      -3.495  -2.451  24.948  0.00  0.00    +0.093 C 
ATOM     12  C   UNL     1      -3.569  -3.238  24.715  0.00  0.00    +0.023 C 
ATOM     13  C   UNL     1      -3.943  -3.252  23.980  0.00  0.00    +0.023 C 
ATOM     14  C   UNL     1      -4.101  -2.474  23.759  0.00  0.00    +0.093 C 
ENDBRANCH   7   8
ENDBRANCH   6   7
BRANCH  18  19
ATOM     19  C   UNL     1      -3.595   2.570  24.956  0.00  0.00    +0.120 C 
BRANCH  19  20
ATOM     20  N   UNL     1      -2.886   2.989  24.991  0.00  0.00    -0.200 NA
ATOM     21  C   UNL     1      -2.887   3.809  24.904  0.00  0.00    +0.284 C 
ATOM     22  O   UNL     1      -3.597   4.211  24.782  0.00  0.00    -0.267 OA
BRANCH  21  23
ATOM     23  C   UNL     1      -2.177   4.229  24.939  0.00  0.00    +0.155 A 
ATOM     24  C   UNL     1      -2.171   5.009  25.207  0.00  0.00    +0.123 A 
ATOM     25  N   UNL     1      -1.462   5.428  25.242  0.00  0.00    -0.239 NA
ATOM     26  C   UNL     1      -0.758   5.068  25.009  0.00  0.00    +0.120 A 
ATOM     27  C   UNL     1      -0.764   4.287  24.741  0.00  0.00    +0.120 A 
ATOM     28  N   UNL     1      -1.473   3.868  24.705  0.00  0.00    -0.236 NA
ENDBRANCH  21  23
ENDBRANCH  19  20
ENDBRANCH  18  19
TORSDOF 6
ENDMDL
MODEL 3
REMARK VINA RESULT:     -10.1      1.051      5.719
REMARK  Name = 
REMARK  6 active torsions:
REMARK  status: ('A' for Active; 'I' for Inactive)
REMARK    1  A    between atoms: C_2  and  C_4
REMARK    2  A    between atoms: C_6  and  C_7
REMARK    3  A    between atoms: C_7  and  C_8
REMARK    4  A    between atoms: C_18  and  C_19
REMARK    5  A    between atoms: C_19  and  N_20
REMARK    6  A    between atoms: C_21  and  C_23
REMARK                            x       y       z     vdW  Elec       q    Type
REMARK                         _______ _______ _______ _____ _____    ______ ____
ROOT
ATOM      4  C   UNL     1      -1.778   0.381  24.911  0.00  0.00    +0.006 C 
ATOM      5  C   UNL     1      -2.368  -0.177  24.768  0.00  0.00    +0.005 C 
ATOM      6  C   UNL     1      -3.160   0.052  24.759  0.00  0.00    +0.027 C 
ATOM     15  C   UNL     1      -3.363   0.840  24.893  0.00  0.00    -0.048 C 
ATOM     16  C   UNL     1      -4.155   1.070  24.884  0.00  0.00    +0.026 C 
ATOM     17  C   UNL     1      -2.773   1.399  25.036  0.00  0.00    -0.033 C 
ATOM     18  C   UNL     1      -1.980   1.170  25.045  0.00  0.00    +0.043 C 
ENDROOT
BRANCH   4   2
ATOM      1  C   UNL     1      -0.634  -0.090  25.626  0.00  0.00    +0.000 C 
ATOM      2  C   UNL     1      -0.985   0.152  24.920  0.00  0.00    +0.000 C 
ATOM      3  C   UNL     1      -0.545   0.164  24.222  0.00  0.00    +0.000 C 
ENDBRANCH   4   2
BRANCH   6   7
ATOM      7  C   UNL     1      -3.750  -0.507  24.616  0.00  0.00    +0.089 C 
BRANCH   7   8
ATOM      8  C   UNL     1      -3.703  -1.254  24.963  0.00  0.00    +0.226 C 
ATOM      9  O   UNL     1      -3.492  -1.327  25.757  0.00  0.00    -0.275 OA
ATOM     10  N   UNL     1      -3.868  -1.928  24.516  0.00  0.00    -0.280 N 
ATOM     11  C   UNL     1      -4.085  -1.941  23.720  0.00  0.00    +0.093 C 
ATOM     12  C   UNL     1      -4.195  -2.727  23.499  0.00  0.00    +0.023 C 
ATOM     13  C   UNL     1      -4.047  -3.201  24.158  0.00  0.00    +0.023 C 
ATOM     14  C   UNL     1      -3.844  -2.707  24.786  0.00  0.00    +0.093 C 
ENDBRANCH   7   8
ENDBRANCH   6   7
BRANCH  18  19
ATOM     19  C   UNL     1      -1.391   1.729  25.188  0.00  0.00    +0.120 C 
BRANCH  19  20
ATOM     20  N   UNL     1      -1.545   2.530  25.072  0.00  0.00    -0.200 NA
ATOM     21  C   UNL     1      -1.049   3.098  25.406  0.00  0.00    +0.284 C 
ATOM     22  O   UNL     1      -0.398   2.866  25.856  0.00  0.00    -0.267 OA
BRANCH  21  23
ATOM     23  C   UNL     1      -1.204   3.901  25.289  0.00  0.00    +0.155 A 
ATOM     24  C   UNL     1      -0.664   4.370  24.878  0.00  0.00    +0.123 A 
ATOM     25  N   UNL     1      -0.818   5.171  24.761  0.00  0.00    -0.239 NA
ATOM     26  C   UNL     1      -1.512   5.504  25.056  0.00  0.00    +0.120 A 
ATOM     27  C   UNL     1      -2.052   5.036  25.468  0.00  0.00    +0.120 A 
ATOM     28  N   UNL     1      -1.898   4.234  25.584  0.00  0.00    -0.236 NA
ENDBRANCH  21  23
ENDBRANCH  19  20
ENDBRANCH  18  19
TORSDOF 6
ENDMDL
MODEL 4
REMARK VINA RESULT:      -9.3      2.686      4.281
REMARK  Name = 
REMARK  6 active torsions:
REMARK  status: ('A' for Active; 'I' for Inactive)
REMARK    1  A    between atoms: C_2  and  C_4
REMARK    2  A    between atoms: C_6  and  C_7
REMARK    3  A    between atoms: C_7  and  C_8
REMARK    4  A    between atoms: C_18  and  C_19
REMARK    5  A    between atoms: C_19  and  N_20
REMARK    6  A    between atoms: C_21  and  C_23
REMARK                            x       y       z     vdW  Elec       q    Type
REMARK                         _______ _______ _______ _____ _____    ______ ____
ROOT
ATOM      4  C   UNL     1      -2.443   0.226  24.781  0.00  0.00    +0.006 C 
ATOM      5  C   UNL     1      -3.124   0.691  24.773  0.00  0.00    +0.005 C 
ATOM      6  C   UNL     1      -3.197   1.305  24.227  0.00  0.00    +0.027 C 
ATOM     15  C   UNL     1      -2.589   1.454  23.689  0.00  0.00    -0.048 C 
ATOM     16  C   UNL     1      -2.662   2.067  23.143  0.00  0.00    +0.026 C 
ATOM     17  C   UNL     1      -1.908   0.988  23.697  0.00  0.00    -0.033 C 
ATOM     18  C   UNL     1      -1.835   0.373  24.243  0.00  0.00    +0.043 C 
ENDROOT
BRANCH   4   2
ATOM      1  C   UNL     1      -1.926  -0.280  26.014  0.00  0.00    +0.000 C 
ATOM      2  C   UNL     1      -2.370  -0.389  25.327  0.00  0.00    +0.000 C 
ATOM      3  C   UNL     1      -2.741  -1.112  25.186  0.00  0.00    +0.000 C 
ENDBRANCH   4   2
BRANCH   6   7
ATOM      7  C   UNL     1      -3.878   1.771  24.218  0.00  0.00    +0.089 C 
BRANCH   7   8
ATOM      8  C   UNL     1      -4.064   2.242  24.870  0.00  0.00    +0.226 C 
ATOM      9  O   UNL     1      -3.464   2.631  25.282  0.00  0.00    -0.275 OA
ATOM     10  N   UNL     1      -4.849   2.324  25.110  0.00  0.00    -0.280 N 
ATOM     11  C   UNL     1      -5.504   1.970  24.753  0.00  0.00    +0.093 C 
ATOM     12  C   UNL     1      -6.176   2.202  25.170  0.00  0.00    +0.023 C 
ATOM     13  C   UNL     1      -5.937   2.698  25.785  0.00  0.00    +0.023 C 
ATOM     14  C   UNL     1      -5.117   2.773  25.747  0.00  0.00    +0.093 C 
ENDBRANCH   7   8
ENDBRANCH   6   7
BRANCH  18  19
ATOM     19  C   UNL     1      -1.154  -0.093  24.252  0.00  0.00    +0.120 C 
BRANCH  19  20
ATOM     20  N   UNL     1      -0.503   0.121  23.794  0.00  0.00    -0.200 NA
ATOM     21  C   UNL     1       0.152  -0.378  23.749  0.00  0.00    +0.284 C 
ATOM     22  O   UNL     1       0.155  -1.092  24.163  0.00  0.00    -0.267 OA
BRANCH  21  23
ATOM     23  C   UNL     1       0.804  -0.164  23.291  0.00  0.00    +0.155 A 
ATOM     24  C   UNL     1       1.352   0.380  23.581  0.00  0.00    +0.123 A 
ATOM     25  N   UNL     1       2.003   0.594  23.123  0.00  0.00    -0.239 NA
ATOM     26  C   UNL     1       2.108   0.263  22.375  0.00  0.00    +0.120 A 
ATOM     27  C   UNL     1       1.560  -0.281  22.085  0.00  0.00    +0.120 A 
ATOM     28  N   UNL     1       0.908  -0.496  22.543  0.00  0.00    -0.236 NA
ENDBRANCH  21  23
ENDBRANCH  19  20
ENDBRANCH  18  19
TORSDOF 6
ENDMDL
MODEL 5
REMARK VINA RESULT:      -6.4     16.768     18.808
REMARK  Name = 
REMARK  6 active torsions:
REMARK  status: ('A' for Active; 'I' for Inactive)
REMARK    1  A    between atoms: C_2  and  C_4
REMARK    2  A    between atoms: C_6  and  C_7
REMARK    3  A    between atoms: C_7  and  C_8
REMARK    4  A    between atoms: C_18  and  C_19
REMARK    5  A    between atoms: C_19  and  N_20
REMARK    6  A    between atoms: C_21  and  C_23
REMARK                            x       y       z     vdW  Elec       q    Type
REMARK                         _______ _______ _______ _____ _____    ______ ____
ROOT
ATOM      4  C   UNL     1      12.581   8.148  19.843  0.00  0.00    +0.006 C 
ATOM      5  C   UNL     1      12.217   8.415  19.152  0.00  0.00    +0.005 C 
ATOM      6  C   UNL     1      12.649   8.466  18.452  0.00  0.00    +0.027 C 
ATOM     15  C   UNL     1      13.445   8.249  18.441  0.00  0.00    -0.048 C 
ATOM     16  C   UNL     1      13.878   8.299  17.741  0.00  0.00    +0.026 C 
ATOM     17  C   UNL     1      13.809   7.982  19.131  0.00  0.00    -0.033 C 
ATOM     18  C   UNL     1      13.377   7.931  19.833  0.00  0.00    +0.043 C 
ENDROOT
BRANCH   4   2
ATOM      1  C   UNL     1      12.140   8.733  21.070  0.00  0.00    +0.000 C 
ATOM      2  C   UNL     1      12.149   8.097  20.544  0.00  0.00    +0.000 C 
ATOM      3  C   UNL     1      11.726   7.411  20.718  0.00  0.00    +0.000 C 
ENDBRANCH   4   2
BRANCH   6   7
ATOM      7  C   UNL     1      12.286   8.733  17.761  0.00  0.00    +0.089 C 
BRANCH   7   8
ATOM      8  C   UNL     1      11.533   8.461  17.559  0.00  0.00    +0.226 C 
ATOM      9  O   UNL     1      11.094   8.021  18.102  0.00  0.00    -0.275 OA
ATOM     10  N   UNL     1      11.219   8.629  16.814  0.00  0.00    -0.280 N 
ATOM     11  C   UNL     1      11.592   9.060  16.217  0.00  0.00    +0.093 C 
ATOM     12  C   UNL     1      11.082   9.092  15.571  0.00  0.00    +0.023 C 
ATOM     13  C   UNL     1      10.394   8.681  15.767  0.00  0.00    +0.023 C 
ATOM     14  C   UNL     1      10.479   8.395  16.536  0.00  0.00    +0.093 C 
ENDBRANCH   7   8
ENDBRANCH   6   7
BRANCH  18  19
ATOM     19  C   UNL     1      13.740   7.664  20.523  0.00  0.00    +0.120 C 
BRANCH  19  20
ATOM     20  N   UNL     1      14.563   7.621  20.566  0.00  0.00    -0.200 NA
ATOM     21  C   UNL     1      14.926   7.337  21.250  0.00  0.00    +0.284 C 
ATOM     22  O   UNL     1      14.467   7.096  21.892  0.00  0.00    -0.267 OA
BRANCH  21  23
ATOM     23  C   UNL     1      15.749   7.294  21.293  0.00  0.00    +0.155 A 
ATOM     24  C   UNL     1      16.136   6.592  21.098  0.00  0.00    +0.123 A 
ATOM     25  N   UNL     1      16.959   6.549  21.141  0.00  0.00    -0.239 NA
ATOM     26  C   UNL     1      17.394   7.208  21.379  0.00  0.00    +0.120 A 
ATOM     27  C   UNL     1      17.007   7.910  21.574  0.00  0.00    +0.120 A 
ATOM     28  N   UNL     1      16.184   7.953  21.531  0.00  0.00    -0.236 NA
ENDBRANCH  21  23
ENDBRANCH  19  20
ENDBRANCH  18  19
TORSDOF 6
ENDMDL
