MODEL 1
REMARK VINA RESULT:     -13.1      0.000      0.000
REMARK  Name = 
REMARK  4 active torsions:
REMARK  status: ('A' for Active; 'I' for Inactive)
REMARK    1  A    between atoms: C_4  and  C_8
REMARK    2  A    between atoms: C_11  and  C_13
REMARK    3  A    between atoms: N_18  and  C_19
REMARK    4  A    between atoms: C_19  and  C_20
REMARK                            x       y       z     vdW  Elec       q    Type
REMARK                         _______ _______ _______ _____ _____    ______ ____
ROOT
ATOM     13  C   UNL     1      -4.380   2.029  24.993  0.00  0.00    +0.140 C 
ATOM     14  C   UNL     1      -5.126   2.246  25.271  0.00  0.00    +0.060 C 
ATOM     15  C   UNL     1      -5.079   3.019  25.553  0.00  0.00    +0.170 C 
ATOM     16  O   UNL     1      -5.698   3.455  25.881  0.00  0.00    -0.222 OA
ATOM     17  C   UNL     1      -4.303   3.281  25.451  0.00  0.00    +0.106 C 
ATOM     18  N   UNL     1      -3.871   2.669  25.105  0.00  0.00    -0.264 NA
ENDROOT
BRANCH  13  11
ATOM      8  C   UNL     1      -3.901   0.002  24.527  0.00  0.00    +0.203 A 
ATOM      9  N   UNL     1      -3.835   0.356  23.784  0.00  0.00    -0.056 NA
ATOM     10  O   UNL     1      -4.007   1.159  23.869  0.00  0.00    -0.336 OA
ATOM     11  C   UNL     1      -4.178   1.301  24.663  0.00  0.00    +0.251 A 
ATOM     12  N   UNL     1      -4.113   0.585  25.070  0.00  0.00    -0.190 NA
BRANCH   8   4
ATOM      1  C   UNL     1      -4.122  -2.749  23.784  0.00  0.00    +0.031 C 
ATOM      2  C   UNL     1      -3.888  -2.171  24.325  0.00  0.00    -0.022 A 
ATOM      3  C   UNL     1      -4.012  -1.373  24.156  0.00  0.00    -0.001 A 
ATOM      4  C   UNL     1      -3.777  -0.796  24.696  0.00  0.00    +0.039 A 
ATOM      5  C   UNL     1      -3.418  -1.016  25.406  0.00  0.00    +0.003 A 
ATOM      6  C   UNL     1      -3.294  -1.814  25.575  0.00  0.00    -0.000 A 
ATOM      7  C   UNL     1      -3.529  -2.392  25.034  0.00  0.00    -0.004 A 
ENDBRANCH   8   4
ENDBRANCH  13  11
BRANCH  18  19
ATOM     19  C   UNL     1      -3.071   2.692  24.905  0.00  0.00    +0.073 C 
BRANCH  19  20
ATOM     20  C   UNL     1      -2.618   3.355  25.093  0.00  0.00    +0.016 C 
ATOM     21  C   UNL     1      -2.174   3.369  25.788  0.00  0.00    +0.001 C 
ATOM     22  C   UNL     1      -1.721   4.033  25.976  0.00  0.00    +0.000 C 
ATOM     23  C   UNL     1      -1.713   4.683  25.468  0.00  0.00    +0.000 C 
ATOM     24  C   UNL     1      -2.158   4.670  24.773  0.00  0.00    +0.000 C 
ATOM     25  C   UNL     1      -2.610   4.007  24.586  0.00  0.00    +0.001 C 
ENDBRANCH  19  20
ENDBRANCH  18  19
TORSDOF 4
ENDMDL
MODEL 2
REMARK VINA RESULT:     -12.9      0.981      4.699
REMARK  Name = 
REMARK  4 active torsions:
REMARK  status: ('A' for Active; 'I' for Inactive)
REMARK    1  A    between atoms: C_4  and  C_8
REMARK    2  A    between atoms: C_11  and  C_13
REMARK    3  A    between atoms: N_18  and  C_19
REMARK    4  A    between atoms: C_19  and  C_20
REMARK                            x       y       z     vdW  Elec       q    Type
REMARK                         _______ _______ _______ _____ _____    ______ ____
ROOT
ATOM     13  C   UNL     1      -4.205   1.648  24.717  0.00  0.00    +0.140 C 
ATOM     14  C   UNL     1      -4.934   1.923  24.990  0.00  0.00    +0.060 C 
ATOM     15  C   UNL     1      -5.399   1.269  25.179  0.00  0.00    +0.170 C 
ATOM     16  O   UNL     1      -6.170   1.290  25.473  0.00  0.00    -0.222 OA
ATOM     17  C   UNL     1      -4.957   0.589  25.024  0.00  0.00    +0.106 C 
ATOM     18  N   UNL     1      -4.219   0.824  24.739  0.00  0.00    -0.264 NA
ENDROOT
BRANCH  13  11
ATOM      8  C   UNL     1      -2.493   2.901  24.478  0.00  0.00    +0.203 A 
ATOM      9  N   UNL     1      -2.707   2.771  23.691  0.00  0.00    -0.056 NA
ATOM     10  O   UNL     1      -3.375   2.286  23.685  0.00  0.00    -0.336 OA
ATOM     11  C   UNL     1      -3.573   2.116  24.468  0.00  0.00    +0.251 A 
ATOM     12  N   UNL     1      -3.028   2.497  24.957  0.00  0.00    -0.190 NA
BRANCH   8   4
ATOM      1  C   UNL     1      -1.362   5.452  25.095  0.00  0.00    +0.031 C 
ATOM      2  C   UNL     1      -1.291   4.631  25.047  0.00  0.00    -0.022 A 
ATOM      3  C   UNL     1      -1.928   4.176  24.787  0.00  0.00    -0.001 A 
ATOM      4  C   UNL     1      -1.856   3.356  24.738  0.00  0.00    +0.039 A 
ATOM      5  C   UNL     1      -1.148   2.990  24.950  0.00  0.00    +0.003 A 
ATOM      6  C   UNL     1      -0.511   3.445  25.210  0.00  0.00    -0.000 A 
ATOM      7  C   UNL     1      -0.582   4.266  25.259  0.00  0.00    -0.004 A 
ENDBRANCH   8   4
ENDBRANCH  13  11
BRANCH  18  19
ATOM     19  C   UNL     1      -3.605   0.322  24.514  0.00  0.00    +0.073 C 
BRANCH  19  20
ATOM     20  C   UNL     1      -3.694  -0.495  24.581  0.00  0.00    +0.016 C 
ATOM     21  C   UNL     1      -4.025  -0.926  23.961  0.00  0.00    +0.001 C 
ATOM     22  C   UNL     1      -4.114  -1.744  24.028  0.00  0.00    +0.000 C 
ATOM     23  C   UNL     1      -3.871  -2.130  24.716  0.00  0.00    +0.000 C 
ATOM     24  C   UNL     1      -3.540  -1.699  25.336  0.00  0.00    +0.000 C 
ATOM     25  C   UNL     1      -3.451  -0.882  25.269  0.00  0.00    +0.001 C 
ENDBRANCH  19  20
ENDBRANCH  18  19
TORSDOF 4
ENDMDL
MODEL 3
REMARK VINA RESULT:     -12.8      2.190      5.469
REMARK  Name = 
REMARK  4 active torsions:
REMARK  status: ('A' for Active; 'I' for Inactive)
REMARK    1  A    between atoms: C_4  and  C_8
REMARK    2  A    between atoms: C_11  and  C_13
REMARK    3  A    between atoms: N_18  and  C_19
REMARK    4  A    between atoms: C_19  and  C_20
REMARK                            x       y       z     vdW  Elec       q    Type
REMARK                         _______ _______ _______ _____ _____    ______ ____
ROOT
ATOM     13  C   UNL     1      -0.856   0.618  24.903  0.00  0.00    +0.140 C 
ATOM     14  C   UNL     1      -0.212   0.337  24.470  0.00  0.00    +0.060 C 
ATOM     15  C   UNL     1      -0.404  -0.411  24.182  0.00  0.00    +0.170 C 
ATOM     16  O   UNL     1       0.081  -0.893  23.720  0.00  0.00    -0.222 OA
ATOM     17  C   UNL     1      -1.168  -0.593  24.436  0.00  0.00    +0.106 C 
ATOM     18  N   UNL     1      -1.447   0.043  24.882  0.00  0.00    -0.264 NA
ENDROOT
BRANCH  13  11
ATOM      8  C   UNL     1      -1.157   2.629  25.552  0.00  0.00    +0.203 A 
ATOM      9  N   UNL     1      -0.782   2.303  26.212  0.00  0.00    -0.056 NA
ATOM     10  O   UNL     1      -0.623   1.510  26.048  0.00  0.00    -0.336 OA
ATOM     11  C   UNL     1      -0.901   1.345  25.289  0.00  0.00    +0.251 A 
ATOM     12  N   UNL     1      -1.230   2.037  24.983  0.00  0.00    -0.190 NA
BRANCH   8   4
ATOM      1  C   UNL     1      -0.685   5.320  24.713  0.00  0.00    +0.031 C 
ATOM      2  C   UNL     1      -1.178   4.754  25.058  0.00  0.00    -0.022 A 
ATOM      3  C   UNL     1      -0.921   3.974  25.133  0.00  0.00    -0.001 A 
ATOM      4  C   UNL     1      -1.414   3.409  25.477  0.00  0.00    +0.039 A 
ATOM      5  C   UNL     1      -2.164   3.624  25.746  0.00  0.00    +0.003 A 
ATOM      6  C   UNL     1      -2.420   4.405  25.671  0.00  0.00    -0.000 A 
ATOM      7  C   UNL     1      -1.927   4.970  25.327  0.00  0.00    -0.004 A 
ENDBRANCH   8   4
ENDBRANCH  13  11
BRANCH  18  19
ATOM     19  C   UNL     1      -2.187   0.094  25.243  0.00  0.00    +0.073 C 
BRANCH  19  20
ATOM     20  C   UNL     1      -2.771  -0.460  25.067  0.00  0.00    +0.016 C 
ATOM     21  C   UNL     1      -3.279  -0.336  24.429  0.00  0.00    +0.001 C 
ATOM     22  C   UNL     1      -3.864  -0.891  24.253  0.00  0.00    +0.000 C 
ATOM     23  C   UNL     1      -3.941  -1.570  24.715  0.00  0.00    +0.000 C 
ATOM     24  C   UNL     1      -3.433  -1.694  25.353  0.00  0.00    +0.000 C 
ATOM     25  C   UNL     1      -2.849  -1.139  25.529  0.00  0.00    +0.001 C 
ENDBRANCH  19  20
ENDBRANCH  18  19
TORSDOF 4
ENDMDL
MODEL 4
REMARK VINA RESULT:     -12.6      1.813      5.307
REMARK  Name = 
REMARK  4 active torsions:
REMARK  status: ('A' for Active; 'I' for Inactive)
REMARK    1  A    between atoms: C_4  and  C_8
REMARK    2  A    between atoms: C_11  and  C_13
REMARK    3  A    between atoms: N_18  and  C_19
REMARK    4  A    between atoms: C_19  and  C_20
REMARK                            x       y       z     vdW  Elec       q    Type
REMARK                         _______ _______ _______ _____ _____    ______ ____
ROOT
ATOM     13  C   UNL     1      -1.453   0.467  24.380  0.00  0.00    +0.140 C 
ATOM     14  C   UNL     1      -0.665   0.249  24.273  0.00  0.00    +0.060 C 
ATOM     15  C   UNL     1      -0.607  -0.565  24.393  0.00  0.00    +0.170 C 
ATOM     16  O   UNL     1       0.083  -1.015  24.341  0.00  0.00    -0.222 OA
ATOM     17  C   UNL     1      -1.359  -0.850  24.575  0.00  0.00    +0.106 C 
ATOM     18  N   UNL     1      -1.883  -0.212  24.567  0.00  0.00    -0.264 NA
ENDROOT
BRANCH  13  11
ATOM      8  C   UNL     1      -2.091   2.494  24.589  0.00  0.00    +0.203 A 
ATOM      9  N   UNL     1      -2.365   2.318  23.831  0.00  0.00    -0.056 NA
ATOM     10  O   UNL     1      -2.159   1.537  23.660  0.00  0.00    -0.336 OA
ATOM     11  C   UNL     1      -1.758   1.231  24.313  0.00  0.00    +0.251 A 
ATOM     12  N   UNL     1      -1.716   1.822  24.887  0.00  0.00    -0.190 NA
BRANCH   8   4
ATOM      1  C   UNL     1      -1.197   5.163  25.084  0.00  0.00    +0.031 C 
ATOM      2  C   UNL     1      -1.730   4.549  25.228  0.00  0.00    -0.022 A 
ATOM      3  C   UNL     1      -1.644   3.828  24.837  0.00  0.00    -0.001 A 
ATOM      4  C   UNL     1      -2.176   3.215  24.981  0.00  0.00    +0.039 A 
ATOM      5  C   UNL     1      -2.795   3.322  25.516  0.00  0.00    +0.003 A 
ATOM      6  C   UNL     1      -2.881   4.044  25.907  0.00  0.00    -0.000 A 
ATOM      7  C   UNL     1      -2.348   4.658  25.763  0.00  0.00    -0.004 A 
ENDBRANCH   8   4
ENDBRANCH  13  11
BRANCH  18  19
ATOM     19  C   UNL     1      -2.693  -0.248  24.718  0.00  0.00    +0.073 C 
BRANCH  19  20
ATOM     20  C   UNL     1      -3.081  -0.975  24.717  0.00  0.00    +0.016 C 
ATOM     21  C   UNL     1      -3.076  -1.447  25.393  0.00  0.00    +0.001 C 
ATOM     22  C   UNL     1      -3.465  -2.175  25.391  0.00  0.00    +0.000 C 
ATOM     23  C   UNL     1      -3.859  -2.430  24.712  0.00  0.00    +0.000 C 
ATOM     24  C   UNL     1      -3.865  -1.957  24.036  0.00  0.00    +0.000 C 
ATOM     25  C   UNL     1      -3.476  -1.230  24.038  0.00  0.00    +0.001 C 
ENDBRANCH  19  20
ENDBRANCH  18  19
TORSDOF 4
ENDMDL
MODEL 5
REMARK VINA RESULT:     -12.3      2.017      2.785
REMARK  Name = 
REMARK  4 active torsions:
REMARK  status: ('A' for Active; 'I' for Inactive)
REMARK    1  A    between atoms: C_4  and  C_8
REMARK    2  A    between atoms: C_11  and  C_13
REMARK    3  A    between atoms: N_18  and  C_19
REMARK    4  A    between atoms: C_19  and  C_20
REMARK                            x       y       z     vdW  Elec       q    Type
REMARK                         _______ _______ _______ _____ _____    ______ ____
ROOT
ATOM     13  C   UNL     1      -0.942   1.003  24.884  0.00  0.00    +0.140 C 
ATOM     14  C   UNL     1      -0.203   0.924  24.526  0.00  0.00    +0.060 C 
ATOM     15  C   UNL     1       0.127   1.677  24.455  0.00  0.00    +0.170 C 
ATOM     16  O   UNL     1       0.863   1.855  24.127  0.00  0.00    -0.222 OA
ATOM     17  C   UNL     1      -0.408   2.221  24.769  0.00  0.00    +0.106 C 
ATOM     18  N   UNL     1      -1.069   1.804  25.035  0.00  0.00    -0.264 NA
ENDROOT
BRANCH  13  11
ATOM      8  C   UNL     1      -2.420  -0.537  24.951  0.00  0.00    +0.203 A 
ATOM      9  N   UNL     1      -2.109  -0.581  25.714  0.00  0.00    -0.056 NA
ATOM     10  O   UNL     1      -1.517  -0.010  25.782  0.00  0.00    -0.336 OA
ATOM     11  C   UNL     1      -1.463   0.388  25.061  0.00  0.00    +0.251 A 
ATOM     12  N   UNL     1      -2.021   0.062  24.548  0.00  0.00    -0.190 NA
BRANCH   8   4
ATOM      1  C   UNL     1      -3.513  -3.124  24.422  0.00  0.00    +0.031 C 
ATOM      2  C   UNL     1      -3.571  -2.301  24.381  0.00  0.00    -0.022 A 
ATOM      3  C   UNL     1      -2.966  -1.829  24.686  0.00  0.00    -0.001 A 
ATOM      4  C   UNL     1      -3.024  -1.008  24.645  0.00  0.00    +0.039 A 
ATOM      5  C   UNL     1      -3.685  -0.657  24.299  0.00  0.00    +0.003 A 
ATOM      6  C   UNL     1      -4.289  -1.128  23.993  0.00  0.00    -0.000 A 
ATOM      7  C   UNL     1      -4.232  -1.951  24.034  0.00  0.00    -0.004 A 
ENDBRANCH   8   4
ENDBRANCH  13  11
BRANCH  18  19
ATOM     19  C   UNL     1      -1.739   2.131  25.388  0.00  0.00    +0.073 C 
BRANCH  19  20
ATOM     20  C   UNL     1      -1.889   2.939  25.319  0.00  0.00    +0.016 C 
ATOM     21  C   UNL     1      -1.540   3.470  25.845  0.00  0.00    +0.001 C 
ATOM     22  C   UNL     1      -1.690   4.279  25.776  0.00  0.00    +0.000 C 
ATOM     23  C   UNL     1      -2.189   4.555  25.180  0.00  0.00    +0.000 C 
ATOM     24  C   UNL     1      -2.538   4.025  24.655  0.00  0.00    +0.000 C 
ATOM     25  C   UNL     1      -2.388   3.217  24.723  0.00  0.00    +0.001 C 
ENDBRANCH  19  20
ENDBRANCH  18  19
TORSDOF 4
ENDMDL
