MODEL 1
REMARK VINA RESULT:     -11.0      0.000      0.000
REMARK  Name = 
REMARK  7 active torsions:
REMARK  status: ('A' for Active; 'I' for Inactive)
REMARK    1  A    between atoms: N_2  and  C_4
REMARK    2  A    between atoms: C_8  and  O_9
REMARK    3  A    between atoms: O_9  and  C_10
REMARK    4  A    between atoms: N_14  and  C_15
REMARK    5  A    between atoms: C_19  and  N_23
REMARK    6  A    between atoms: N_23  and  S_24
REMARK    7  A    between atoms: S_24  and  C_27
REMARK                            x       y       z     vdW  Elec       q    Type
REMARK                         _______ _______ _______ _____ _____    ______ ____
ROOT
ATOM     15  C   UNL     1      -4.324   2.203  24.649  0.00  0.00    +0.170 C 
ATOM     16  C   UNL     1      -4.794   2.105  25.319  0.00  0.00    +0.169 C 
ATOM     17  O   UNL     1      -4.860   1.297  25.467  0.00  0.00    -0.350 OA
ATOM     18  C   UNL     1      -4.430   0.895  24.890  0.00  0.00    +0.164 C 
ATOM     19  C   UNL     1      -4.204   0.148  24.623  0.00  0.00    +0.157 C 
ATOM     20  C   UNL     1      -3.734   0.246  23.953  0.00  0.00    +0.164 C 
ATOM     21  O   UNL     1      -3.668   1.054  23.805  0.00  0.00    -0.350 OA
ATOM     22  C   UNL     1      -4.099   1.456  24.384  0.00  0.00    +0.169 C 
ENDROOT
BRANCH  15  14
ATOM     10  C   UNL     1      -3.549   3.452  24.591  0.00  0.00    +0.343 A 
ATOM     11  N   UNL     1      -3.519   4.097  24.077  0.00  0.00    -0.071 NA
ATOM     12  N   UNL     1      -4.066   3.967  23.472  0.00  0.00    -0.020 NA
ATOM     13  N   UNL     1      -4.434   3.242  23.613  0.00  0.00    -0.040 NA
ATOM     14  N   UNL     1      -4.114   2.924  24.304  0.00  0.00    -0.180 N 
BRANCH  10   9
ATOM      9  O   UNL     1      -3.094   3.353  25.272  0.00  0.00    -0.421 OA
BRANCH   9   8
ATOM      4  C   UNL     1      -0.912   3.376  25.289  0.00  0.00    +0.051 A 
ATOM      5  C   UNL     1      -0.764   4.187  25.332  0.00  0.00    +0.015 A 
ATOM      6  C   UNL     1      -1.393   4.720  25.355  0.00  0.00    +0.004 A 
ATOM      7  C   UNL     1      -2.170   4.441  25.335  0.00  0.00    +0.038 A 
ATOM      8  C   UNL     1      -2.317   3.631  25.292  0.00  0.00    +0.150 A 
ATOM     32  C   UNL     1      -1.688   3.098  25.269  0.00  0.00    +0.052 A 
BRANCH   4   2
ATOM      1  C   UNL     1      -0.013   2.553  24.542  0.00  0.00    +0.112 C 
ATOM      2  N   UNL     1      -0.282   2.842  25.266  0.00  0.00    -0.304 N 
ATOM      3  C   UNL     1       0.078   2.599  25.967  0.00  0.00    +0.112 C 
ENDBRANCH   4   2
ENDBRANCH   9   8
ENDBRANCH  10   9
ENDBRANCH  15  14
BRANCH  19  23
ATOM     23  N   UNL     1      -4.414  -0.573  24.968  0.00  0.00    -0.074 NA
BRANCH  23  24
ATOM     24  S   UNL     1      -3.973  -1.251  24.805  0.00  0.00    +0.083 S 
ATOM     25  O   UNL     1      -3.516  -1.114  25.478  0.00  0.00    -0.151 OA
ATOM     26  O   UNL     1      -4.431  -1.388  24.133  0.00  0.00    -0.151 OA
BRANCH  24  27
ATOM     27  C   UNL     1      -3.532  -1.929  24.644  0.00  0.00    +0.153 A 
ATOM     28  C   UNL     1      -3.804  -2.602  24.252  0.00  0.00    +0.027 A 
ATOM     29  C   UNL     1      -3.182  -3.143  24.212  0.00  0.00    +0.009 A 
ATOM     30  C   UNL     1      -2.526  -2.804  24.579  0.00  0.00    +0.037 A 
ATOM     31  S   UNL     1      -2.742  -2.054  24.847  0.00  0.00    -0.067 S 
ENDBRANCH  24  27
ENDBRANCH  23  24
ENDBRANCH  19  23
TORSDOF 7
ENDMDL
MODEL 2
REMARK VINA RESULT:     -10.8      1.760      3.195
REMARK  Name = 
REMARK  7 active torsions:
REMARK  status: ('A' for Active; 'I' for Inactive)
REMARK    1  A    between atoms: N_2  and  C_4
REMARK    2  A    between atoms: C_8  and  O_9
REMARK    3  A    between atoms: O_9  and  C_10
REMARK    4  A    between atoms: N_14  and  C_15
REMARK    5  A    between atoms: C_19  and  N_23
REMARK    6  A    between atoms: N_23  and  S_24
REMARK    7  A    between atoms: S_24  and  C_27
REMARK                            x       y       z     vdW  Elec       q    Type
REMARK                         _______ _______ _______ _____ _____    ______ ____
ROOT
ATOM     15  C   UNL     1      -0.190   1.327  25.019  0.00  0.00    +0.170 C 
ATOM     16  C   UNL     1       0.049   1.240  24.235  0.00  0.00    +0.169 C 
ATOM     17  O   UNL     1      -0.251   0.525  23.955  0.00  0.00    -0.350 OA
ATOM     18  C   UNL     1      -0.675   0.169  24.566  0.00  0.00    +0.164 C 
ATOM     19  C   UNL     1      -1.123  -0.492  24.772  0.00  0.00    +0.157 C 
ATOM     20  C   UNL     1      -1.362  -0.405  25.557  0.00  0.00    +0.164 C 
ATOM     21  O   UNL     1      -1.062   0.310  25.836  0.00  0.00    -0.350 OA
ATOM     22  C   UNL     1      -0.637   0.666  25.224  0.00  0.00    +0.169 C 
ENDROOT
BRANCH  15  14
ATOM     10  C   UNL     1      -0.322   2.727  25.449  0.00  0.00    +0.343 A 
ATOM     11  N   UNL     1       0.005   3.185  26.053  0.00  0.00    -0.071 NA
ATOM     12  N   UNL     1       0.516   2.706  26.489  0.00  0.00    -0.020 NA
ATOM     13  N   UNL     1       0.505   1.952  26.155  0.00  0.00    -0.040 NA
ATOM     14  N   UNL     1      -0.013   1.965  25.512  0.00  0.00    -0.180 N 
BRANCH  10   9
ATOM      9  O   UNL     1      -0.863   2.986  24.883  0.00  0.00    -0.421 OA
BRANCH   9   8
ATOM      4  C   UNL     1      -2.608   4.160  25.463  0.00  0.00    +0.051 A 
ATOM      5  C   UNL     1      -2.321   4.927  25.362  0.00  0.00    +0.015 A 
ATOM      6  C   UNL     1      -1.548   5.047  25.102  0.00  0.00    +0.004 A 
ATOM      7  C   UNL     1      -1.062   4.399  24.942  0.00  0.00    +0.038 A 
ATOM      8  C   UNL     1      -1.349   3.633  25.042  0.00  0.00    +0.150 A 
ATOM     32  C   UNL     1      -2.122   3.513  25.303  0.00  0.00    +0.052 A 
BRANCH   4   2
ATOM      1  C   UNL     1      -3.968   3.819  25.186  0.00  0.00    +0.112 C 
ATOM      2  N   UNL     1      -3.382   4.040  25.723  0.00  0.00    -0.304 N 
ATOM      3  C   UNL     1      -3.569   4.141  26.520  0.00  0.00    +0.112 C 
ENDBRANCH   4   2
ENDBRANCH   9   8
ENDBRANCH  10   9
ENDBRANCH  15  14
BRANCH  19  23
ATOM     23  N   UNL     1      -1.300  -1.130  24.279  0.00  0.00    -0.074 NA
BRANCH  23  24
ATOM     24  S   UNL     1      -2.028  -1.514  24.346  0.00  0.00    +0.083 S 
ATOM     25  O   UNL     1      -1.677  -2.094  24.816  0.00  0.00    -0.151 OA
ATOM     26  O   UNL     1      -2.377  -0.933  23.876  0.00  0.00    -0.151 OA
BRANCH  24  27
ATOM     27  C   UNL     1      -2.754  -1.898  24.413  0.00  0.00    +0.153 A 
ATOM     28  C   UNL     1      -3.491  -1.577  24.224  0.00  0.00    +0.027 A 
ATOM     29  C   UNL     1      -4.065  -2.151  24.375  0.00  0.00    +0.009 A 
ATOM     30  C   UNL     1      -3.682  -2.825  24.657  0.00  0.00    +0.037 A 
ATOM     31  S   UNL     1      -2.873  -2.669  24.681  0.00  0.00    -0.067 S 
ENDBRANCH  24  27
ENDBRANCH  23  24
ENDBRANCH  19  23
TORSDOF 7
ENDMDL
MODEL 3
REMARK VINA RESULT:     -10.1      1.516      2.909
REMARK  Name = 
REMARK  7 active torsions:
REMARK  status: ('A' for Active; 'I' for Inactive)
REMARK    1  A    between atoms: N_2  and  C_4
REMARK    2  A    between atoms: C_8  and  O_9
REMARK    3  A    between atoms: O_9  and  C_10
REMARK    4  A    between atoms: N_14  and  C_15
REMARK    5  A    between atoms: C_19  and  N_23
REMARK    6  A    between atoms: N_23  and  S_24
REMARK    7  A    between atoms: S_24  and  C_27
REMARK                            x       y       z     vdW  Elec       q    Type
REMARK                         _______ _______ _______ _____ _____    ______ ____
ROOT
ATOM     15  C   UNL     1      -0.617   1.106  25.208  0.00  0.00    +0.170 C 
ATOM     16  C   UNL     1      -0.558   0.863  25.994  0.00  0.00    +0.169 C 
ATOM     17  O   UNL     1      -0.924   0.127  26.061  0.00  0.00    -0.350 OA
ATOM     18  C   UNL     1      -1.208  -0.086  25.318  0.00  0.00    +0.164 C 
ATOM     19  C   UNL     1      -1.611  -0.671  24.898  0.00  0.00    +0.157 C 
ATOM     20  C   UNL     1      -1.670  -0.429  24.112  0.00  0.00    +0.164 C 
ATOM     21  O   UNL     1      -1.304   0.307  24.045  0.00  0.00    -0.350 OA
ATOM     22  C   UNL     1      -1.019   0.520  24.790  0.00  0.00    +0.169 C 
ENDROOT
BRANCH  15  14
ATOM     10  C   UNL     1      -0.594   2.569  25.075  0.00  0.00    +0.343 A 
ATOM     11  N   UNL     1      -0.148   3.109  24.639  0.00  0.00    -0.071 NA
ATOM     12  N   UNL     1       0.399   2.684  24.189  0.00  0.00    -0.020 NA
ATOM     13  N   UNL     1       0.289   1.882  24.348  0.00  0.00    -0.040 NA
ATOM     14  N   UNL     1      -0.324   1.811  24.895  0.00  0.00    -0.180 N 
BRANCH  10   9
ATOM      9  O   UNL     1      -1.204   2.756  25.599  0.00  0.00    -0.421 OA
BRANCH   9   8
ATOM      4  C   UNL     1      -2.980   3.892  25.035  0.00  0.00    +0.051 A 
ATOM      5  C   UNL     1      -2.704   4.665  25.119  0.00  0.00    +0.015 A 
ATOM      6  C   UNL     1      -1.929   4.802  25.364  0.00  0.00    +0.004 A 
ATOM      7  C   UNL     1      -1.429   4.165  25.524  0.00  0.00    +0.038 A 
ATOM      8  C   UNL     1      -1.704   3.393  25.439  0.00  0.00    +0.150 A 
ATOM     32  C   UNL     1      -2.480   3.256  25.195  0.00  0.00    +0.052 A 
BRANCH   4   2
ATOM      1  C   UNL     1      -4.377   3.830  25.329  0.00  0.00    +0.112 C 
ATOM      2  N   UNL     1      -3.756   3.755  24.790  0.00  0.00    -0.304 N 
ATOM      3  C   UNL     1      -3.911   3.543  24.009  0.00  0.00    +0.112 C 
ENDBRANCH   4   2
ENDBRANCH   9   8
ENDBRANCH  10   9
ENDBRANCH  15  14
BRANCH  19  23
ATOM     23  N   UNL     1      -1.903  -1.377  25.211  0.00  0.00    -0.074 NA
BRANCH  23  24
ATOM     24  S   UNL     1      -2.561  -1.739  24.869  0.00  0.00    +0.083 S 
ATOM     25  O   UNL     1      -3.056  -1.310  25.371  0.00  0.00    -0.151 OA
ATOM     26  O   UNL     1      -2.065  -2.167  24.368  0.00  0.00    -0.151 OA
BRANCH  24  27
ATOM     27  C   UNL     1      -3.219  -2.100  24.528  0.00  0.00    +0.153 A 
ATOM     28  C   UNL     1      -3.893  -1.714  24.248  0.00  0.00    +0.027 A 
ATOM     29  C   UNL     1      -4.410  -2.286  23.954  0.00  0.00    +0.009 A 
ATOM     30  C   UNL     1      -4.056  -3.024  24.052  0.00  0.00    +0.037 A 
ATOM     31  S   UNL     1      -3.320  -2.910  24.407  0.00  0.00    -0.067 S 
ENDBRANCH  24  27
ENDBRANCH  23  24
ENDBRANCH  19  23
TORSDOF 7
ENDMDL
MODEL 4
REMARK VINA RESULT:     -10.1      2.144      5.155
REMARK  Name = 
REMARK  7 active torsions:
REMARK  status: ('A' for Active; 'I' for Inactive)
REMARK    1  A    between atoms: N_2  and  C_4
REMARK    2  A    between atoms: C_8  and  O_9
REMARK    3  A    between atoms: O_9  and  C_10
REMARK    4  A    between atoms: N_14  and  C_15
REMARK    5  A    between atoms: C_19  and  N_23
REMARK    6  A    between atoms: N_23  and  S_24
REMARK    7  A    between atoms: S_24  and  C_27
REMARK                            x       y       z     vdW  Elec       q    Type
REMARK                         _______ _______ _______ _____ _____    ______ ____
ROOT
ATOM     15  C   UNL     1      -0.863   1.369  24.752  0.00  0.00    +0.170 C 
ATOM     16  C   UNL     1      -0.672   1.632  25.510  0.00  0.00    +0.169 C 
ATOM     17  O   UNL     1      -1.173   2.260  25.696  0.00  0.00    -0.350 OA
ATOM     18  C   UNL     1      -1.675   2.385  25.054  0.00  0.00    +0.164 C 
ATOM     19  C   UNL     1      -2.295   2.850  24.770  0.00  0.00    +0.157 C 
ATOM     20  C   UNL     1      -2.486   2.587  24.013  0.00  0.00    +0.164 C 
ATOM     21  O   UNL     1      -1.985   1.959  23.827  0.00  0.00    -0.350 OA
ATOM     22  C   UNL     1      -1.483   1.834  24.470  0.00  0.00    +0.169 C 
ENDROOT
BRANCH  15  14
ATOM     10  C   UNL     1      -0.628  -0.055  24.476  0.00  0.00    +0.343 A 
ATOM     11  N   UNL     1      -0.150  -0.477  23.951  0.00  0.00    -0.071 NA
ATOM     12  N   UNL     1       0.274   0.068  23.499  0.00  0.00    -0.020 NA
ATOM     13  N   UNL     1       0.059   0.825  23.744  0.00  0.00    -0.040 NA
ATOM     14  N   UNL     1      -0.499   0.749  24.348  0.00  0.00    -0.180 N 
BRANCH  10   9
ATOM      9  O   UNL     1      -1.144  -0.382  25.031  0.00  0.00    -0.421 OA
BRANCH   9   8
ATOM      4  C   UNL     1      -2.629  -1.902  24.537  0.00  0.00    +0.051 A 
ATOM      5  C   UNL     1      -2.178  -2.590  24.608  0.00  0.00    +0.015 A 
ATOM      6  C   UNL     1      -1.383  -2.542  24.821  0.00  0.00    +0.004 A 
ATOM      7  C   UNL     1      -1.038  -1.805  24.962  0.00  0.00    +0.038 A 
ATOM      8  C   UNL     1      -1.488  -1.118  24.890  0.00  0.00    +0.150 A 
ATOM     32  C   UNL     1      -2.284  -1.167  24.677  0.00  0.00    +0.052 A 
BRANCH   4   2
ATOM      1  C   UNL     1      -3.780  -2.689  24.221  0.00  0.00    +0.112 C 
ATOM      2  N   UNL     1      -3.425  -1.951  24.324  0.00  0.00    -0.304 N 
ATOM      3  C   UNL     1      -3.865  -1.263  24.214  0.00  0.00    +0.112 C 
ENDBRANCH   4   2
ENDBRANCH   9   8
ENDBRANCH  10   9
ENDBRANCH  15  14
BRANCH  19  23
ATOM     23  N   UNL     1      -2.659   3.470  25.175  0.00  0.00    -0.074 NA
BRANCH  23  24
ATOM     24  S   UNL     1      -3.477   3.470  25.281  0.00  0.00    +0.083 S 
ATOM     25  O   UNL     1      -3.377   3.182  26.047  0.00  0.00    -0.151 OA
ATOM     26  O   UNL     1      -3.577   3.757  24.514  0.00  0.00    -0.151 OA
BRANCH  24  27
ATOM     27  C   UNL     1      -4.296   3.469  25.387  0.00  0.00    +0.153 A 
ATOM     28  C   UNL     1      -4.751   2.826  25.631  0.00  0.00    +0.027 A 
ATOM     29  C   UNL     1      -5.539   3.070  25.664  0.00  0.00    +0.009 A 
ATOM     30  C   UNL     1      -5.569   3.863  25.439  0.00  0.00    +0.037 A 
ATOM     31  S   UNL     1      -4.801   4.110  25.269  0.00  0.00    -0.067 S 
ENDBRANCH  24  27
ENDBRANCH  23  24
ENDBRANCH  19  23
TORSDOF 7
ENDMDL
MODEL 5
REMARK VINA RESULT:      -9.5      2.485      5.660
REMARK  Name = 
REMARK  7 active torsions:
REMARK  status: ('A' for Active; 'I' for Inactive)
REMARK    1  A    between atoms: N_2  and  C_4
REMARK    2  A    between atoms: C_8  and  O_9
REMARK    3  A    between atoms: O_9  and  C_10
REMARK    4  A    between atoms: N_14  and  C_15
REMARK    5  A    between atoms: C_19  and  N_23
REMARK    6  A    between atoms: N_23  and  S_24
REMARK    7  A    between atoms: S_24  and  C_27
REMARK                            x       y       z     vdW  Elec       q    Type
REMARK                         _______ _______ _______ _____ _____    ______ ____
ROOT
ATOM     15  C   UNL     1      -0.577  -0.027  24.593  0.00  0.00    +0.170 C 
ATOM     16  C   UNL     1      -0.216   0.151  23.873  0.00  0.00    +0.169 C 
ATOM     17  O   UNL     1      -0.012   0.950  23.882  0.00  0.00    -0.350 OA
ATOM     18  C   UNL     1      -0.246   1.266  24.606  0.00  0.00    +0.164 C 
ATOM     19  C   UNL     1      -0.265   1.955  25.061  0.00  0.00    +0.157 C 
ATOM     20  C   UNL     1      -0.627   1.777  25.780  0.00  0.00    +0.164 C 
ATOM     21  O   UNL     1      -0.831   0.978  25.772  0.00  0.00    -0.350 OA
ATOM     22  C   UNL     1      -0.596   0.662  25.046  0.00  0.00    +0.169 C 
ENDROOT
BRANCH  15  14
ATOM     10  C   UNL     1      -1.568  -1.112  24.553  0.00  0.00    +0.343 A 
ATOM     11  N   UNL     1      -1.644  -1.847  24.922  0.00  0.00    -0.071 NA
ATOM     12  N   UNL     1      -0.991  -1.953  25.416  0.00  0.00    -0.020 NA
ATOM     13  N   UNL     1      -0.513  -1.284  25.353  0.00  0.00    -0.040 NA
ATOM     14  N   UNL     1      -0.869  -0.765  24.820  0.00  0.00    -0.180 N 
BRANCH  10   9
ATOM      9  O   UNL     1      -2.098  -0.784  24.013  0.00  0.00    -0.421 OA
BRANCH   9   8
ATOM      4  C   UNL     1      -4.138  -0.223  24.547  0.00  0.00    +0.051 A 
ATOM      5  C   UNL     1      -4.534  -0.936  24.423  0.00  0.00    +0.015 A 
ATOM      6  C   UNL     1      -4.118  -1.599  24.162  0.00  0.00    +0.004 A 
ATOM      7  C   UNL     1      -3.305  -1.548  24.026  0.00  0.00    +0.038 A 
ATOM      8  C   UNL     1      -2.910  -0.835  24.150  0.00  0.00    +0.150 A 
ATOM     32  C   UNL     1      -3.326  -0.173  24.410  0.00  0.00    +0.052 A 
BRANCH   4   2
ATOM      1  C   UNL     1      -4.393   1.182  24.484  0.00  0.00    +0.112 C 
ATOM      2  N   UNL     1      -4.555   0.440  24.808  0.00  0.00    -0.304 N 
ATOM      3  C   UNL     1      -5.132   0.361  25.391  0.00  0.00    +0.112 C 
ENDBRANCH   4   2
ENDBRANCH   9   8
ENDBRANCH  10   9
ENDBRANCH  15  14
BRANCH  19  23
ATOM     23  N   UNL     1       0.026   2.693  24.834  0.00  0.00    -0.074 NA
BRANCH  23  24
ATOM     24  S   UNL     1      -0.439   3.368  24.929  0.00  0.00    +0.083 S 
ATOM     25  O   UNL     1      -0.231   3.397  25.727  0.00  0.00    -0.151 OA
ATOM     26  O   UNL     1      -0.646   3.338  24.131  0.00  0.00    -0.151 OA
BRANCH  24  27
ATOM     27  C   UNL     1      -0.903   4.042  25.026  0.00  0.00    +0.153 A 
ATOM     28  C   UNL     1      -0.687   4.812  24.823  0.00  0.00    +0.027 A 
ATOM     29  C   UNL     1      -1.315   5.312  25.014  0.00  0.00    +0.009 A 
ATOM     30  C   UNL     1      -1.919   4.850  25.334  0.00  0.00    +0.037 A 
ATOM     31  S   UNL     1      -1.665   4.066  25.341  0.00  0.00    -0.067 S 
ENDBRANCH  24  27
ENDBRANCH  23  24
ENDBRANCH  19  23
TORSDOF 7
ENDMDL
MODEL 6
REMARK VINA RESULT:      -9.2      2.267      4.428
REMARK  Name = 
REMARK  7 active torsions:
REMARK  status: ('A' for Active; 'I' for Inactive)
REMARK    1  A    between atoms: N_2  and  C_4
REMARK    2  A    between atoms: C_8  and  O_9
REMARK    3  A    between atoms: O_9  and  C_10
REMARK    4  A    between atoms: N_14  and  C_15
REMARK    5  A    between atoms: C_19  and  N_23
REMARK    6  A    between atoms: N_23  and  S_24
REMARK    7  A    between atoms: S_24  and  C_27
REMARK                            x       y       z     vdW  Elec       q    Type
REMARK                         _______ _______ _______ _____ _____    ______ ____
ROOT
ATOM     15  C   UNL     1      -1.274   2.883  24.636  0.00  0.00    +0.170 C 
ATOM     16  C   UNL     1      -1.474   3.224  23.912  0.00  0.00    +0.169 C 
ATOM     17  O   UNL     1      -2.268   3.442  23.946  0.00  0.00    -0.350 OA
ATOM     18  C   UNL     1      -2.559   3.237  24.689  0.00  0.00    +0.164 C 
ATOM     19  C   UNL     1      -3.230   3.244  25.169  0.00  0.00    +0.157 C 
ATOM     20  C   UNL     1      -3.029   2.903  25.893  0.00  0.00    +0.164 C 
ATOM     21  O   UNL     1      -2.235   2.684  25.860  0.00  0.00    -0.350 OA
ATOM     22  C   UNL     1      -1.944   2.891  25.116  0.00  0.00    +0.169 C 
ENDROOT
BRANCH  15  14
ATOM     10  C   UNL     1      -0.181   1.905  24.540  0.00  0.00    +0.343 A 
ATOM     11  N   UNL     1       0.557   1.816  24.900  0.00  0.00    -0.071 NA
ATOM     12  N   UNL     1       0.661   2.443  25.426  0.00  0.00    -0.020 NA
ATOM     13  N   UNL     1      -0.012   2.919  25.391  0.00  0.00    -0.040 NA
ATOM     14  N   UNL     1      -0.532   2.586  24.843  0.00  0.00    -0.180 N 
BRANCH  10   9
ATOM      9  O   UNL     1      -0.508   1.400  23.975  0.00  0.00    -0.421 OA
BRANCH   9   8
ATOM      4  C   UNL     1      -0.418  -0.751  24.328  0.00  0.00    +0.051 A 
ATOM      5  C   UNL     1       0.224  -0.961  23.855  0.00  0.00    +0.015 A 
ATOM      6  C   UNL     1       0.622  -0.383  23.421  0.00  0.00    +0.004 A 
ATOM      7  C   UNL     1       0.378   0.404  23.461  0.00  0.00    +0.038 A 
ATOM      8  C   UNL     1      -0.264   0.613  23.935  0.00  0.00    +0.150 A 
ATOM     32  C   UNL     1      -0.662   0.035  24.369  0.00  0.00    +0.052 A 
BRANCH   4   2
ATOM      1  C   UNL     1      -1.497  -1.680  24.455  0.00  0.00    +0.112 C 
ATOM      2  N   UNL     1      -0.817  -1.330  24.763  0.00  0.00    -0.304 N 
ATOM      3  C   UNL     1      -0.534  -1.557  25.503  0.00  0.00    +0.112 C 
ENDBRANCH   4   2
ENDBRANCH   9   8
ENDBRANCH  10   9
ENDBRANCH  15  14
BRANCH  19  23
ATOM     23  N   UNL     1      -3.971   3.541  24.962  0.00  0.00    -0.074 NA
BRANCH  23  24
ATOM     24  S   UNL     1      -4.650   3.092  25.102  0.00  0.00    +0.083 S 
ATOM     25  O   UNL     1      -4.602   2.783  24.339  0.00  0.00    -0.151 OA
ATOM     26  O   UNL     1      -4.696   3.401  25.866  0.00  0.00    -0.151 OA
BRANCH  24  27
ATOM     27  C   UNL     1      -5.328   2.643  25.242  0.00  0.00    +0.153 A 
ATOM     28  C   UNL     1      -5.617   2.041  24.758  0.00  0.00    +0.027 A 
ATOM     29  C   UNL     1      -6.304   1.743  25.106  0.00  0.00    +0.009 A 
ATOM     30  C   UNL     1      -6.438   2.162  25.804  0.00  0.00    +0.037 A 
ATOM     31  S   UNL     1      -5.835   2.718  25.888  0.00  0.00    -0.067 S 
ENDBRANCH  24  27
ENDBRANCH  23  24
ENDBRANCH  19  23
TORSDOF 7
ENDMDL
MODEL 7
REMARK VINA RESULT:      -9.1      1.925      4.669
REMARK  Name = 
REMARK  7 active torsions:
REMARK  status: ('A' for Active; 'I' for Inactive)
REMARK    1  A    between atoms: N_2  and  C_4
REMARK    2  A    between atoms: C_8  and  O_9
REMARK    3  A    between atoms: O_9  and  C_10
REMARK    4  A    between atoms: N_14  and  C_15
REMARK    5  A    between atoms: C_19  and  N_23
REMARK    6  A    between atoms: N_23  and  S_24
REMARK    7  A    between atoms: S_24  and  C_27
REMARK                            x       y       z     vdW  Elec       q    Type
REMARK                         _______ _______ _______ _____ _____    ______ ____
ROOT
ATOM     15  C   UNL     1      -4.261   0.140  24.700  0.00  0.00    +0.170 C 
ATOM     16  C   UNL     1      -4.641   0.308  25.412  0.00  0.00    +0.169 C 
ATOM     17  O   UNL     1      -4.659   1.127  25.504  0.00  0.00    -0.350 OA
ATOM     18  C   UNL     1      -4.291   1.466  24.849  0.00  0.00    +0.164 C 
ATOM     19  C   UNL     1      -4.075   2.181  24.499  0.00  0.00    +0.157 C 
ATOM     20  C   UNL     1      -3.695   2.013  23.786  0.00  0.00    +0.164 C 
ATOM     21  O   UNL     1      -3.677   1.194  23.695  0.00  0.00    -0.350 OA
ATOM     22  C   UNL     1      -4.045   0.855  24.351  0.00  0.00    +0.169 C 
ENDROOT
BRANCH  15  14
ATOM     10  C   UNL     1      -3.504  -1.117  24.601  0.00  0.00    +0.343 A 
ATOM     11  N   UNL     1      -3.576  -1.808  24.156  0.00  0.00    -0.071 NA
ATOM     12  N   UNL     1      -4.238  -1.731  23.670  0.00  0.00    -0.020 NA
ATOM     13  N   UNL     1      -4.575  -0.992  23.814  0.00  0.00    -0.040 NA
ATOM     14  N   UNL     1      -4.121  -0.612  24.390  0.00  0.00    -0.180 N 
BRANCH  10   9
ATOM      9  O   UNL     1      -2.918  -0.958  25.159  0.00  0.00    -0.421 OA
BRANCH   9   8
ATOM      4  C   UNL     1      -0.810  -0.931  24.593  0.00  0.00    +0.051 A 
ATOM      5  C   UNL     1      -0.594  -1.710  24.758  0.00  0.00    +0.015 A 
ATOM      6  C   UNL     1      -1.152  -2.239  25.057  0.00  0.00    +0.004 A 
ATOM      7  C   UNL     1      -1.927  -1.988  25.191  0.00  0.00    +0.038 A 
ATOM      8  C   UNL     1      -2.143  -1.209  25.026  0.00  0.00    +0.150 A 
ATOM     32  C   UNL     1      -1.584  -0.681  24.727  0.00  0.00    +0.052 A 
BRANCH   4   2
ATOM      1  C   UNL     1      -0.209   0.365  24.594  0.00  0.00    +0.112 C 
ATOM      2  N   UNL     1      -0.251  -0.402  24.294  0.00  0.00    -0.304 N 
ATOM      3  C   UNL     1       0.264  -0.641  23.696  0.00  0.00    +0.112 C 
ENDBRANCH   4   2
ENDBRANCH   9   8
ENDBRANCH  10   9
ENDBRANCH  15  14
BRANCH  19  23
ATOM     23  N   UNL     1      -4.215   2.933  24.809  0.00  0.00    -0.074 NA
BRANCH  23  24
ATOM     24  S   UNL     1      -3.582   3.438  24.967  0.00  0.00    +0.083 S 
ATOM     25  O   UNL     1      -3.514   3.604  24.162  0.00  0.00    -0.151 OA
ATOM     26  O   UNL     1      -3.650   3.272  25.772  0.00  0.00    -0.151 OA
BRANCH  24  27
ATOM     27  C   UNL     1      -2.949   3.944  25.124  0.00  0.00    +0.153 A 
ATOM     28  C   UNL     1      -2.646   4.515  24.611  0.00  0.00    +0.027 A 
ATOM     29  C   UNL     1      -2.018   4.891  24.992  0.00  0.00    +0.009 A 
ATOM     30  C   UNL     1      -1.933   4.552  25.739  0.00  0.00    +0.037 A 
ATOM     31  S   UNL     1      -2.508   3.967  25.821  0.00  0.00    -0.067 S 
ENDBRANCH  24  27
ENDBRANCH  23  24
ENDBRANCH  19  23
TORSDOF 7
ENDMDL
