MODEL 1
REMARK VINA RESULT:      -9.6      0.000      0.000
REMARK  Name = 
REMARK  5 active torsions:
REMARK  status: ('A' for Active; 'I' for Inactive)
REMARK    1  A    between atoms: N_2  and  C_4
REMARK    2  A    between atoms: C_7  and  C_8
REMARK    3  A    between atoms: C_8  and  N_9
REMARK    4  A    between atoms: N_9  and  S_10
REMARK    5  A    between atoms: S_10  and  C_13
REMARK                            x       y       z     vdW  Elec       q    Type
REMARK                         _______ _______ _______ _____ _____    ______ ____
ROOT
ATOM      9  N   UNL     1      -3.988   0.907  24.641  0.00  0.00    -0.075 NA
ENDROOT
BRANCH   9  10
ATOM     10  S   UNL     1      -3.925   0.086  24.592  0.00  0.00    +0.077 S 
ATOM     11  O   UNL     1      -3.600   0.156  23.837  0.00  0.00    -0.152 OA
ATOM     12  O   UNL     1      -4.250   0.017  25.348  0.00  0.00    -0.152 OA
BRANCH  10  13
ATOM     13  C   UNL     1      -3.861  -0.734  24.544  0.00  0.00    +0.124 A 
ATOM     14  C   UNL     1      -4.231  -1.141  23.928  0.00  0.00    +0.020 A 
ATOM     15  C   UNL     1      -4.168  -1.962  23.879  0.00  0.00    -0.003 A 
ATOM     16  C   UNL     1      -3.735  -2.377  24.447  0.00  0.00    -0.022 A 
ATOM     17  C   UNL     1      -3.672  -3.198  24.398  0.00  0.00    +0.031 C 
ATOM     18  C   UNL     1      -3.365  -1.971  25.061  0.00  0.00    -0.003 A 
ATOM     19  C   UNL     1      -3.429  -1.149  25.110  0.00  0.00    +0.020 A 
ENDBRANCH  10  13
ENDBRANCH   9  10
BRANCH   9   8
ATOM      8  C   UNL     1      -3.307   1.374  24.640  0.00  0.00    +0.148 C 
BRANCH   8   7
ATOM      4  C   UNL     1      -3.073   3.430  25.166  0.00  0.00    +0.121 C 
ATOM      5  C   UNL     1      -3.826   3.436  24.831  0.00  0.00    +0.161 C 
ATOM      6  O   UNL     1      -4.006   2.667  24.593  0.00  0.00    -0.351 OA
ATOM      7  C   UNL     1      -3.363   2.185  24.782  0.00  0.00    +0.166 C 
ATOM     20  C   UNL     1      -2.786   2.656  25.136  0.00  0.00    +0.197 C 
ATOM     21  O   UNL     1      -2.053   2.400  25.411  0.00  0.00    -0.219 OA
BRANCH   4   2
ATOM      1  C   UNL     1      -2.104   4.471  25.028  0.00  0.00    +0.090 C 
ATOM      2  N   UNL     1      -2.675   4.082  25.478  0.00  0.00    -0.267 NA
ATOM      3  C   UNL     1      -2.849   4.347  26.239  0.00  0.00    +0.090 C 
ENDBRANCH   4   2
ENDBRANCH   8   7
ENDBRANCH   9   8
TORSDOF 5
ENDMDL
MODEL 2
REMARK VINA RESULT:      -8.6      1.238      4.940
REMARK  Name = 
REMARK  5 active torsions:
REMARK  status: ('A' for Active; 'I' for Inactive)
REMARK    1  A    between atoms: N_2  and  C_4
REMARK    2  A    between atoms: C_7  and  C_8
REMARK    3  A    between atoms: C_8  and  N_9
REMARK    4  A    between atoms: N_9  and  S_10
REMARK    5  A    between atoms: S_10  and  C_13
REMARK                            x       y       z     vdW  Elec       q    Type
REMARK                         _______ _______ _______ _____ _____    ______ ____
ROOT
ATOM      9  N   UNL     1      -3.149   2.006  24.924  0.00  0.00    -0.075 NA
ENDROOT
BRANCH   9  10
ATOM     10  S   UNL     1      -2.651   2.663  24.931  0.00  0.00    +0.077 S 
ATOM     11  O   UNL     1      -2.426   2.485  25.704  0.00  0.00    -0.152 OA
ATOM     12  O   UNL     1      -2.876   2.841  24.157  0.00  0.00    -0.152 OA
BRANCH  10  13
ATOM     13  C   UNL     1      -2.153   3.321  24.938  0.00  0.00    +0.124 A 
ATOM     14  C   UNL     1      -1.379   3.255  24.659  0.00  0.00    +0.020 A 
ATOM     15  C   UNL     1      -0.880   3.912  24.666  0.00  0.00    -0.003 A 
ATOM     16  C   UNL     1      -1.157   4.636  24.951  0.00  0.00    -0.022 A 
ATOM     17  C   UNL     1      -0.658   5.294  24.958  0.00  0.00    +0.031 C 
ATOM     18  C   UNL     1      -1.930   4.702  25.229  0.00  0.00    -0.003 A 
ATOM     19  C   UNL     1      -2.428   4.044  25.223  0.00  0.00    +0.020 A 
ENDBRANCH  10  13
ENDBRANCH   9  10
BRANCH   9   8
ATOM      8  C   UNL     1      -2.844   1.260  24.743  0.00  0.00    +0.148 C 
BRANCH   8   7
ATOM      4  C   UNL     1      -3.774  -0.661  24.690  0.00  0.00    +0.121 C 
ATOM      5  C   UNL     1      -4.409  -0.183  24.911  0.00  0.00    +0.161 C 
ATOM      6  O   UNL     1      -4.138   0.595  24.958  0.00  0.00    -0.351 OA
ATOM      7  C   UNL     1      -3.335   0.597  24.766  0.00  0.00    +0.166 C 
ATOM     20  C   UNL     1      -3.110  -0.179  24.600  0.00  0.00    +0.197 C 
ATOM     21  O   UNL     1      -2.355  -0.429  24.383  0.00  0.00    -0.219 OA
BRANCH   4   2
ATOM      1  C   UNL     1      -4.134  -1.791  23.893  0.00  0.00    +0.090 C 
ATOM      2  N   UNL     1      -3.799  -1.478  24.578  0.00  0.00    -0.267 NA
ATOM      3  C   UNL     1      -3.487  -1.983  25.152  0.00  0.00    +0.090 C 
ENDBRANCH   4   2
ENDBRANCH   8   7
ENDBRANCH   9   8
TORSDOF 5
ENDMDL
