MODEL 1
REMARK VINA RESULT:     -13.4      0.000      0.000
REMARK  Name = 
REMARK  6 active torsions:
REMARK  status: ('A' for Active; 'I' for Inactive)
REMARK    1  A    between atoms: C_2  and  C_3
REMARK    2  A    between atoms: C_11  and  C_12
REMARK    3  A    between atoms: C_12  and  C_13
REMARK    4  A    between atoms: N_15  and  C_16
REMARK    5  A    between atoms: C_16  and  C_17
REMARK    6  A    between atoms: C_33  and  C_35
REMARK                            x       y       z     vdW  Elec       q    Type
REMARK                         _______ _______ _______ _____ _____    ______ ____
ROOT
ATOM      1  C   UNL     1      -2.457   4.820  25.838  0.00  0.00    +0.005 C 
ATOM      2  C   UNL     1      -2.217   4.144  25.432  0.00  0.00    +0.059 C 
ATOM      5  C   UNL     1      -1.623   4.667  25.203  0.00  0.00    +0.154 C 
ATOM      6  O   UNL     1      -1.627   5.445  25.479  0.00  0.00    -0.223 OA
ATOM      7  C   UNL     1      -1.022   4.414  24.695  0.00  0.00    +0.033 C 
ATOM      8  C   UNL     1      -1.017   3.637  24.419  0.00  0.00    +0.003 C 
ATOM      9  C   UNL     1      -1.611   3.114  24.649  0.00  0.00    +0.006 C 
ATOM     10  C   UNL     1      -1.012   2.861  24.142  0.00  0.00    +0.000 C 
ATOM     11  C   UNL     1      -1.606   2.336  24.372  0.00  0.00    +0.050 C 
ATOM     26  C   UNL     1      -2.200   1.812  24.602  0.00  0.00    +0.063 A 
ATOM     27  C   UNL     1      -2.800   2.066  25.109  0.00  0.00    +0.023 A 
ATOM     28  C   UNL     1      -2.806   2.843  25.386  0.00  0.00    +0.034 C 
ATOM     29  C   UNL     1      -2.211   3.367  25.156  0.00  0.00    +0.010 C 
ATOM     30  S   UNL     1      -3.309   1.429  25.240  0.00  0.00    -0.054 S 
ATOM     31  C   UNL     1      -3.024   0.783  24.814  0.00  0.00    +0.185 A 
ATOM     32  N   UNL     1      -3.364   0.032  24.787  0.00  0.00    -0.154 NA
ATOM     33  C   UNL     1      -3.015  -0.563  24.335  0.00  0.00    +0.247 C 
ATOM     34  O   UNL     1      -2.325  -0.407  23.909  0.00  0.00    -0.273 OA
ATOM     41  N   UNL     1      -2.339   1.020  24.420  0.00  0.00    -0.227 NA
ENDROOT
BRANCH  33  35
ATOM     35  C   UNL     1      -3.355  -1.314  24.308  0.00  0.00    +0.079 C 
ATOM     36  C   UNL     1      -3.002  -1.942  24.712  0.00  0.00    +0.009 C 
ATOM     37  C   UNL     1      -3.342  -2.693  24.685  0.00  0.00    +0.000 C 
ATOM     38  C   UNL     1      -4.035  -2.816  24.254  0.00  0.00    +0.000 C 
ATOM     39  C   UNL     1      -4.387  -2.190  23.850  0.00  0.00    +0.000 C 
ATOM     40  C   UNL     1      -4.047  -1.438  23.877  0.00  0.00    +0.009 C 
ENDBRANCH  33  35
BRANCH   2   3
ATOM      3  C   UNL     1      -2.894   3.855  25.803  0.00  0.00    +0.184 C 
ATOM      4  O   UNL     1      -3.310   4.332  26.334  0.00  0.00    -0.220 OA
ENDBRANCH   2   3
BRANCH  11  12
ATOM     12  C   UNL     1      -1.006   2.083  23.865  0.00  0.00    +0.093 C 
BRANCH  12  13
ATOM     13  C   UNL     1      -0.390   1.616  24.155  0.00  0.00    +0.242 C 
ATOM     14  O   UNL     1      -0.288   1.528  24.969  0.00  0.00    -0.273 OA
ATOM     15  N   UNL     1       0.122   1.238  23.632  0.00  0.00    -0.201 NA
BRANCH  15  16
ATOM     16  C   UNL     1       0.738   0.771  23.921  0.00  0.00    +0.142 C 
BRANCH  16  17
ATOM     17  C   UNL     1       1.375   0.579  23.434  0.00  0.00    +0.003 A 
ATOM     18  C   UNL     1       1.294  -0.010  22.863  0.00  0.00    +0.001 A 
ATOM     19  C   UNL     1       1.931  -0.202  22.375  0.00  0.00    +0.040 A 
ATOM     20  C   UNL     1       2.649   0.195  22.458  0.00  0.00    +0.176 A 
ATOM     21  O   UNL     1       3.368   0.126  22.060  0.00  0.00    -0.435 OA
ATOM     22  C   UNL     1       3.893   0.672  22.386  0.00  0.00    +0.429 C 
ATOM     23  O   UNL     1       3.499   1.079  22.984  0.00  0.00    -0.435 OA
ATOM     24  C   UNL     1       2.729   0.784  23.030  0.00  0.00    +0.176 A 
ATOM     25  C   UNL     1       2.092   0.976  23.518  0.00  0.00    +0.038 A 
ENDBRANCH  16  17
ENDBRANCH  15  16
ENDBRANCH  12  13
ENDBRANCH  11  12
TORSDOF 6
ENDMDL
MODEL 2
REMARK VINA RESULT:     -13.3      1.507      2.155
REMARK  Name = 
REMARK  6 active torsions:
REMARK  status: ('A' for Active; 'I' for Inactive)
REMARK    1  A    between atoms: C_2  and  C_3
REMARK    2  A    between atoms: C_11  and  C_12
REMARK    3  A    between atoms: C_12  and  C_13
REMARK    4  A    between atoms: N_15  and  C_16
REMARK    5  A    between atoms: C_16  and  C_17
REMARK    6  A    between atoms: C_33  and  C_35
REMARK                            x       y       z     vdW  Elec       q    Type
REMARK                         _______ _______ _______ _____ _____    ______ ____
ROOT
ATOM      1  C   UNL     1      -5.660   4.026  25.654  0.00  0.00    +0.005 C 
ATOM      2  C   UNL     1      -5.091   3.518  25.341  0.00  0.00    +0.059 C 
ATOM      5  C   UNL     1      -4.736   4.245  25.183  0.00  0.00    +0.154 C 
ATOM      6  O   UNL     1      -5.113   4.946  25.404  0.00  0.00    -0.223 OA
ATOM      7  C   UNL     1      -4.003   4.273  24.804  0.00  0.00    +0.033 C 
ATOM      8  C   UNL     1      -3.626   3.574  24.584  0.00  0.00    +0.003 C 
ATOM      9  C   UNL     1      -3.981   2.847  24.741  0.00  0.00    +0.006 C 
ATOM     10  C   UNL     1      -3.249   2.875  24.363  0.00  0.00    +0.000 C 
ATOM     11  C   UNL     1      -3.604   2.147  24.521  0.00  0.00    +0.050 C 
ATOM     26  C   UNL     1      -3.959   1.420  24.679  0.00  0.00    +0.063 A 
ATOM     27  C   UNL     1      -4.692   1.391  25.058  0.00  0.00    +0.023 A 
ATOM     28  C   UNL     1      -5.069   2.091  25.278  0.00  0.00    +0.034 C 
ATOM     29  C   UNL     1      -4.714   2.819  25.120  0.00  0.00    +0.010 C 
ATOM     30  S   UNL     1      -4.905   0.599  25.140  0.00  0.00    -0.054 S 
ATOM     31  C   UNL     1      -4.306   0.137  24.812  0.00  0.00    +0.185 A 
ATOM     32  N   UNL     1      -4.293  -0.687  24.776  0.00  0.00    -0.154 NA
ATOM     33  C   UNL     1      -3.652  -1.074  24.430  0.00  0.00    +0.247 C 
ATOM     34  O   UNL     1      -3.024  -0.639  24.120  0.00  0.00    -0.273 OA
ATOM     41  N   UNL     1      -3.721   0.644  24.527  0.00  0.00    -0.227 NA
ENDROOT
BRANCH  33  35
ATOM     35  C   UNL     1      -3.640  -1.899  24.394  0.00  0.00    +0.079 C 
ATOM     36  C   UNL     1      -3.207  -2.330  24.949  0.00  0.00    +0.009 C 
ATOM     37  C   UNL     1      -3.194  -3.154  24.913  0.00  0.00    +0.000 C 
ATOM     38  C   UNL     1      -3.614  -3.547  24.321  0.00  0.00    +0.000 C 
ATOM     39  C   UNL     1      -4.046  -3.117  23.767  0.00  0.00    +0.000 C 
ATOM     40  C   UNL     1      -4.059  -2.293  23.803  0.00  0.00    +0.009 C 
ENDBRANCH  33  35
BRANCH   2   3
ATOM      3  C   UNL     1      -5.644   2.967  25.608  0.00  0.00    +0.184 C 
ATOM      4  O   UNL     1      -6.288   3.215  26.061  0.00  0.00    -0.220 OA
ENDBRANCH   2   3
BRANCH  11  12
ATOM     12  C   UNL     1      -2.871   2.175  24.142  0.00  0.00    +0.093 C 
BRANCH  12  13
ATOM     13  C   UNL     1      -2.183   1.994  24.561  0.00  0.00    +0.242 C 
ATOM     14  O   UNL     1      -2.169   2.068  25.382  0.00  0.00    -0.273 OA
ATOM     15  N   UNL     1      -1.511   1.740  24.158  0.00  0.00    -0.201 NA
BRANCH  15  16
ATOM     16  C   UNL     1      -0.823   1.559  24.576  0.00  0.00    +0.142 C 
BRANCH  16  17
ATOM     17  C   UNL     1      -0.152   1.298  24.173  0.00  0.00    +0.003 A 
ATOM     18  C   UNL     1       0.522   1.773  24.143  0.00  0.00    +0.001 A 
ATOM     19  C   UNL     1       1.193   1.512  23.741  0.00  0.00    +0.040 A 
ATOM     20  C   UNL     1       1.191   0.777  23.368  0.00  0.00    +0.176 A 
ATOM     21  O   UNL     1       1.766   0.376  22.932  0.00  0.00    -0.435 OA
ATOM     22  C   UNL     1       1.448  -0.346  22.693  0.00  0.00    +0.429 C 
ATOM     23  O   UNL     1       0.676  -0.392  22.980  0.00  0.00    -0.435 OA
ATOM     24  C   UNL     1       0.517   0.302  23.398  0.00  0.00    +0.176 A 
ATOM     25  C   UNL     1      -0.154   0.563  23.800  0.00  0.00    +0.038 A 
ENDBRANCH  16  17
ENDBRANCH  15  16
ENDBRANCH  12  13
ENDBRANCH  11  12
TORSDOF 6
ENDMDL
MODEL 3
REMARK VINA RESULT:     -13.2      1.194      4.408
REMARK  Name = 
REMARK  6 active torsions:
REMARK  status: ('A' for Active; 'I' for Inactive)
REMARK    1  A    between atoms: C_2  and  C_3
REMARK    2  A    between atoms: C_11  and  C_12
REMARK    3  A    between atoms: C_12  and  C_13
REMARK    4  A    between atoms: N_15  and  C_16
REMARK    5  A    between atoms: C_16  and  C_17
REMARK    6  A    between atoms: C_33  and  C_35
REMARK                            x       y       z     vdW  Elec       q    Type
REMARK                         _______ _______ _______ _____ _____    ______ ____
ROOT
ATOM      1  C   UNL     1      -3.593  -2.211  24.971  0.00  0.00    +0.005 C 
ATOM      2  C   UNL     1      -2.963  -1.684  24.889  0.00  0.00    +0.059 C 
ATOM      5  C   UNL     1      -2.571  -2.398  24.758  0.00  0.00    +0.154 C 
ATOM      6  O   UNL     1      -2.988  -3.109  24.785  0.00  0.00    -0.223 OA
ATOM      7  C   UNL     1      -1.760  -2.401  24.601  0.00  0.00    +0.033 C 
ATOM      8  C   UNL     1      -1.343  -1.690  24.574  0.00  0.00    +0.003 C 
ATOM      9  C   UNL     1      -1.735  -0.977  24.705  0.00  0.00    +0.006 C 
ATOM     10  C   UNL     1      -0.926  -0.980  24.547  0.00  0.00    +0.000 C 
ATOM     11  C   UNL     1      -1.318  -0.265  24.678  0.00  0.00    +0.050 C 
ATOM     26  C   UNL     1      -1.710   0.448  24.809  0.00  0.00    +0.063 A 
ATOM     27  C   UNL     1      -2.521   0.451  24.966  0.00  0.00    +0.023 A 
ATOM     28  C   UNL     1      -2.938  -0.259  24.993  0.00  0.00    +0.034 C 
ATOM     29  C   UNL     1      -2.546  -0.974  24.862  0.00  0.00    +0.010 C 
ATOM     30  S   UNL     1      -2.756   1.235  25.072  0.00  0.00    -0.054 S 
ATOM     31  C   UNL     1      -2.093   1.716  24.980  0.00  0.00    +0.185 A 
ATOM     32  N   UNL     1      -2.078   2.539  25.040  0.00  0.00    -0.154 NA
ATOM     33  C   UNL     1      -1.370   2.947  24.934  0.00  0.00    +0.247 C 
ATOM     34  O   UNL     1      -0.675   2.534  24.767  0.00  0.00    -0.273 OA
ATOM     41  N   UNL     1      -1.446   1.230  24.817  0.00  0.00    -0.227 NA
ENDROOT
BRANCH  33  35
ATOM     35  C   UNL     1      -1.355   3.770  24.994  0.00  0.00    +0.079 C 
ATOM     36  C   UNL     1      -0.733   4.197  24.659  0.00  0.00    +0.009 C 
ATOM     37  C   UNL     1      -0.718   5.020  24.719  0.00  0.00    +0.000 C 
ATOM     38  C   UNL     1      -1.326   5.415  25.114  0.00  0.00    +0.000 C 
ATOM     39  C   UNL     1      -1.947   4.989  25.448  0.00  0.00    +0.000 C 
ATOM     40  C   UNL     1      -1.962   4.166  25.388  0.00  0.00    +0.009 C 
ENDBRANCH  33  35
BRANCH   2   3
ATOM      3  C   UNL     1      -3.574  -1.154  25.048  0.00  0.00    +0.184 C 
ATOM      4  O   UNL     1      -4.357  -1.416  25.058  0.00  0.00    -0.220 OA
ENDBRANCH   2   3
BRANCH  11  12
ATOM     12  C   UNL     1      -0.508  -0.268  24.520  0.00  0.00    +0.093 C 
BRANCH  12  13
ATOM     13  C   UNL     1      -0.232  -0.045  23.775  0.00  0.00    +0.242 C 
ATOM     14  O   UNL     1      -0.763   0.063  23.154  0.00  0.00    -0.273 OA
ATOM     15  N   UNL     1       0.575   0.070  23.652  0.00  0.00    -0.201 NA
BRANCH  15  16
ATOM     16  C   UNL     1       0.852   0.293  22.908  0.00  0.00    +0.142 C 
BRANCH  16  17
ATOM     17  C   UNL     1       1.661   0.282  22.748  0.00  0.00    +0.003 A 
ATOM     18  C   UNL     1       1.963  -0.244  22.190  0.00  0.00    +0.001 A 
ATOM     19  C   UNL     1       2.772  -0.255  22.029  0.00  0.00    +0.040 A 
ATOM     20  C   UNL     1       3.279   0.259  22.427  0.00  0.00    +0.176 A 
ATOM     21  O   UNL     1       4.095   0.374  22.385  0.00  0.00    -0.435 OA
ATOM     22  C   UNL     1       4.297   0.970  22.918  0.00  0.00    +0.429 C 
ATOM     23  O   UNL     1       3.606   1.225  23.288  0.00  0.00    -0.435 OA
ATOM     24  C   UNL     1       2.976   0.786  22.985  0.00  0.00    +0.176 A 
ATOM     25  C   UNL     1       2.167   0.797  23.146  0.00  0.00    +0.038 A 
ENDBRANCH  16  17
ENDBRANCH  15  16
ENDBRANCH  12  13
ENDBRANCH  11  12
TORSDOF 6
ENDMDL
MODEL 4
REMARK VINA RESULT:     -12.9      2.299      5.140
REMARK  Name = 
REMARK  6 active torsions:
REMARK  status: ('A' for Active; 'I' for Inactive)
REMARK    1  A    between atoms: C_2  and  C_3
REMARK    2  A    between atoms: C_11  and  C_12
REMARK    3  A    between atoms: C_12  and  C_13
REMARK    4  A    between atoms: N_15  and  C_16
REMARK    5  A    between atoms: C_16  and  C_17
REMARK    6  A    between atoms: C_33  and  C_35
REMARK                            x       y       z     vdW  Elec       q    Type
REMARK                         _______ _______ _______ _____ _____    ______ ____
ROOT
ATOM      1  C   UNL     1      -3.785  -3.174  23.914  0.00  0.00    +0.005 C 
ATOM      2  C   UNL     1      -3.511  -2.466  24.235  0.00  0.00    +0.059 C 
ATOM      5  C   UNL     1      -2.855  -2.946  24.369  0.00  0.00    +0.154 C 
ATOM      6  O   UNL     1      -2.867  -3.737  24.133  0.00  0.00    -0.223 OA
ATOM      7  C   UNL     1      -2.184  -2.637  24.739  0.00  0.00    +0.033 C 
ATOM      8  C   UNL     1      -2.172  -1.847  24.974  0.00  0.00    +0.003 C 
ATOM      9  C   UNL     1      -2.828  -1.366  24.841  0.00  0.00    +0.006 C 
ATOM     10  C   UNL     1      -2.159  -1.057  25.210  0.00  0.00    +0.000 C 
ATOM     11  C   UNL     1      -2.816  -0.575  25.076  0.00  0.00    +0.050 C 
ATOM     26  C   UNL     1      -3.472  -0.094  24.943  0.00  0.00    +0.063 A 
ATOM     27  C   UNL     1      -4.142  -0.404  24.573  0.00  0.00    +0.023 A 
ATOM     28  C   UNL     1      -4.155  -1.194  24.337  0.00  0.00    +0.034 C 
ATOM     29  C   UNL     1      -3.498  -1.676  24.471  0.00  0.00    +0.010 C 
ATOM     30  S   UNL     1      -4.702   0.199  24.515  0.00  0.00    -0.054 S 
ATOM     31  C   UNL     1      -4.379   0.881  24.848  0.00  0.00    +0.185 A 
ATOM     32  N   UNL     1      -4.751   1.615  24.907  0.00  0.00    -0.154 NA
ATOM     33  C   UNL     1      -4.357   2.250  25.257  0.00  0.00    +0.247 C 
ATOM     34  O   UNL     1      -3.591   2.151  25.547  0.00  0.00    -0.273 OA
ATOM     41  N   UNL     1      -3.619   0.700  25.113  0.00  0.00    -0.227 NA
ENDROOT
BRANCH  33  35
ATOM     35  C   UNL     1      -4.729   2.984  25.316  0.00  0.00    +0.079 C 
ATOM     36  C   UNL     1      -4.365   3.657  25.005  0.00  0.00    +0.009 C 
ATOM     37  C   UNL     1      -4.737   4.391  25.064  0.00  0.00    +0.000 C 
ATOM     38  C   UNL     1      -5.472   4.452  25.433  0.00  0.00    +0.000 C 
ATOM     39  C   UNL     1      -5.836   3.780  25.743  0.00  0.00    +0.000 C 
ATOM     40  C   UNL     1      -5.464   3.046  25.684  0.00  0.00    +0.009 C 
ENDBRANCH  33  35
BRANCH   2   3
ATOM      3  C   UNL     1      -4.263  -2.231  23.990  0.00  0.00    +0.184 C 
ATOM      4  O   UNL     1      -4.738  -2.751  23.560  0.00  0.00    -0.220 OA
ENDBRANCH   2   3
BRANCH  11  12
ATOM     12  C   UNL     1      -2.146  -0.266  25.446  0.00  0.00    +0.093 C 
BRANCH  12  13
ATOM     13  C   UNL     1      -1.607   0.186  25.013  0.00  0.00    +0.242 C 
ATOM     14  O   UNL     1      -1.471   0.014  24.218  0.00  0.00    -0.273 OA
ATOM     15  N   UNL     1      -1.205   0.807  25.375  0.00  0.00    -0.201 NA
BRANCH  15  16
ATOM     16  C   UNL     1      -0.667   1.259  24.943  0.00  0.00    +0.142 C 
BRANCH  16  17
ATOM     17  C   UNL     1      -0.590   2.066  25.093  0.00  0.00    +0.003 A 
ATOM     18  C   UNL     1      -0.339   2.325  25.835  0.00  0.00    +0.001 A 
ATOM     19  C   UNL     1      -0.262   3.133  25.985  0.00  0.00    +0.040 A 
ATOM     20  C   UNL     1      -0.437   3.681  25.394  0.00  0.00    +0.176 A 
ATOM     21  O   UNL     1      -0.413   4.506  25.381  0.00  0.00    -0.435 OA
ATOM     22  C   UNL     1      -0.650   4.756  24.631  0.00  0.00    +0.429 C 
ATOM     23  O   UNL     1      -0.819   4.086  24.182  0.00  0.00    -0.435 OA
ATOM     24  C   UNL     1      -0.688   3.421  24.653  0.00  0.00    +0.176 A 
ATOM     25  C   UNL     1      -0.765   2.614  24.502  0.00  0.00    +0.038 A 
ENDBRANCH  16  17
ENDBRANCH  15  16
ENDBRANCH  12  13
ENDBRANCH  11  12
TORSDOF 6
ENDMDL
MODEL 5
REMARK VINA RESULT:     -12.7      2.516      6.542
REMARK  Name = 
REMARK  6 active torsions:
REMARK  status: ('A' for Active; 'I' for Inactive)
REMARK    1  A    between atoms: C_2  and  C_3
REMARK    2  A    between atoms: C_11  and  C_12
REMARK    3  A    between atoms: C_12  and  C_13
REMARK    4  A    between atoms: N_15  and  C_16
REMARK    5  A    between atoms: C_16  and  C_17
REMARK    6  A    between atoms: C_33  and  C_35
REMARK                            x       y       z     vdW  Elec       q    Type
REMARK                         _______ _______ _______ _____ _____    ______ ____
ROOT
ATOM      1  C   UNL     1      -1.928  -3.052  24.225  0.00  0.00    +0.005 C 
ATOM      2  C   UNL     1      -2.236  -2.330  24.479  0.00  0.00    +0.059 C 
ATOM      5  C   UNL     1      -2.863  -2.828  24.671  0.00  0.00    +0.154 C 
ATOM      6  O   UNL     1      -2.812  -3.637  24.516  0.00  0.00    -0.223 OA
ATOM      7  C   UNL     1      -3.545  -2.518  25.021  0.00  0.00    +0.033 C 
ATOM      8  C   UNL     1      -3.597  -1.710  25.176  0.00  0.00    +0.003 C 
ATOM      9  C   UNL     1      -2.969  -1.212  24.984  0.00  0.00    +0.006 C 
ATOM     10  C   UNL     1      -3.649  -0.903  25.332  0.00  0.00    +0.000 C 
ATOM     11  C   UNL     1      -3.020  -0.403  25.140  0.00  0.00    +0.050 C 
ATOM     26  C   UNL     1      -2.393   0.095  24.947  0.00  0.00    +0.063 A 
ATOM     27  C   UNL     1      -1.711  -0.215  24.598  0.00  0.00    +0.023 A 
ATOM     28  C   UNL     1      -1.659  -1.023  24.442  0.00  0.00    +0.034 C 
ATOM     29  C   UNL     1      -2.288  -1.522  24.635  0.00  0.00    +0.010 C 
ATOM     30  S   UNL     1      -1.185   0.408  24.470  0.00  0.00    -0.054 S 
ATOM     31  C   UNL     1      -1.540   1.102  24.740  0.00  0.00    +0.185 A 
ATOM     32  N   UNL     1      -1.207   1.857  24.719  0.00  0.00    -0.154 NA
ATOM     33  C   UNL     1      -1.630   2.502  25.010  0.00  0.00    +0.247 C 
ATOM     34  O   UNL     1      -2.386   2.393  25.323  0.00  0.00    -0.273 OA
ATOM     41  N   UNL     1      -2.286   0.909  25.034  0.00  0.00    -0.227 NA
ENDROOT
BRANCH  33  35
ATOM     35  C   UNL     1      -1.298   3.256  24.989  0.00  0.00    +0.079 C 
ATOM     36  C   UNL     1      -0.573   3.378  24.612  0.00  0.00    +0.009 C 
ATOM     37  C   UNL     1      -0.240   4.133  24.591  0.00  0.00    +0.000 C 
ATOM     38  C   UNL     1      -0.632   4.766  24.946  0.00  0.00    +0.000 C 
ATOM     39  C   UNL     1      -1.356   4.645  25.323  0.00  0.00    +0.000 C 
ATOM     40  C   UNL     1      -1.688   3.890  25.344  0.00  0.00    +0.009 C 
ENDBRANCH  33  35
BRANCH   2   3
ATOM      3  C   UNL     1      -1.501  -2.082  24.198  0.00  0.00    +0.184 C 
ATOM      4  O   UNL     1      -0.980  -2.630  23.865  0.00  0.00    -0.220 OA
ENDBRANCH   2   3
BRANCH  11  12
ATOM     12  C   UNL     1      -3.701  -0.093  25.488  0.00  0.00    +0.093 C 
BRANCH  12  13
ATOM     13  C   UNL     1      -4.236   0.341  25.034  0.00  0.00    +0.242 C 
ATOM     14  O   UNL     1      -4.310   0.190  24.227  0.00  0.00    -0.273 OA
ATOM     15  N   UNL     1      -4.697   0.926  25.388  0.00  0.00    -0.201 NA
BRANCH  15  16
ATOM     16  C   UNL     1      -5.232   1.360  24.935  0.00  0.00    +0.142 C 
BRANCH  16  17
ATOM     17  C   UNL     1      -5.501   2.093  25.203  0.00  0.00    +0.003 A 
ATOM     18  C   UNL     1      -6.120   2.131  25.746  0.00  0.00    +0.001 A 
ATOM     19  C   UNL     1      -6.389   2.864  26.014  0.00  0.00    +0.040 A 
ATOM     20  C   UNL     1      -6.039   3.558  25.739  0.00  0.00    +0.176 A 
ATOM     21  O   UNL     1      -6.185   4.353  25.902  0.00  0.00    -0.435 OA
ATOM     22  C   UNL     1      -5.656   4.806  25.460  0.00  0.00    +0.429 C 
ATOM     23  O   UNL     1      -5.184   4.291  25.023  0.00  0.00    -0.435 OA
ATOM     24  C   UNL     1      -5.419   3.519  25.195  0.00  0.00    +0.176 A 
ATOM     25  C   UNL     1      -5.151   2.786  24.927  0.00  0.00    +0.038 A 
ENDBRANCH  16  17
ENDBRANCH  15  16
ENDBRANCH  12  13
ENDBRANCH  11  12
TORSDOF 6
ENDMDL
MODEL 6
REMARK VINA RESULT:     -11.7      1.451      5.511
REMARK  Name = 
REMARK  6 active torsions:
REMARK  status: ('A' for Active; 'I' for Inactive)
REMARK    1  A    between atoms: C_2  and  C_3
REMARK    2  A    between atoms: C_11  and  C_12
REMARK    3  A    between atoms: C_12  and  C_13
REMARK    4  A    between atoms: N_15  and  C_16
REMARK    5  A    between atoms: C_16  and  C_17
REMARK    6  A    between atoms: C_33  and  C_35
REMARK                            x       y       z     vdW  Elec       q    Type
REMARK                         _______ _______ _______ _____ _____    ______ ____
ROOT
ATOM      1  C   UNL     1      -3.257  -2.642  25.100  0.00  0.00    +0.005 C 
ATOM      2  C   UNL     1      -2.874  -1.937  24.906  0.00  0.00    +0.059 C 
ATOM      5  C   UNL     1      -3.608  -1.642  25.138  0.00  0.00    +0.154 C 
ATOM      6  O   UNL     1      -4.200  -2.159  25.390  0.00  0.00    -0.223 OA
ATOM      7  C   UNL     1      -3.751  -0.829  25.118  0.00  0.00    +0.033 C 
ATOM      8  C   UNL     1      -3.160  -0.313  24.867  0.00  0.00    +0.003 C 
ATOM      9  C   UNL     1      -2.426  -0.607  24.635  0.00  0.00    +0.006 C 
ATOM     10  C   UNL     1      -2.569   0.204  24.615  0.00  0.00    +0.000 C 
ATOM     11  C   UNL     1      -1.834  -0.091  24.383  0.00  0.00    +0.050 C 
ATOM     26  C   UNL     1      -1.100  -0.386  24.151  0.00  0.00    +0.063 A 
ATOM     27  C   UNL     1      -0.957  -1.199  24.171  0.00  0.00    +0.023 A 
ATOM     28  C   UNL     1      -1.548  -1.715  24.422  0.00  0.00    +0.034 C 
ATOM     29  C   UNL     1      -2.283  -1.421  24.654  0.00  0.00    +0.010 C 
ATOM     30  S   UNL     1      -0.184  -1.327  23.911  0.00  0.00    -0.054 S 
ATOM     31  C   UNL     1       0.150  -0.595  23.731  0.00  0.00    +0.185 A 
ATOM     32  N   UNL     1       0.916  -0.467  23.451  0.00  0.00    -0.154 NA
ATOM     33  C   UNL     1       1.175   0.300  23.295  0.00  0.00    +0.247 C 
ATOM     34  O   UNL     1       0.668   0.940  23.418  0.00  0.00    -0.273 OA
ATOM     41  N   UNL     1      -0.415  -0.014  23.879  0.00  0.00    -0.227 NA
ENDROOT
BRANCH  33  35
ATOM     35  C   UNL     1       1.940   0.428  23.016  0.00  0.00    +0.079 C 
ATOM     36  C   UNL     1       2.226  -0.012  22.378  0.00  0.00    +0.009 C 
ATOM     37  C   UNL     1       2.992   0.116  22.099  0.00  0.00    +0.000 C 
ATOM     38  C   UNL     1       3.471   0.684  22.457  0.00  0.00    +0.000 C 
ATOM     39  C   UNL     1       3.186   1.124  23.093  0.00  0.00    +0.000 C 
ATOM     40  C   UNL     1       2.420   0.996  23.373  0.00  0.00    +0.009 C 
ENDBRANCH  33  35
BRANCH   2   3
ATOM      3  C   UNL     1      -2.273  -2.477  24.741  0.00  0.00    +0.184 C 
ATOM      4  O   UNL     1      -2.429  -3.287  24.761  0.00  0.00    -0.220 OA
ENDBRANCH   2   3
BRANCH  11  12
ATOM     12  C   UNL     1      -1.977   0.722  24.363  0.00  0.00    +0.093 C 
BRANCH  12  13
ATOM     13  C   UNL     1      -1.688   1.206  24.966  0.00  0.00    +0.242 C 
ATOM     14  O   UNL     1      -1.369   0.869  25.648  0.00  0.00    -0.273 OA
ATOM     15  N   UNL     1      -1.719   2.026  24.886  0.00  0.00    -0.201 NA
BRANCH  15  16
ATOM     16  C   UNL     1      -1.430   2.511  25.488  0.00  0.00    +0.142 C 
BRANCH  16  17
ATOM     17  C   UNL     1      -1.502   3.330  25.429  0.00  0.00    +0.003 A 
ATOM     18  C   UNL     1      -2.161   3.710  25.747  0.00  0.00    +0.001 A 
ATOM     19  C   UNL     1      -2.233   4.530  25.688  0.00  0.00    +0.040 A 
ATOM     20  C   UNL     1      -1.646   4.970  25.310  0.00  0.00    +0.176 A 
ATOM     21  O   UNL     1      -1.567   5.779  25.168  0.00  0.00    -0.435 OA
ATOM     22  C   UNL     1      -0.859   5.898  24.761  0.00  0.00    +0.429 C 
ATOM     23  O   UNL     1      -0.502   5.163  24.652  0.00  0.00    -0.435 OA
ATOM     24  C   UNL     1      -0.988   4.589  24.991  0.00  0.00    +0.176 A 
ATOM     25  C   UNL     1      -0.916   3.769  25.051  0.00  0.00    +0.038 A 
ENDBRANCH  16  17
ENDBRANCH  15  16
ENDBRANCH  12  13
ENDBRANCH  11  12
TORSDOF 6
ENDMDL
MODEL 7
REMARK VINA RESULT:     -11.6      1.236      4.474
REMARK  Name = 
REMARK  6 active torsions:
REMARK  status: ('A' for Active; 'I' for Inactive)
REMARK    1  A    between atoms: C_2  and  C_3
REMARK    2  A    between atoms: C_11  and  C_12
REMARK    3  A    between atoms: C_12  and  C_13
REMARK    4  A    between atoms: N_15  and  C_16
REMARK    5  A    between atoms: C_16  and  C_17
REMARK    6  A    between atoms: C_33  and  C_35
REMARK                            x       y       z     vdW  Elec       q    Type
REMARK                         _______ _______ _______ _____ _____    ______ ____
ROOT
ATOM      1  C   UNL     1      -2.147   5.334  25.635  0.00  0.00    +0.005 C 
ATOM      2  C   UNL     1      -2.050   4.527  25.489  0.00  0.00    +0.059 C 
ATOM      5  C   UNL     1      -2.773   4.516  25.885  0.00  0.00    +0.154 C 
ATOM      6  O   UNL     1      -3.110   5.221  26.151  0.00  0.00    -0.223 OA
ATOM      7  C   UNL     1      -3.161   3.798  26.017  0.00  0.00    +0.033 C 
ATOM      8  C   UNL     1      -2.824   3.094  25.751  0.00  0.00    +0.003 C 
ATOM      9  C   UNL     1      -2.101   3.106  25.355  0.00  0.00    +0.006 C 
ATOM     10  C   UNL     1      -2.488   2.390  25.486  0.00  0.00    +0.000 C 
ATOM     11  C   UNL     1      -1.764   2.401  25.089  0.00  0.00    +0.050 C 
ATOM     26  C   UNL     1      -1.041   2.412  24.693  0.00  0.00    +0.063 A 
ATOM     27  C   UNL     1      -0.654   3.130  24.562  0.00  0.00    +0.023 A 
ATOM     28  C   UNL     1      -0.990   3.834  24.828  0.00  0.00    +0.034 C 
ATOM     29  C   UNL     1      -1.714   3.823  25.224  0.00  0.00    +0.010 C 
ATOM     30  S   UNL     1       0.048   2.970  24.158  0.00  0.00    -0.054 S 
ATOM     31  C   UNL     1       0.095   2.155  24.040  0.00  0.00    +0.185 A 
ATOM     32  N   UNL     1       0.707   1.755  23.658  0.00  0.00    -0.154 NA
ATOM     33  C   UNL     1       0.677   0.935  23.580  0.00  0.00    +0.247 C 
ATOM     34  O   UNL     1       0.036   0.514  23.884  0.00  0.00    -0.273 OA
ATOM     41  N   UNL     1      -0.578   1.811  24.370  0.00  0.00    -0.227 NA
ENDROOT
BRANCH  33  35
ATOM     35  C   UNL     1       1.289   0.535  23.198  0.00  0.00    +0.079 C 
ATOM     36  C   UNL     1       1.124  -0.133  22.741  0.00  0.00    +0.009 C 
ATOM     37  C   UNL     1       1.736  -0.533  22.359  0.00  0.00    +0.000 C 
ATOM     38  C   UNL     1       2.513  -0.265  22.434  0.00  0.00    +0.000 C 
ATOM     39  C   UNL     1       2.678   0.401  22.890  0.00  0.00    +0.000 C 
ATOM     40  C   UNL     1       2.066   0.801  23.272  0.00  0.00    +0.009 C 
ENDBRANCH  33  35
BRANCH   2   3
ATOM      3  C   UNL     1      -1.361   4.820  25.144  0.00  0.00    +0.184 C 
ATOM      4  O   UNL     1      -1.220   5.633  25.126  0.00  0.00    -0.220 OA
ENDBRANCH   2   3
BRANCH  11  12
ATOM     12  C   UNL     1      -2.151   1.684  25.220  0.00  0.00    +0.093 C 
BRANCH  12  13
ATOM     13  C   UNL     1      -2.563   1.318  24.605  0.00  0.00    +0.242 C 
ATOM     14  O   UNL     1      -2.749   1.745  23.924  0.00  0.00    -0.273 OA
ATOM     15  N   UNL     1      -2.786   0.528  24.671  0.00  0.00    -0.201 NA
BRANCH  15  16
ATOM     16  C   UNL     1      -3.197   0.162  24.057  0.00  0.00    +0.142 C 
BRANCH  16  17
ATOM     17  C   UNL     1      -3.413  -0.632  24.119  0.00  0.00    +0.003 A 
ATOM     18  C   UNL     1      -4.179  -0.867  23.928  0.00  0.00    +0.001 A 
ATOM     19  C   UNL     1      -4.395  -1.661  23.990  0.00  0.00    +0.040 A 
ATOM     20  C   UNL     1      -3.843  -2.220  24.243  0.00  0.00    +0.176 A 
ATOM     21  O   UNL     1      -3.895  -3.035  24.357  0.00  0.00    -0.435 OA
ATOM     22  C   UNL     1      -3.160  -3.303  24.617  0.00  0.00    +0.429 C 
ATOM     23  O   UNL     1      -2.654  -2.654  24.665  0.00  0.00    -0.435 OA
ATOM     24  C   UNL     1      -3.076  -1.984  24.433  0.00  0.00    +0.176 A 
ATOM     25  C   UNL     1      -2.861  -1.190  24.371  0.00  0.00    +0.038 A 
ENDBRANCH  16  17
ENDBRANCH  15  16
ENDBRANCH  12  13
ENDBRANCH  11  12
TORSDOF 6
ENDMDL
MODEL 8
REMARK VINA RESULT:     -11.3      1.713      4.374
REMARK  Name = 
REMARK  6 active torsions:
REMARK  status: ('A' for Active; 'I' for Inactive)
REMARK    1  A    between atoms: C_2  and  C_3
REMARK    2  A    between atoms: C_11  and  C_12
REMARK    3  A    between atoms: C_12  and  C_13
REMARK    4  A    between atoms: N_15  and  C_16
REMARK    5  A    between atoms: C_16  and  C_17
REMARK    6  A    between atoms: C_33  and  C_35
REMARK                            x       y       z     vdW  Elec       q    Type
REMARK                         _______ _______ _______ _____ _____    ______ ____
ROOT
ATOM      1  C   UNL     1      -5.030   4.432  25.840  0.00  0.00    +0.005 C 
ATOM      2  C   UNL     1      -4.751   3.735  25.499  0.00  0.00    +0.059 C 
ATOM      5  C   UNL     1      -5.558   3.571  25.517  0.00  0.00    +0.154 C 
ATOM      6  O   UNL     1      -6.086   4.127  25.824  0.00  0.00    -0.223 OA
ATOM      7  C   UNL     1      -5.840   2.850  25.229  0.00  0.00    +0.033 C 
ATOM      8  C   UNL     1      -5.314   2.295  24.922  0.00  0.00    +0.003 C 
ATOM      9  C   UNL     1      -4.506   2.458  24.904  0.00  0.00    +0.006 C 
ATOM     10  C   UNL     1      -4.787   1.739  24.616  0.00  0.00    +0.000 C 
ATOM     11  C   UNL     1      -3.979   1.903  24.597  0.00  0.00    +0.050 C 
ATOM     26  C   UNL     1      -3.171   2.066  24.579  0.00  0.00    +0.063 A 
ATOM     27  C   UNL     1      -2.889   2.787  24.867  0.00  0.00    +0.023 A 
ATOM     28  C   UNL     1      -3.415   3.342  25.174  0.00  0.00    +0.034 C 
ATOM     29  C   UNL     1      -4.224   3.179  25.192  0.00  0.00    +0.010 C 
ATOM     30  S   UNL     1      -2.069   2.793  24.778  0.00  0.00    -0.054 S 
ATOM     31  C   UNL     1      -1.843   2.078  24.434  0.00  0.00    +0.185 A 
ATOM     32  N   UNL     1      -1.073   1.852  24.247  0.00  0.00    -0.154 NA
ATOM     33  C   UNL     1      -0.931   1.116  23.903  0.00  0.00    +0.247 C 
ATOM     34  O   UNL     1      -1.560   0.605  23.747  0.00  0.00    -0.273 OA
ATOM     41  N   UNL     1      -2.524   1.629  24.312  0.00  0.00    -0.227 NA
ENDROOT
BRANCH  33  35
ATOM     35  C   UNL     1      -0.160   0.889  23.716  0.00  0.00    +0.079 C 
ATOM     36  C   UNL     1       0.472   1.387  23.898  0.00  0.00    +0.009 C 
ATOM     37  C   UNL     1       1.243   1.161  23.711  0.00  0.00    +0.000 C 
ATOM     38  C   UNL     1       1.381   0.437  23.341  0.00  0.00    +0.000 C 
ATOM     39  C   UNL     1       0.750  -0.061  23.158  0.00  0.00    +0.000 C 
ATOM     40  C   UNL     1      -0.021   0.165  23.346  0.00  0.00    +0.009 C 
ENDBRANCH  33  35
BRANCH   2   3
ATOM      3  C   UNL     1      -4.040   4.141  25.599  0.00  0.00    +0.184 C 
ATOM      4  O   UNL     1      -4.018   4.829  26.054  0.00  0.00    -0.220 OA
ENDBRANCH   2   3
BRANCH  11  12
ATOM     12  C   UNL     1      -4.260   1.183  24.309  0.00  0.00    +0.093 C 
BRANCH  12  13
ATOM     13  C   UNL     1      -4.230   0.508  24.784  0.00  0.00    +0.242 C 
ATOM     14  O   UNL     1      -4.286   0.578  25.604  0.00  0.00    -0.273 OA
ATOM     15  N   UNL     1      -4.144  -0.235  24.438  0.00  0.00    -0.201 NA
BRANCH  15  16
ATOM     16  C   UNL     1      -4.114  -0.910  24.912  0.00  0.00    +0.142 C 
BRANCH  16  17
ATOM     17  C   UNL     1      -3.676  -1.565  24.670  0.00  0.00    +0.003 A 
ATOM     18  C   UNL     1      -4.020  -2.134  24.182  0.00  0.00    +0.001 A 
ATOM     19  C   UNL     1      -3.581  -2.790  23.940  0.00  0.00    +0.040 A 
ATOM     20  C   UNL     1      -2.798  -2.876  24.185  0.00  0.00    +0.176 A 
ATOM     21  O   UNL     1      -2.234  -3.459  24.037  0.00  0.00    -0.435 OA
ATOM     22  C   UNL     1      -1.541  -3.250  24.433  0.00  0.00    +0.429 C 
ATOM     23  O   UNL     1      -1.677  -2.539  24.826  0.00  0.00    -0.435 OA
ATOM     24  C   UNL     1      -2.455  -2.307  24.673  0.00  0.00    +0.176 A 
ATOM     25  C   UNL     1      -2.893  -1.651  24.915  0.00  0.00    +0.038 A 
ENDBRANCH  16  17
ENDBRANCH  15  16
ENDBRANCH  12  13
ENDBRANCH  11  12
TORSDOF 6
ENDMDL
