MODEL 1
REMARK VINA RESULT:      -9.5      0.000      0.000
REMARK  Name = 
REMARK  7 active torsions:
REMARK  status: ('A' for Active; 'I' for Inactive)
REMARK    1  A    between atoms: O_2  and  C_3
REMARK    2  A    between atoms: C_3  and  C_4
REMARK    3  A    between atoms: C_6  and  C_7
REMARK    4  A    between atoms: C_7  and  C_8
REMARK    5  A    between atoms: C_8  and  N_12
REMARK    6  A    between atoms: N_12  and  C_13
REMARK    7  A    between atoms: C_13  and  C_14
REMARK                            x       y       z     vdW  Elec       q    Type
REMARK                         _______ _______ _______ _____ _____    ______ ____
ROOT
ATOM      8  C   UNL     1      -4.496   1.547  24.644  0.00  0.00    +0.120 C 
ATOM      9  C   UNL     1      -5.208   1.289  24.974  0.00  0.00    +0.161 C 
ATOM     10  O   UNL     1      -5.562   2.006  24.769  0.00  0.00    -0.351 OA
ATOM     11  C   UNL     1      -4.851   2.264  24.440  0.00  0.00    +0.161 C 
ENDROOT
BRANCH   8   7
ATOM      7  C   UNL     1      -3.785   1.805  24.315  0.00  0.00    +0.070 C 
BRANCH   7   6
ATOM      4  C   UNL     1      -2.369   3.254  24.987  0.00  0.00    +0.184 A 
ATOM      5  C   UNL     1      -2.620   2.692  24.437  0.00  0.00    +0.056 A 
ATOM      6  C   UNL     1      -3.339   2.383  24.698  0.00  0.00    +0.102 A 
ATOM     21  N   UNL     1      -3.533   2.753  25.409  0.00  0.00    -0.082 NA
ATOM     22  O   UNL     1      -2.934   3.291  25.588  0.00  0.00    -0.356 OA
BRANCH   4   3
ATOM      3  C   UNL     1      -1.677   3.700  24.944  0.00  0.00    +0.209 C 
BRANCH   3   2
ATOM      1  C   UNL     1      -1.016   4.965  24.996  0.00  0.00    +0.175 C 
ATOM      2  O   UNL     1      -1.698   4.511  25.092  0.00  0.00    -0.343 OA
ENDBRANCH   3   2
ENDBRANCH   4   3
ENDBRANCH   7   6
ENDBRANCH   8   7
BRANCH   8  12
ATOM     12  N   UNL     1      -4.142   0.830  24.849  0.00  0.00    -0.211 NA
BRANCH  12  13
ATOM     13  C   UNL     1      -4.435   0.124  24.539  0.00  0.00    +0.117 C 
BRANCH  13  14
ATOM     14  C   UNL     1      -4.073  -0.592  24.734  0.00  0.00    +0.023 A 
ATOM     15  C   UNL     1      -3.770  -0.707  25.492  0.00  0.00    -0.001 A 
ATOM     16  C   UNL     1      -3.408  -1.422  25.688  0.00  0.00    -0.000 A 
ATOM     17  C   UNL     1      -3.350  -2.022  25.125  0.00  0.00    +0.002 A 
ATOM     18  C   UNL     1      -3.653  -1.907  24.366  0.00  0.00    +0.029 A 
ATOM     19  C   UNL     1      -4.015  -1.191  24.171  0.00  0.00    +0.137 A 
ATOM     20  F   UNL     1      -4.318  -1.076  23.412  0.00  0.00    -0.204 F 
ENDBRANCH  13  14
ENDBRANCH  12  13
ENDBRANCH   8  12
TORSDOF 7
ENDMDL
MODEL 2
REMARK VINA RESULT:      -9.0      0.906      1.094
REMARK  Name = 
REMARK  7 active torsions:
REMARK  status: ('A' for Active; 'I' for Inactive)
REMARK    1  A    between atoms: O_2  and  C_3
REMARK    2  A    between atoms: C_3  and  C_4
REMARK    3  A    between atoms: C_6  and  C_7
REMARK    4  A    between atoms: C_7  and  C_8
REMARK    5  A    between atoms: C_8  and  N_12
REMARK    6  A    between atoms: N_12  and  C_13
REMARK    7  A    between atoms: C_13  and  C_14
REMARK                            x       y       z     vdW  Elec       q    Type
REMARK                         _______ _______ _______ _____ _____    ______ ____
ROOT
ATOM      8  C   UNL     1      -4.300   1.391  24.963  0.00  0.00    +0.120 C 
ATOM      9  C   UNL     1      -5.062   1.228  24.691  0.00  0.00    +0.161 C 
ATOM     10  O   UNL     1      -5.308   1.977  24.935  0.00  0.00    -0.351 OA
ATOM     11  C   UNL     1      -4.547   2.140  25.206  0.00  0.00    +0.161 C 
ENDROOT
BRANCH   8   7
ATOM      7  C   UNL     1      -3.538   1.553  25.235  0.00  0.00    +0.070 C 
BRANCH   7   6
ATOM      4  C   UNL     1      -2.166   3.067  24.616  0.00  0.00    +0.184 A 
ATOM      5  C   UNL     1      -2.484   2.577  25.199  0.00  0.00    +0.056 A 
ATOM      6  C   UNL     1      -3.075   2.119  24.852  0.00  0.00    +0.102 A 
ATOM     21  N   UNL     1      -3.124   2.325  24.055  0.00  0.00    -0.082 NA
ATOM     22  O   UNL     1      -2.561   2.911  23.909  0.00  0.00    -0.356 OA
BRANCH   4   3
ATOM      3  C   UNL     1      -1.559   3.615  24.721  0.00  0.00    +0.209 C 
BRANCH   3   2
ATOM      1  C   UNL     1      -1.135   4.943  25.036  0.00  0.00    +0.175 C 
ATOM      2  O   UNL     1      -1.731   4.374  24.996  0.00  0.00    -0.343 OA
ENDBRANCH   3   2
ENDBRANCH   4   3
ENDBRANCH   7   6
ENDBRANCH   8   7
BRANCH   8  12
ATOM     12  N   UNL     1      -4.054   0.642  24.720  0.00  0.00    -0.211 NA
BRANCH  12  13
ATOM     13  C   UNL     1      -4.259  -0.023  25.164  0.00  0.00    +0.117 C 
BRANCH  13  14
ATOM     14  C   UNL     1      -4.035  -0.775  24.907  0.00  0.00    +0.023 A 
ATOM     15  C   UNL     1      -4.137  -0.986  24.116  0.00  0.00    -0.001 A 
ATOM     16  C   UNL     1      -3.914  -1.737  23.857  0.00  0.00    -0.000 A 
ATOM     17  C   UNL     1      -3.590  -2.277  24.390  0.00  0.00    +0.002 A 
ATOM     18  C   UNL     1      -3.488  -2.065  25.181  0.00  0.00    +0.029 A 
ATOM     19  C   UNL     1      -3.711  -1.314  25.439  0.00  0.00    +0.137 A 
ATOM     20  F   UNL     1      -3.609  -1.102  26.230  0.00  0.00    -0.204 F 
ENDBRANCH  13  14
ENDBRANCH  12  13
ENDBRANCH   8  12
TORSDOF 7
ENDMDL
MODEL 3
REMARK VINA RESULT:      -8.8      1.910      4.394
REMARK  Name = 
REMARK  7 active torsions:
REMARK  status: ('A' for Active; 'I' for Inactive)
REMARK    1  A    between atoms: O_2  and  C_3
REMARK    2  A    between atoms: C_3  and  C_4
REMARK    3  A    between atoms: C_6  and  C_7
REMARK    4  A    between atoms: C_7  and  C_8
REMARK    5  A    between atoms: C_8  and  N_12
REMARK    6  A    between atoms: N_12  and  C_13
REMARK    7  A    between atoms: C_13  and  C_14
REMARK                            x       y       z     vdW  Elec       q    Type
REMARK                         _______ _______ _______ _____ _____    ______ ____
ROOT
ATOM      8  C   UNL     1      -4.288   2.912  25.171  0.00  0.00    +0.120 C 
ATOM      9  C   UNL     1      -4.400   3.427  25.807  0.00  0.00    +0.161 C 
ATOM     10  O   UNL     1      -5.218   3.370  25.707  0.00  0.00    -0.351 OA
ATOM     11  C   UNL     1      -5.106   2.856  25.073  0.00  0.00    +0.161 C 
ENDROOT
BRANCH   8   7
ATOM      7  C   UNL     1      -4.176   2.397  24.536  0.00  0.00    +0.070 C 
BRANCH   7   6
ATOM      4  C   UNL     1      -4.121   0.264  24.495  0.00  0.00    +0.184 A 
ATOM      5  C   UNL     1      -3.892   0.996  24.193  0.00  0.00    +0.056 A 
ATOM      6  C   UNL     1      -4.253   1.583  24.646  0.00  0.00    +0.102 A 
ATOM     21  N   UNL     1      -4.706   1.214  25.227  0.00  0.00    -0.082 NA
ATOM     22  O   UNL     1      -4.625   0.398  25.134  0.00  0.00    -0.356 OA
BRANCH   4   3
ATOM      3  C   UNL     1      -3.888  -0.474  24.208  0.00  0.00    +0.209 C 
BRANCH   3   2
ATOM      1  C   UNL     1      -4.191  -1.837  23.907  0.00  0.00    +0.175 C 
ATOM      2  O   UNL     1      -4.426  -1.099  24.191  0.00  0.00    -0.343 OA
ENDBRANCH   3   2
ENDBRANCH   4   3
ENDBRANCH   7   6
ENDBRANCH   8   7
BRANCH   8  12
ATOM     12  N   UNL     1      -3.471   2.968  25.270  0.00  0.00    -0.211 NA
BRANCH  12  13
ATOM     13  C   UNL     1      -3.116   3.709  25.349  0.00  0.00    +0.117 C 
BRANCH  13  14
ATOM     14  C   UNL     1      -2.294   3.771  25.376  0.00  0.00    +0.023 A 
ATOM     15  C   UNL     1      -1.848   3.176  25.734  0.00  0.00    -0.001 A 
ATOM     16  C   UNL     1      -1.025   3.236  25.762  0.00  0.00    -0.000 A 
ATOM     17  C   UNL     1      -0.649   3.892  25.431  0.00  0.00    +0.002 A 
ATOM     18  C   UNL     1      -1.095   4.487  25.072  0.00  0.00    +0.029 A 
ATOM     19  C   UNL     1      -1.918   4.425  25.045  0.00  0.00    +0.137 A 
ATOM     20  F   UNL     1      -2.363   5.020  24.686  0.00  0.00    -0.204 F 
ENDBRANCH  13  14
ENDBRANCH  12  13
ENDBRANCH   8  12
TORSDOF 7
ENDMDL
MODEL 4
REMARK VINA RESULT:      -8.4      1.545      1.725
REMARK  Name = 
REMARK  7 active torsions:
REMARK  status: ('A' for Active; 'I' for Inactive)
REMARK    1  A    between atoms: O_2  and  C_3
REMARK    2  A    between atoms: C_3  and  C_4
REMARK    3  A    between atoms: C_6  and  C_7
REMARK    4  A    between atoms: C_7  and  C_8
REMARK    5  A    between atoms: C_8  and  N_12
REMARK    6  A    between atoms: N_12  and  C_13
REMARK    7  A    between atoms: C_13  and  C_14
REMARK                            x       y       z     vdW  Elec       q    Type
REMARK                         _______ _______ _______ _____ _____    ______ ____
ROOT
ATOM      8  C   UNL     1      -4.018   0.731  24.698  0.00  0.00    +0.120 C 
ATOM      9  C   UNL     1      -4.626   0.550  25.227  0.00  0.00    +0.161 C 
ATOM     10  O   UNL     1      -4.922   1.317  25.148  0.00  0.00    -0.351 OA
ATOM     11  C   UNL     1      -4.315   1.497  24.620  0.00  0.00    +0.161 C 
ENDROOT
BRANCH   8   7
ATOM      7  C   UNL     1      -3.411   0.911  24.170  0.00  0.00    +0.070 C 
BRANCH   7   6
ATOM      4  C   UNL     1      -1.425   1.598  24.544  0.00  0.00    +0.184 A 
ATOM      5  C   UNL     1      -1.971   1.193  24.078  0.00  0.00    +0.056 A 
ATOM      6  C   UNL     1      -2.707   1.240  24.447  0.00  0.00    +0.102 A 
ATOM     21  N   UNL     1      -2.617   1.674  25.142  0.00  0.00    -0.082 NA
ATOM     22  O   UNL     1      -1.824   1.896  25.202  0.00  0.00    -0.356 OA
BRANCH   4   3
ATOM      3  C   UNL     1      -0.622   1.690  24.382  0.00  0.00    +0.209 C 
BRANCH   3   2
ATOM      1  C   UNL     1       0.638   1.120  24.021  0.00  0.00    +0.175 C 
ATOM      2  O   UNL     1      -0.179   1.048  24.113  0.00  0.00    -0.343 OA
ENDBRANCH   3   2
ENDBRANCH   4   3
ENDBRANCH   7   6
ENDBRANCH   8   7
BRANCH   8  12
ATOM     12  N   UNL     1      -3.723  -0.036  24.777  0.00  0.00    -0.211 NA
BRANCH  12  13
ATOM     13  C   UNL     1      -4.201  -0.682  24.592  0.00  0.00    +0.117 C 
BRANCH  13  14
ATOM     14  C   UNL     1      -3.891  -1.446  24.624  0.00  0.00    +0.023 A 
ATOM     15  C   UNL     1      -3.495  -1.702  25.301  0.00  0.00    -0.001 A 
ATOM     16  C   UNL     1      -3.184  -2.466  25.334  0.00  0.00    -0.000 A 
ATOM     17  C   UNL     1      -3.269  -2.973  24.688  0.00  0.00    +0.002 A 
ATOM     18  C   UNL     1      -3.664  -2.717  24.011  0.00  0.00    +0.029 A 
ATOM     19  C   UNL     1      -3.975  -1.953  23.979  0.00  0.00    +0.137 A 
ATOM     20  F   UNL     1      -4.370  -1.697  23.302  0.00  0.00    -0.204 F 
ENDBRANCH  13  14
ENDBRANCH  12  13
ENDBRANCH   8  12
TORSDOF 7
ENDMDL
MODEL 5
REMARK VINA RESULT:      -8.4      2.576      3.878
REMARK  Name = 
REMARK  7 active torsions:
REMARK  status: ('A' for Active; 'I' for Inactive)
REMARK    1  A    between atoms: O_2  and  C_3
REMARK    2  A    between atoms: C_3  and  C_4
REMARK    3  A    between atoms: C_6  and  C_7
REMARK    4  A    between atoms: C_7  and  C_8
REMARK    5  A    between atoms: C_8  and  N_12
REMARK    6  A    between atoms: N_12  and  C_13
REMARK    7  A    between atoms: C_13  and  C_14
REMARK                            x       y       z     vdW  Elec       q    Type
REMARK                         _______ _______ _______ _____ _____    ______ ____
ROOT
ATOM      8  C   UNL     1      -3.683  -0.918  24.645  0.00  0.00    +0.120 C 
ATOM      9  C   UNL     1      -4.293  -0.987  24.093  0.00  0.00    +0.161 C 
ATOM     10  O   UNL     1      -4.244  -1.809  24.142  0.00  0.00    -0.351 OA
ATOM     11  C   UNL     1      -3.634  -1.740  24.692  0.00  0.00    +0.161 C 
ENDROOT
BRANCH   8   7
ATOM      7  C   UNL     1      -3.073  -0.849  25.195  0.00  0.00    +0.070 C 
BRANCH   7   6
ATOM      4  C   UNL     1      -1.015  -0.942  24.634  0.00  0.00    +0.184 A 
ATOM      5  C   UNL     1      -1.691  -0.510  24.825  0.00  0.00    +0.056 A 
ATOM      6  C   UNL     1      -2.300  -1.043  24.982  0.00  0.00    +0.102 A 
ATOM     21  N   UNL     1      -2.001  -1.806  24.889  0.00  0.00    -0.082 NA
ATOM     22  O   UNL     1      -1.207  -1.744  24.674  0.00  0.00    -0.356 OA
BRANCH   4   3
ATOM      3  C   UNL     1      -0.278  -0.629  24.439  0.00  0.00    +0.209 C 
BRANCH   3   2
ATOM      1  C   UNL     1       0.655  -0.208  23.442  0.00  0.00    +0.175 C 
ATOM      2  O   UNL     1      -0.031  -0.615  23.652  0.00  0.00    -0.343 OA
ENDBRANCH   3   2
ENDBRANCH   4   3
ENDBRANCH   7   6
ENDBRANCH   8   7
BRANCH   8  12
ATOM     12  N   UNL     1      -3.732  -0.096  24.596  0.00  0.00    -0.211 NA
BRANCH  12  13
ATOM     13  C   UNL     1      -4.448   0.283  24.753  0.00  0.00    +0.117 C 
BRANCH  13  14
ATOM     14  C   UNL     1      -4.493   1.107  24.722  0.00  0.00    +0.023 A 
ATOM     15  C   UNL     1      -4.048   1.523  24.166  0.00  0.00    -0.001 A 
ATOM     16  C   UNL     1      -4.092   2.346  24.135  0.00  0.00    -0.000 A 
ATOM     17  C   UNL     1      -4.582   2.753  24.660  0.00  0.00    +0.002 A 
ATOM     18  C   UNL     1      -5.028   2.336  25.216  0.00  0.00    +0.029 A 
ATOM     19  C   UNL     1      -4.983   1.513  25.246  0.00  0.00    +0.137 A 
ATOM     20  F   UNL     1      -5.428   1.097  25.802  0.00  0.00    -0.204 F 
ENDBRANCH  13  14
ENDBRANCH  12  13
ENDBRANCH   8  12
TORSDOF 7
ENDMDL
MODEL 6
REMARK VINA RESULT:      -8.3      1.702      2.637
REMARK  Name = 
REMARK  7 active torsions:
REMARK  status: ('A' for Active; 'I' for Inactive)
REMARK    1  A    between atoms: O_2  and  C_3
REMARK    2  A    between atoms: C_3  and  C_4
REMARK    3  A    between atoms: C_6  and  C_7
REMARK    4  A    between atoms: C_7  and  C_8
REMARK    5  A    between atoms: C_8  and  N_12
REMARK    6  A    between atoms: N_12  and  C_13
REMARK    7  A    between atoms: C_13  and  C_14
REMARK                            x       y       z     vdW  Elec       q    Type
REMARK                         _______ _______ _______ _____ _____    ______ ____
ROOT
ATOM      8  C   UNL     1      -1.538   0.771  24.940  0.00  0.00    +0.120 C 
ATOM      9  C   UNL     1      -1.016   0.401  25.462  0.00  0.00    +0.161 C 
ATOM     10  O   UNL     1      -0.481   1.022  25.366  0.00  0.00    -0.351 OA
ATOM     11  C   UNL     1      -1.003   1.392  24.845  0.00  0.00    +0.161 C 
ENDROOT
BRANCH   8   7
ATOM      7  C   UNL     1      -2.060   1.140  24.419  0.00  0.00    +0.070 C 
BRANCH   7   6
ATOM      4  C   UNL     1      -3.554   2.594  24.878  0.00  0.00    +0.184 A 
ATOM      5  C   UNL     1      -3.320   1.891  24.515  0.00  0.00    +0.056 A 
ATOM      6  C   UNL     1      -2.519   1.776  24.675  0.00  0.00    +0.102 A 
ATOM     21  N   UNL     1      -2.258   2.406  25.138  0.00  0.00    -0.082 NA
ATOM     22  O   UNL     1      -2.897   2.912  25.263  0.00  0.00    -0.356 OA
BRANCH   4   3
ATOM      3  C   UNL     1      -4.311   2.921  24.860  0.00  0.00    +0.209 C 
BRANCH   3   2
ATOM      1  C   UNL     1      -5.495   3.331  25.545  0.00  0.00    +0.175 C 
ATOM      2  O   UNL     1      -4.712   3.073  25.565  0.00  0.00    -0.343 OA
ENDBRANCH   3   2
ENDBRANCH   4   3
ENDBRANCH   7   6
ENDBRANCH   8   7
BRANCH   8  12
ATOM     12  N   UNL     1      -2.073   0.150  25.036  0.00  0.00    -0.211 NA
BRANCH  12  13
ATOM     13  C   UNL     1      -1.817  -0.630  24.950  0.00  0.00    +0.117 C 
BRANCH  13  14
ATOM     14  C   UNL     1      -2.364  -1.248  24.980  0.00  0.00    +0.023 A 
ATOM     15  C   UNL     1      -3.022  -1.191  25.474  0.00  0.00    -0.001 A 
ATOM     16  C   UNL     1      -3.569  -1.808  25.505  0.00  0.00    -0.000 A 
ATOM     17  C   UNL     1      -3.457  -2.482  25.042  0.00  0.00    +0.002 A 
ATOM     18  C   UNL     1      -2.798  -2.538  24.547  0.00  0.00    +0.029 A 
ATOM     19  C   UNL     1      -2.252  -1.920  24.517  0.00  0.00    +0.137 A 
ATOM     20  F   UNL     1      -1.594  -1.977  24.023  0.00  0.00    -0.204 F 
ENDBRANCH  13  14
ENDBRANCH  12  13
ENDBRANCH   8  12
TORSDOF 7
ENDMDL
MODEL 7
REMARK VINA RESULT:      -8.1      2.292      4.228
REMARK  Name = 
REMARK  7 active torsions:
REMARK  status: ('A' for Active; 'I' for Inactive)
REMARK    1  A    between atoms: O_2  and  C_3
REMARK    2  A    between atoms: C_3  and  C_4
REMARK    3  A    between atoms: C_6  and  C_7
REMARK    4  A    between atoms: C_7  and  C_8
REMARK    5  A    between atoms: C_8  and  N_12
REMARK    6  A    between atoms: N_12  and  C_13
REMARK    7  A    between atoms: C_13  and  C_14
REMARK                            x       y       z     vdW  Elec       q    Type
REMARK                         _______ _______ _______ _____ _____    ______ ____
ROOT
ATOM      8  C   UNL     1      -2.652   1.574  23.936  0.00  0.00    +0.120 C 
ATOM      9  C   UNL     1      -2.945   1.940  23.256  0.00  0.00    +0.161 C 
ATOM     10  O   UNL     1      -2.204   1.867  22.899  0.00  0.00    -0.351 OA
ATOM     11  C   UNL     1      -1.912   1.501  23.578  0.00  0.00    +0.161 C 
ENDROOT
BRANCH   8   7
ATOM      7  C   UNL     1      -2.360   1.208  24.615  0.00  0.00    +0.070 C 
BRANCH   7   6
ATOM      4  C   UNL     1      -2.288  -0.921  24.747  0.00  0.00    +0.184 A 
ATOM      5  C   UNL     1      -2.686  -0.206  24.849  0.00  0.00    +0.056 A 
ATOM      6  C   UNL     1      -2.185   0.402  24.607  0.00  0.00    +0.102 A 
ATOM     21  N   UNL     1      -1.476   0.064  24.355  0.00  0.00    -0.082 NA
ATOM     22  O   UNL     1      -1.540  -0.754  24.441  0.00  0.00    -0.356 OA
BRANCH   4   3
ATOM      3  C   UNL     1      -2.585  -1.671  24.919  0.00  0.00    +0.209 C 
BRANCH   3   2
ATOM      1  C   UNL     1      -3.400  -2.788  24.562  0.00  0.00    +0.175 C 
ATOM      2  O   UNL     1      -3.042  -2.072  24.363  0.00  0.00    -0.343 OA
ENDBRANCH   3   2
ENDBRANCH   4   3
ENDBRANCH   7   6
ENDBRANCH   8   7
BRANCH   8  12
ATOM     12  N   UNL     1      -3.392   1.647  24.293  0.00  0.00    -0.211 NA
BRANCH  12  13
ATOM     13  C   UNL     1      -3.735   2.393  24.381  0.00  0.00    +0.117 C 
BRANCH  13  14
ATOM     14  C   UNL     1      -4.451   2.472  24.784  0.00  0.00    +0.023 A 
ATOM     15  C   UNL     1      -5.050   1.914  24.673  0.00  0.00    -0.001 A 
ATOM     16  C   UNL     1      -5.766   1.992  25.076  0.00  0.00    -0.000 A 
ATOM     17  C   UNL     1      -5.883   2.628  25.588  0.00  0.00    +0.002 A 
ATOM     18  C   UNL     1      -5.284   3.186  25.699  0.00  0.00    +0.029 A 
ATOM     19  C   UNL     1      -4.569   3.106  25.296  0.00  0.00    +0.137 A 
ATOM     20  F   UNL     1      -3.970   3.664  25.406  0.00  0.00    -0.204 F 
ENDBRANCH  13  14
ENDBRANCH  12  13
ENDBRANCH   8  12
TORSDOF 7
ENDMDL
