MODEL 1
REMARK VINA RESULT:      -8.8      0.000      0.000
REMARK  Name = 
REMARK  10 active torsions:
REMARK  status: ('A' for Active; 'I' for Inactive)
REMARK    1  A    between atoms: S_2  and  C_3
REMARK    2  A    between atoms: C_3  and  C_4
REMARK    3  A    between atoms: C_8  and  N_25
REMARK    4  A    between atoms: C_10  and  C_11
REMARK    5  A    between atoms: N_13  and  C_14
REMARK    6  A    between atoms: C_14  and  C_15
REMARK    7  A    between atoms: C_14  and  C_22
REMARK    8  A    between atoms: C_15  and  C_16
REMARK    9  A    between atoms: N_28  and  C_29
REMARK   10  A    between atoms: C_29  and  C_30
REMARK                            x       y       z     vdW  Elec       q    Type
REMARK                         _______ _______ _______ _____ _____    ______ ____
ROOT
ATOM      4  C   UNL     1      -1.060  -0.677  24.883  0.00  0.00    +0.237 C 
ATOM      5  O   UNL     1      -0.777  -1.368  25.233  0.00  0.00    -0.274 OA
ATOM      6  N   UNL     1      -0.632  -0.317  24.276  0.00  0.00    -0.270 N 
ATOM      7  C   UNL     1       0.084  -0.584  23.963  0.00  0.00    +0.116 C 
ATOM      8  C   UNL     1       0.314  -0.061  23.369  0.00  0.00    +0.119 C 
ATOM      9  C   UNL     1      -0.259   0.530  23.314  0.00  0.00    +0.053 C 
ATOM     10  C   UNL     1      -0.844   0.371  23.875  0.00  0.00    +0.155 C 
ENDROOT
BRANCH   8  25
ATOM     25  N   UNL     1       0.997  -0.118  22.910  0.00  0.00    -0.187 NA
ATOM     26  C   UNL     1       1.666   0.323  23.108  0.00  0.00    +0.340 C 
ATOM     27  O   UNL     1       1.651   0.821  23.766  0.00  0.00    -0.249 OA
ATOM     28  N   UNL     1       2.349   0.266  22.650  0.00  0.00    -0.182 NA
BRANCH  28  29
ATOM     29  C   UNL     1       3.017   0.706  22.848  0.00  0.00    +0.143 C 
BRANCH  29  30
ATOM     30  C   UNL     1       3.730   0.573  22.456  0.00  0.00    -0.003 C 
ATOM     31  C   UNL     1       4.442   0.801  22.805  0.00  0.00    -0.003 C 
ENDBRANCH  29  30
ENDBRANCH  28  29
ENDBRANCH   8  25
BRANCH  10  11
ATOM     11  C   UNL     1      -1.521   0.823  24.010  0.00  0.00    +0.260 C 
ATOM     12  O   UNL     1      -2.234   0.453  24.194  0.00  0.00    -0.272 OA
ATOM     13  N   UNL     1      -1.484   1.646  23.960  0.00  0.00    -0.196 NA
BRANCH  13  14
ATOM     14  C   UNL     1      -2.161   2.098  24.095  0.00  0.00    +0.179 C 
BRANCH  14  22
ATOM     22  C   UNL     1      -2.731   2.173  23.505  0.00  0.00    +0.281 C 
ATOM     23  N   UNL     1      -3.529   2.066  23.684  0.00  0.00    -0.086 NA
ATOM     24  O   UNL     1      -2.503   2.357  22.733  0.00  0.00    -0.270 OA
ENDBRANCH  14  22
BRANCH  14  15
ATOM     15  C   UNL     1      -2.267   2.473  24.823  0.00  0.00    +0.057 C 
BRANCH  15  16
ATOM     16  C   UNL     1      -1.923   3.210  24.960  0.00  0.00    -0.020 A 
ATOM     17  C   UNL     1      -1.104   3.274  25.039  0.00  0.00    -0.004 A 
ATOM     18  C   UNL     1      -0.759   4.011  25.176  0.00  0.00    -0.000 A 
ATOM     19  C   UNL     1      -1.233   4.683  25.235  0.00  0.00    -0.000 A 
ATOM     20  C   UNL     1      -2.052   4.620  25.157  0.00  0.00    -0.000 A 
ATOM     21  C   UNL     1      -2.396   3.882  25.020  0.00  0.00    -0.004 A 
ENDBRANCH  15  16
ENDBRANCH  14  15
ENDBRANCH  13  14
ENDBRANCH  10  11
BRANCH   4   3
ATOM      3  C   UNL     1      -1.770  -0.344  25.139  0.00  0.00    +0.143 C 
BRANCH   3   2
ATOM      1  C   UNL     1      -2.883  -0.981  25.770  0.00  0.00    +0.070 C 
ATOM      2  S   UNL     1      -2.137  -0.631  25.820  0.00  0.00    -0.130 S 
ENDBRANCH   3   2
ENDBRANCH   4   3
TORSDOF 10
ENDMDL
MODEL 2
REMARK VINA RESULT:      -8.4      1.485      3.675
REMARK  Name = 
REMARK  10 active torsions:
REMARK  status: ('A' for Active; 'I' for Inactive)
REMARK    1  A    between atoms: S_2  and  C_3
REMARK    2  A    between atoms: C_3  and  C_4
REMARK    3  A    between atoms: C_8  and  N_25
REMARK    4  A    between atoms: C_10  and  C_11
REMARK    5  A    between atoms: N_13  and  C_14
REMARK    6  A    between atoms: C_14  and  C_15
REMARK    7  A    between atoms: C_14  and  C_22
REMARK    8  A    between atoms: C_15  and  C_16
REMARK    9  A    between atoms: N_28  and  C_29
REMARK   10  A    between atoms: C_29  and  C_30
REMARK                            x       y       z     vdW  Elec       q    Type
REMARK                         _______ _______ _______ _____ _____    ______ ____
ROOT
ATOM      4  C   UNL     1      -1.459   1.786  23.919  0.00  0.00    +0.237 C 
ATOM      5  O   UNL     1      -1.391   2.473  23.468  0.00  0.00    -0.274 OA
ATOM      6  N   UNL     1      -0.910   1.177  23.829  0.00  0.00    -0.270 N 
ATOM      7  C   UNL     1      -0.267   1.176  23.312  0.00  0.00    +0.116 C 
ATOM      8  C   UNL     1       0.134   0.461  23.403  0.00  0.00    +0.119 C 
ATOM      9  C   UNL     1      -0.262   0.020  23.977  0.00  0.00    +0.053 C 
ATOM     10  C   UNL     1      -0.907   0.462  24.240  0.00  0.00    +0.155 C 
ENDROOT
BRANCH   8  25
ATOM     25  N   UNL     1       0.810   0.229  22.993  0.00  0.00    -0.187 NA
ATOM     26  C   UNL     1       1.541   0.565  23.177  0.00  0.00    +0.340 C 
ATOM     27  O   UNL     1       1.595   1.134  23.772  0.00  0.00    -0.249 OA
ATOM     28  N   UNL     1       2.217   0.332  22.767  0.00  0.00    -0.182 NA
BRANCH  28  29
ATOM     29  C   UNL     1       2.947   0.668  22.952  0.00  0.00    +0.143 C 
BRANCH  29  30
ATOM     30  C   UNL     1       3.607   0.505  22.484  0.00  0.00    -0.003 C 
ATOM     31  C   UNL     1       4.365   0.570  22.802  0.00  0.00    -0.003 C 
ENDBRANCH  29  30
ENDBRANCH  28  29
ENDBRANCH   8  25
BRANCH  10  11
ATOM     11  C   UNL     1      -1.453   0.229  24.814  0.00  0.00    +0.260 C 
ATOM     12  O   UNL     1      -1.674   0.754  25.409  0.00  0.00    -0.272 OA
ATOM     13  N   UNL     1      -1.776  -0.530  24.790  0.00  0.00    -0.196 NA
BRANCH  13  14
ATOM     14  C   UNL     1      -2.322  -0.763  25.363  0.00  0.00    +0.179 C 
BRANCH  14  22
ATOM     22  C   UNL     1      -2.062  -0.992  26.111  0.00  0.00    +0.281 C 
ATOM     23  N   UNL     1      -1.347  -1.396  26.194  0.00  0.00    -0.086 NA
ATOM     24  O   UNL     1      -2.517  -0.817  26.777  0.00  0.00    -0.270 OA
ENDBRANCH  14  22
BRANCH  14  15
ATOM     15  C   UNL     1      -3.128  -0.765  25.187  0.00  0.00    +0.057 C 
BRANCH  15  16
ATOM     16  C   UNL     1      -3.452  -1.383  24.748  0.00  0.00    -0.020 A 
ATOM     17  C   UNL     1      -3.958  -1.220  24.116  0.00  0.00    -0.004 A 
ATOM     18  C   UNL     1      -4.281  -1.838  23.677  0.00  0.00    -0.000 A 
ATOM     19  C   UNL     1      -4.100  -2.620  23.868  0.00  0.00    -0.000 A 
ATOM     20  C   UNL     1      -3.595  -2.784  24.499  0.00  0.00    -0.000 A 
ATOM     21  C   UNL     1      -3.271  -2.165  24.939  0.00  0.00    -0.004 A 
ENDBRANCH  15  16
ENDBRANCH  14  15
ENDBRANCH  13  14
ENDBRANCH  10  11
BRANCH   4   3
ATOM      3  C   UNL     1      -2.076   1.708  24.462  0.00  0.00    +0.143 C 
BRANCH   3   2
ATOM      1  C   UNL     1      -3.280   2.475  24.388  0.00  0.00    +0.070 C 
ATOM      2  S   UNL     1      -2.516   2.369  24.684  0.00  0.00    -0.130 S 
ENDBRANCH   3   2
ENDBRANCH   4   3
TORSDOF 10
ENDMDL
MODEL 3
REMARK VINA RESULT:      -8.3      1.963      5.386
REMARK  Name = 
REMARK  10 active torsions:
REMARK  status: ('A' for Active; 'I' for Inactive)
REMARK    1  A    between atoms: S_2  and  C_3
REMARK    2  A    between atoms: C_3  and  C_4
REMARK    3  A    between atoms: C_8  and  N_25
REMARK    4  A    between atoms: C_10  and  C_11
REMARK    5  A    between atoms: N_13  and  C_14
REMARK    6  A    between atoms: C_14  and  C_15
REMARK    7  A    between atoms: C_14  and  C_22
REMARK    8  A    between atoms: C_15  and  C_16
REMARK    9  A    between atoms: N_28  and  C_29
REMARK   10  A    between atoms: C_29  and  C_30
REMARK                            x       y       z     vdW  Elec       q    Type
REMARK                         _______ _______ _______ _____ _____    ______ ____
ROOT
ATOM      4  C   UNL     1      -0.245   1.524  23.967  0.00  0.00    +0.237 C 
ATOM      5  O   UNL     1       0.110   2.142  23.551  0.00  0.00    -0.274 OA
ATOM      6  N   UNL     1      -0.891   1.674  24.457  0.00  0.00    -0.270 N 
ATOM      7  C   UNL     1      -1.241   2.410  24.587  0.00  0.00    +0.116 C 
ATOM      8  C   UNL     1      -1.867   2.306  25.114  0.00  0.00    +0.119 C 
ATOM      9  C   UNL     1      -1.904   1.506  25.310  0.00  0.00    +0.053 C 
ATOM     10  C   UNL     1      -1.301   1.115  24.904  0.00  0.00    +0.155 C 
ENDROOT
BRANCH   8  25
ATOM     25  N   UNL     1      -2.367   2.898  25.395  0.00  0.00    -0.187 NA
ATOM     26  C   UNL     1      -3.140   2.955  25.113  0.00  0.00    +0.340 C 
ATOM     27  O   UNL     1      -3.413   2.418  24.549  0.00  0.00    -0.249 OA
ATOM     28  N   UNL     1      -3.640   3.547  25.394  0.00  0.00    -0.182 NA
BRANCH  28  29
ATOM     29  C   UNL     1      -4.413   3.603  25.112  0.00  0.00    +0.143 C 
BRANCH  29  30
ATOM     30  C   UNL     1      -4.953   4.105  25.482  0.00  0.00    -0.003 C 
ATOM     31  C   UNL     1      -5.743   3.882  25.552  0.00  0.00    -0.003 C 
ENDBRANCH  29  30
ENDBRANCH  28  29
ENDBRANCH   8  25
BRANCH  10  11
ATOM     11  C   UNL     1      -1.137   0.307  24.940  0.00  0.00    +0.260 C 
ATOM     12  O   UNL     1      -0.362   0.039  24.865  0.00  0.00    -0.272 OA
ATOM     13  N   UNL     1      -1.752  -0.233  25.051  0.00  0.00    -0.196 NA
BRANCH  13  14
ATOM     14  C   UNL     1      -1.588  -1.041  25.087  0.00  0.00    +0.179 C 
BRANCH  14  22
ATOM     22  C   UNL     1      -1.216  -1.357  25.750  0.00  0.00    +0.281 C 
ATOM     23  N   UNL     1      -0.585  -1.881  25.660  0.00  0.00    -0.086 NA
ATOM     24  O   UNL     1      -1.474  -1.150  26.506  0.00  0.00    -0.270 OA
ENDBRANCH  14  22
BRANCH  14  15
ATOM     15  C   UNL     1      -1.798  -1.531  24.457  0.00  0.00    +0.057 C 
BRANCH  15  16
ATOM     16  C   UNL     1      -2.578  -1.784  24.374  0.00  0.00    -0.020 A 
ATOM     17  C   UNL     1      -3.141  -1.283  24.037  0.00  0.00    -0.004 A 
ATOM     18  C   UNL     1      -3.921  -1.536  23.954  0.00  0.00    -0.000 A 
ATOM     19  C   UNL     1      -4.140  -2.290  24.207  0.00  0.00    -0.000 A 
ATOM     20  C   UNL     1      -3.579  -2.791  24.544  0.00  0.00    -0.000 A 
ATOM     21  C   UNL     1      -2.797  -2.538  24.628  0.00  0.00    -0.004 A 
ENDBRANCH  15  16
ENDBRANCH  14  15
ENDBRANCH  13  14
ENDBRANCH  10  11
BRANCH   4   3
ATOM      3  C   UNL     1       0.045   0.755  23.891  0.00  0.00    +0.143 C 
BRANCH   3   2
ATOM      1  C   UNL     1       0.814   0.081  22.893  0.00  0.00    +0.070 C 
ATOM      2  S   UNL     1       0.767   0.622  23.514  0.00  0.00    -0.130 S 
ENDBRANCH   3   2
ENDBRANCH   4   3
TORSDOF 10
ENDMDL
MODEL 4
REMARK VINA RESULT:      -8.2      3.167      4.651
REMARK  Name = 
REMARK  10 active torsions:
REMARK  status: ('A' for Active; 'I' for Inactive)
REMARK    1  A    between atoms: S_2  and  C_3
REMARK    2  A    between atoms: C_3  and  C_4
REMARK    3  A    between atoms: C_8  and  N_25
REMARK    4  A    between atoms: C_10  and  C_11
REMARK    5  A    between atoms: N_13  and  C_14
REMARK    6  A    between atoms: C_14  and  C_15
REMARK    7  A    between atoms: C_14  and  C_22
REMARK    8  A    between atoms: C_15  and  C_16
REMARK    9  A    between atoms: N_28  and  C_29
REMARK   10  A    between atoms: C_29  and  C_30
REMARK                            x       y       z     vdW  Elec       q    Type
REMARK                         _______ _______ _______ _____ _____    ______ ____
ROOT
ATOM      4  C   UNL     1      -5.238   2.342  25.170  0.00  0.00    +0.237 C 
ATOM      5  O   UNL     1      -6.040   2.156  25.123  0.00  0.00    -0.274 OA
ATOM      6  N   UNL     1      -4.673   1.801  24.906  0.00  0.00    -0.270 N 
ATOM      7  C   UNL     1      -4.827   1.058  24.583  0.00  0.00    +0.116 C 
ATOM      8  C   UNL     1      -4.105   0.706  24.396  0.00  0.00    +0.119 C 
ATOM      9  C   UNL     1      -3.505   1.232  24.603  0.00  0.00    +0.053 C 
ATOM     10  C   UNL     1      -3.856   1.909  24.919  0.00  0.00    +0.155 C 
ENDROOT
BRANCH   8  25
ATOM     25  N   UNL     1      -4.002  -0.040  24.061  0.00  0.00    -0.187 NA
ATOM     26  C   UNL     1      -3.913  -0.702  24.545  0.00  0.00    +0.340 C 
ATOM     27  O   UNL     1      -3.928  -0.618  25.366  0.00  0.00    -0.249 OA
ATOM     28  N   UNL     1      -3.810  -1.448  24.210  0.00  0.00    -0.182 NA
BRANCH  28  29
ATOM     29  C   UNL     1      -3.722  -2.110  24.694  0.00  0.00    +0.143 C 
BRANCH  29  30
ATOM     30  C   UNL     1      -3.719  -2.866  24.364  0.00  0.00    -0.003 C 
ATOM     31  C   UNL     1      -3.069  -3.361  24.472  0.00  0.00    -0.003 C 
ENDBRANCH  29  30
ENDBRANCH  28  29
ENDBRANCH   8  25
BRANCH  10  11
ATOM     11  C   UNL     1      -3.458   2.577  25.197  0.00  0.00    +0.260 C 
ATOM     12  O   UNL     1      -3.767   3.008  25.828  0.00  0.00    -0.272 OA
ATOM     13  N   UNL     1      -2.750   2.812  24.843  0.00  0.00    -0.196 NA
BRANCH  13  14
ATOM     14  C   UNL     1      -2.353   3.479  25.122  0.00  0.00    +0.179 C 
BRANCH  14  22
ATOM     22  C   UNL     1      -2.440   4.202  24.736  0.00  0.00    +0.281 C 
ATOM     23  N   UNL     1      -2.395   4.906  25.163  0.00  0.00    -0.086 NA
ATOM     24  O   UNL     1      -2.572   4.221  23.921  0.00  0.00    -0.270 OA
ENDBRANCH  14  22
BRANCH  14  15
ATOM     15  C   UNL     1      -1.868   3.421  25.787  0.00  0.00    +0.057 C 
BRANCH  15  16
ATOM     16  C   UNL     1      -1.119   3.082  25.724  0.00  0.00    -0.020 A 
ATOM     17  C   UNL     1      -0.801   2.661  26.359  0.00  0.00    -0.004 A 
ATOM     18  C   UNL     1      -0.053   2.322  26.296  0.00  0.00    -0.000 A 
ATOM     19  C   UNL     1       0.379   2.403  25.597  0.00  0.00    -0.000 A 
ATOM     20  C   UNL     1       0.062   2.823  24.962  0.00  0.00    -0.000 A 
ATOM     21  C   UNL     1      -0.688   3.162  25.026  0.00  0.00    -0.004 A 
ENDBRANCH  15  16
ENDBRANCH  14  15
ENDBRANCH  13  14
ENDBRANCH  10  11
BRANCH   4   3
ATOM      3  C   UNL     1      -5.000   3.068  25.482  0.00  0.00    +0.143 C 
BRANCH   3   2
ATOM      1  C   UNL     1      -5.815   4.241  25.512  0.00  0.00    +0.070 C 
ATOM      2  S   UNL     1      -5.546   3.548  25.871  0.00  0.00    -0.130 S 
ENDBRANCH   3   2
ENDBRANCH   4   3
TORSDOF 10
ENDMDL
MODEL 5
REMARK VINA RESULT:      -8.1      1.508      3.352
REMARK  Name = 
REMARK  10 active torsions:
REMARK  status: ('A' for Active; 'I' for Inactive)
REMARK    1  A    between atoms: S_2  and  C_3
REMARK    2  A    between atoms: C_3  and  C_4
REMARK    3  A    between atoms: C_8  and  N_25
REMARK    4  A    between atoms: C_10  and  C_11
REMARK    5  A    between atoms: N_13  and  C_14
REMARK    6  A    between atoms: C_14  and  C_15
REMARK    7  A    between atoms: C_14  and  C_22
REMARK    8  A    between atoms: C_15  and  C_16
REMARK    9  A    between atoms: N_28  and  C_29
REMARK   10  A    between atoms: C_29  and  C_30
REMARK                            x       y       z     vdW  Elec       q    Type
REMARK                         _______ _______ _______ _____ _____    ______ ____
ROOT
ATOM      4  C   UNL     1      -0.988   2.442  24.826  0.00  0.00    +0.237 C 
ATOM      5  O   UNL     1      -0.469   3.082  24.842  0.00  0.00    -0.274 OA
ATOM      6  N   UNL     1      -0.783   1.754  24.419  0.00  0.00    -0.270 N 
ATOM      7  C   UNL     1      -0.081   1.627  24.004  0.00  0.00    +0.116 C 
ATOM      8  C   UNL     1      -0.107   0.868  23.684  0.00  0.00    +0.119 C 
ATOM      9  C   UNL     1      -0.825   0.525  23.901  0.00  0.00    +0.053 C 
ATOM     10  C   UNL     1      -1.243   1.072  24.355  0.00  0.00    +0.155 C 
ENDROOT
BRANCH   8  25
ATOM     25  N   UNL     1       0.481   0.514  23.227  0.00  0.00    -0.187 NA
ATOM     26  C   UNL     1       1.274   0.704  23.354  0.00  0.00    +0.340 C 
ATOM     27  O   UNL     1       1.478   1.249  23.939  0.00  0.00    -0.249 OA
ATOM     28  N   UNL     1       1.862   0.351  22.897  0.00  0.00    -0.182 NA
BRANCH  28  29
ATOM     29  C   UNL     1       2.654   0.541  23.025  0.00  0.00    +0.143 C 
BRANCH  29  30
ATOM     30  C   UNL     1       3.225   0.324  22.471  0.00  0.00    -0.003 C 
ATOM     31  C   UNL     1       4.007   0.567  22.568  0.00  0.00    -0.003 C 
ENDBRANCH  29  30
ENDBRANCH  28  29
ENDBRANCH   8  25
BRANCH  10  11
ATOM     11  C   UNL     1      -1.990   0.958  24.688  0.00  0.00    +0.260 C 
ATOM     12  O   UNL     1      -2.154   1.246  25.442  0.00  0.00    -0.272 OA
ATOM     13  N   UNL     1      -2.571   0.553  24.264  0.00  0.00    -0.196 NA
BRANCH  13  14
ATOM     14  C   UNL     1      -3.317   0.439  24.596  0.00  0.00    +0.179 C 
BRANCH  14  22
ATOM     22  C   UNL     1      -3.943   0.933  24.386  0.00  0.00    +0.281 C 
ATOM     23  N   UNL     1      -4.508   1.145  24.948  0.00  0.00    -0.086 NA
ATOM     24  O   UNL     1      -4.003   1.216  23.613  0.00  0.00    -0.270 OA
ENDBRANCH  14  22
BRANCH  14  15
ATOM     15  C   UNL     1      -3.437  -0.172  25.138  0.00  0.00    +0.057 C 
BRANCH  15  16
ATOM     16  C   UNL     1      -3.568  -0.941  24.871  0.00  0.00    -0.020 A 
ATOM     17  C   UNL     1      -3.211  -1.578  25.257  0.00  0.00    -0.004 A 
ATOM     18  C   UNL     1      -3.342  -2.347  24.990  0.00  0.00    -0.000 A 
ATOM     19  C   UNL     1      -3.829  -2.480  24.337  0.00  0.00    -0.000 A 
ATOM     20  C   UNL     1      -4.186  -1.844  23.952  0.00  0.00    -0.000 A 
ATOM     21  C   UNL     1      -4.055  -1.074  24.219  0.00  0.00    -0.004 A 
ENDBRANCH  15  16
ENDBRANCH  14  15
ENDBRANCH  13  14
ENDBRANCH  10  11
BRANCH   4   3
ATOM      3  C   UNL     1      -1.713   2.488  25.218  0.00  0.00    +0.143 C 
BRANCH   3   2
ATOM      1  C   UNL     1      -2.316   3.743  25.538  0.00  0.00    +0.070 C 
ATOM      2  S   UNL     1      -1.852   3.097  25.757  0.00  0.00    -0.130 S 
ENDBRANCH   3   2
ENDBRANCH   4   3
TORSDOF 10
ENDMDL
MODEL 6
REMARK VINA RESULT:      -8.1      2.445      4.079
REMARK  Name = 
REMARK  10 active torsions:
REMARK  status: ('A' for Active; 'I' for Inactive)
REMARK    1  A    between atoms: S_2  and  C_3
REMARK    2  A    between atoms: C_3  and  C_4
REMARK    3  A    between atoms: C_8  and  N_25
REMARK    4  A    between atoms: C_10  and  C_11
REMARK    5  A    between atoms: N_13  and  C_14
REMARK    6  A    between atoms: C_14  and  C_15
REMARK    7  A    between atoms: C_14  and  C_22
REMARK    8  A    between atoms: C_15  and  C_16
REMARK    9  A    between atoms: N_28  and  C_29
REMARK   10  A    between atoms: C_29  and  C_30
REMARK                            x       y       z     vdW  Elec       q    Type
REMARK                         _______ _______ _______ _____ _____    ______ ____
ROOT
ATOM      4  C   UNL     1      -0.987   2.357  25.278  0.00  0.00    +0.237 C 
ATOM      5  O   UNL     1      -0.289   2.280  25.711  0.00  0.00    -0.274 OA
ATOM      6  N   UNL     1      -1.329   1.695  24.925  0.00  0.00    -0.270 N 
ATOM      7  C   UNL     1      -1.039   0.923  24.958  0.00  0.00    +0.116 C 
ATOM      8  C   UNL     1      -1.551   0.438  24.531  0.00  0.00    +0.119 C 
ATOM      9  C   UNL     1      -2.159   0.911  24.234  0.00  0.00    +0.053 C 
ATOM     10  C   UNL     1      -2.021   1.687  24.478  0.00  0.00    +0.155 C 
ENDROOT
BRANCH   8  25
ATOM     25  N   UNL     1      -1.470  -0.375  24.420  0.00  0.00    -0.187 NA
ATOM     26  C   UNL     1      -2.039  -0.891  24.721  0.00  0.00    +0.340 C 
ATOM     27  O   UNL     1      -2.689  -0.594  25.133  0.00  0.00    -0.249 OA
ATOM     28  N   UNL     1      -1.958  -1.704  24.611  0.00  0.00    -0.182 NA
BRANCH  28  29
ATOM     29  C   UNL     1      -2.526  -2.220  24.912  0.00  0.00    +0.143 C 
BRANCH  29  30
ATOM     30  C   UNL     1      -2.650  -2.953  24.554  0.00  0.00    -0.003 C 
ATOM     31  C   UNL     1      -3.398  -3.299  24.568  0.00  0.00    -0.003 C 
ENDBRANCH  29  30
ENDBRANCH  28  29
ENDBRANCH   8  25
BRANCH  10  11
ATOM     11  C   UNL     1      -2.495   2.340  24.304  0.00  0.00    +0.260 C 
ATOM     12  O   UNL     1      -2.148   3.073  24.154  0.00  0.00    -0.272 OA
ATOM     13  N   UNL     1      -3.316   2.259  24.279  0.00  0.00    -0.196 NA
BRANCH  13  14
ATOM     14  C   UNL     1      -3.789   2.912  24.105  0.00  0.00    +0.179 C 
BRANCH  14  22
ATOM     22  C   UNL     1      -3.820   3.206  23.336  0.00  0.00    +0.281 C 
ATOM     23  N   UNL     1      -3.852   4.020  23.205  0.00  0.00    -0.086 NA
ATOM     24  O   UNL     1      -3.818   2.685  22.695  0.00  0.00    -0.270 OA
ENDBRANCH  14  22
BRANCH  14  15
ATOM     15  C   UNL     1      -4.231   3.271  24.703  0.00  0.00    +0.057 C 
BRANCH  15  16
ATOM     16  C   UNL     1      -4.855   2.863  25.056  0.00  0.00    -0.020 A 
ATOM     17  C   UNL     1      -5.005   2.956  25.862  0.00  0.00    -0.004 A 
ATOM     18  C   UNL     1      -5.629   2.548  26.215  0.00  0.00    -0.000 A 
ATOM     19  C   UNL     1      -6.103   2.048  25.762  0.00  0.00    -0.000 A 
ATOM     20  C   UNL     1      -5.953   1.954  24.956  0.00  0.00    -0.000 A 
ATOM     21  C   UNL     1      -5.329   2.363  24.603  0.00  0.00    -0.004 A 
ENDBRANCH  15  16
ENDBRANCH  14  15
ENDBRANCH  13  14
ENDBRANCH  10  11
BRANCH   4   3
ATOM      3  C   UNL     1      -1.343   3.097  25.197  0.00  0.00    +0.143 C 
BRANCH   3   2
ATOM      1  C   UNL     1      -0.837   4.434  25.230  0.00  0.00    +0.070 C 
ATOM      2  S   UNL     1      -1.055   3.742  25.624  0.00  0.00    -0.130 S 
ENDBRANCH   3   2
ENDBRANCH   4   3
TORSDOF 10
ENDMDL
MODEL 7
REMARK VINA RESULT:      -7.7      2.128      3.685
REMARK  Name = 
REMARK  10 active torsions:
REMARK  status: ('A' for Active; 'I' for Inactive)
REMARK    1  A    between atoms: S_2  and  C_3
REMARK    2  A    between atoms: C_3  and  C_4
REMARK    3  A    between atoms: C_8  and  N_25
REMARK    4  A    between atoms: C_10  and  C_11
REMARK    5  A    between atoms: N_13  and  C_14
REMARK    6  A    between atoms: C_14  and  C_15
REMARK    7  A    between atoms: C_14  and  C_22
REMARK    8  A    between atoms: C_15  and  C_16
REMARK    9  A    between atoms: N_28  and  C_29
REMARK   10  A    between atoms: C_29  and  C_30
REMARK                            x       y       z     vdW  Elec       q    Type
REMARK                         _______ _______ _______ _____ _____    ______ ____
ROOT
ATOM      4  C   UNL     1      -0.841  -0.468  24.650  0.00  0.00    +0.237 C 
ATOM      5  O   UNL     1      -0.049  -0.695  24.599  0.00  0.00    -0.274 OA
ATOM      6  N   UNL     1      -1.052   0.321  24.536  0.00  0.00    -0.270 N 
ATOM      7  C   UNL     1      -0.536   0.942  24.367  0.00  0.00    +0.116 C 
ATOM      8  C   UNL     1      -0.980   1.633  24.297  0.00  0.00    +0.119 C 
ATOM      9  C   UNL     1      -1.772   1.439  24.422  0.00  0.00    +0.053 C 
ATOM     10  C   UNL     1      -1.817   0.628  24.569  0.00  0.00    +0.155 C 
ENDROOT
BRANCH   8  25
ATOM     25  N   UNL     1      -0.685   2.385  24.131  0.00  0.00    -0.187 NA
ATOM     26  C   UNL     1      -0.847   3.014  24.641  0.00  0.00    +0.340 C 
ATOM     27  O   UNL     1      -1.304   2.890  25.316  0.00  0.00    -0.249 OA
ATOM     28  N   UNL     1      -0.552   3.766  24.475  0.00  0.00    -0.182 NA
BRANCH  28  29
ATOM     29  C   UNL     1      -0.714   4.394  24.984  0.00  0.00    +0.143 C 
BRANCH  29  30
ATOM     30  C   UNL     1      -0.676   5.170  24.707  0.00  0.00    -0.003 C 
ATOM     31  C   UNL     1      -1.231   5.726  24.959  0.00  0.00    -0.003 C 
ENDBRANCH  29  30
ENDBRANCH  28  29
ENDBRANCH   8  25
BRANCH  10  11
ATOM     11  C   UNL     1      -2.506   0.201  24.723  0.00  0.00    +0.260 C 
ATOM     12  O   UNL     1      -2.489  -0.431  25.253  0.00  0.00    -0.272 OA
ATOM     13  N   UNL     1      -3.211   0.406  24.347  0.00  0.00    -0.196 NA
BRANCH  13  14
ATOM     14  C   UNL     1      -3.899  -0.021  24.501  0.00  0.00    +0.179 C 
BRANCH  14  22
ATOM     22  C   UNL     1      -4.130  -0.629  23.993  0.00  0.00    +0.281 C 
ATOM     23  N   UNL     1      -4.463  -1.319  24.299  0.00  0.00    -0.086 NA
ATOM     24  O   UNL     1      -4.027  -0.547  23.179  0.00  0.00    -0.270 OA
ENDBRANCH  14  22
BRANCH  14  15
ATOM     15  C   UNL     1      -4.357   0.160  25.163  0.00  0.00    +0.057 C 
BRANCH  15  16
ATOM     16  C   UNL     1      -4.861   0.812  25.150  0.00  0.00    -0.020 A 
ATOM     17  C   UNL     1      -5.590   0.763  24.766  0.00  0.00    -0.004 A 
ATOM     18  C   UNL     1      -6.094   1.415  24.753  0.00  0.00    -0.000 A 
ATOM     19  C   UNL     1      -5.870   2.117  25.123  0.00  0.00    -0.000 A 
ATOM     20  C   UNL     1      -5.142   2.167  25.507  0.00  0.00    -0.000 A 
ATOM     21  C   UNL     1      -4.637   1.514  25.520  0.00  0.00    -0.004 A 
ENDBRANCH  15  16
ENDBRANCH  14  15
ENDBRANCH  13  14
ENDBRANCH  10  11
BRANCH   4   3
ATOM      3  C   UNL     1      -1.422  -1.031  24.815  0.00  0.00    +0.143 C 
BRANCH   3   2
ATOM      1  C   UNL     1      -1.317  -2.438  24.590  0.00  0.00    +0.070 C 
ATOM      2  S   UNL     1      -1.205  -1.782  25.078  0.00  0.00    -0.130 S 
ENDBRANCH   3   2
ENDBRANCH   4   3
TORSDOF 10
ENDMDL
