MODEL 1
REMARK VINA RESULT:     -12.4      0.000      0.000
REMARK  Name = 
REMARK  7 active torsions:
REMARK  status: ('A' for Active; 'I' for Inactive)
REMARK    1  A    between atoms: C_2  and  C_3
REMARK    2  A    between atoms: C_3  and  C_4
REMARK    3  A    between atoms: C_4  and  C_5
REMARK    4  A    between atoms: C_5  and  C_6
REMARK    5  A    between atoms: C_15  and  C_17
REMARK    6  A    between atoms: C_25  and  C_26
REMARK    7  A    between atoms: C_26  and  C_27
REMARK                            x       y       z     vdW  Elec       q    Type
REMARK                         _______ _______ _______ _____ _____    ______ ____
ROOT
ATOM      6  C   UNL     1       0.864   0.895  23.623  0.00  0.00    +0.247 C 
ATOM      7  O   UNL     1       0.967   1.676  23.870  0.00  0.00    -0.273 OA
ATOM      8  N   UNL     1       0.119   0.544  23.664  0.00  0.00    -0.154 NA
ATOM      9  C   UNL     1      -0.524   0.974  23.953  0.00  0.00    +0.185 A 
ATOM     10  N   UNL     1      -1.298   0.697  24.027  0.00  0.00    -0.227 NA
ATOM     11  C   UNL     1      -1.758   1.308  24.338  0.00  0.00    +0.063 A 
ATOM     12  C   UNL     1      -1.268   1.961  24.457  0.00  0.00    +0.023 A 
ATOM     13  C   UNL     1      -1.580   2.659  24.766  0.00  0.00    +0.034 C 
ATOM     14  C   UNL     1      -2.381   2.705  24.957  0.00  0.00    +0.010 C 
ATOM     15  C   UNL     1      -2.692   3.404  25.266  0.00  0.00    +0.059 C 
ATOM     16  C   UNL     1      -1.904   3.628  25.171  0.00  0.00    +0.005 C 
ATOM     19  C   UNL     1      -3.493   3.449  25.457  0.00  0.00    +0.154 C 
ATOM     20  O   UNL     1      -3.805   4.147  25.766  0.00  0.00    -0.223 OA
ATOM     21  C   UNL     1      -3.984   2.796  25.339  0.00  0.00    +0.033 C 
ATOM     22  C   UNL     1      -3.672   2.097  25.029  0.00  0.00    +0.003 C 
ATOM     23  C   UNL     1      -2.870   2.052  24.839  0.00  0.00    +0.006 C 
ATOM     24  C   UNL     1      -3.360   1.398  24.720  0.00  0.00    +0.000 C 
ATOM     25  C   UNL     1      -2.559   1.353  24.529  0.00  0.00    +0.050 C 
ATOM     36  S   UNL     1      -0.505   1.754  24.219  0.00  0.00    -0.054 S 
ENDROOT
BRANCH  15  17
ATOM     17  C   UNL     1      -2.729   4.180  25.542  0.00  0.00    +0.184 C 
ATOM     18  O   UNL     1      -2.044   4.637  25.581  0.00  0.00    -0.220 OA
ENDBRANCH  15  17
BRANCH   6   5
ATOM      5  C   UNL     1       1.507   0.465  23.334  0.00  0.00    +0.087 C 
BRANCH   5   4
ATOM      4  C   UNL     1       2.206   0.854  23.135  0.00  0.00    +0.010 C 
BRANCH   4   3
ATOM      3  C   UNL     1       2.853   0.423  22.857  0.00  0.00    +0.001 C 
BRANCH   3   2
ATOM      1  C   UNL     1       4.280   0.418  22.802  0.00  0.00    +0.000 C 
ATOM      2  C   UNL     1       3.563   0.808  22.687  0.00  0.00    +0.000 C 
ENDBRANCH   3   2
ENDBRANCH   4   3
ENDBRANCH   5   4
ENDBRANCH   6   5
BRANCH  25  26
ATOM     26  C   UNL     1      -3.049   0.700  24.411  0.00  0.00    +0.091 C 
BRANCH  26  27
ATOM     27  C   UNL     1      -2.980   0.039  24.900  0.00  0.00    +0.226 C 
ATOM     28  O   UNL     1      -2.591   0.100  25.625  0.00  0.00    -0.275 OA
ATOM     29  N   UNL     1      -3.300  -0.684  24.665  0.00  0.00    -0.280 N 
ATOM     30  C   UNL     1      -3.232  -1.344  25.153  0.00  0.00    +0.093 C 
ATOM     31  C   UNL     1      -3.553  -2.067  24.918  0.00  0.00    +0.022 C 
ATOM     32  C   UNL     1      -3.942  -2.128  24.193  0.00  0.00    +0.003 C 
ATOM     33  C   UNL     1      -4.263  -2.851  23.957  0.00  0.00    +0.000 C 
ATOM     34  C   UNL     1      -4.010  -1.468  23.705  0.00  0.00    +0.022 C 
ATOM     35  C   UNL     1      -3.690  -0.745  23.940  0.00  0.00    +0.093 C 
ENDBRANCH  26  27
ENDBRANCH  25  26
TORSDOF 7
ENDMDL
MODEL 2
REMARK VINA RESULT:     -11.9      1.591      3.939
REMARK  Name = 
REMARK  7 active torsions:
REMARK  status: ('A' for Active; 'I' for Inactive)
REMARK    1  A    between atoms: C_2  and  C_3
REMARK    2  A    between atoms: C_3  and  C_4
REMARK    3  A    between atoms: C_4  and  C_5
REMARK    4  A    between atoms: C_5  and  C_6
REMARK    5  A    between atoms: C_15  and  C_17
REMARK    6  A    between atoms: C_25  and  C_26
REMARK    7  A    between atoms: C_26  and  C_27
REMARK                            x       y       z     vdW  Elec       q    Type
REMARK                         _______ _______ _______ _____ _____    ______ ____
ROOT
ATOM      6  C   UNL     1       1.610   0.185  22.979  0.00  0.00    +0.247 C 
ATOM      7  O   UNL     1       1.476  -0.628  23.018  0.00  0.00    -0.273 OA
ATOM      8  N   UNL     1       1.046   0.710  23.274  0.00  0.00    -0.154 NA
ATOM      9  C   UNL     1       0.348   0.421  23.607  0.00  0.00    +0.185 A 
ATOM     10  N   UNL     1      -0.264   0.877  23.922  0.00  0.00    -0.227 NA
ATOM     11  C   UNL     1      -0.850   0.364  24.193  0.00  0.00    +0.063 A 
ATOM     12  C   UNL     1      -0.601  -0.409  24.045  0.00  0.00    +0.023 A 
ATOM     13  C   UNL     1      -1.081  -1.045  24.259  0.00  0.00    +0.034 C 
ATOM     14  C   UNL     1      -1.810  -0.908  24.621  0.00  0.00    +0.010 C 
ATOM     15  C   UNL     1      -2.289  -1.545  24.835  0.00  0.00    +0.059 C 
ATOM     16  C   UNL     1      -1.650  -1.951  24.508  0.00  0.00    +0.005 C 
ATOM     19  C   UNL     1      -3.018  -1.408  25.197  0.00  0.00    +0.154 C 
ATOM     20  O   UNL     1      -3.498  -2.044  25.411  0.00  0.00    -0.223 OA
ATOM     21  C   UNL     1      -3.267  -0.635  25.345  0.00  0.00    +0.033 C 
ATOM     22  C   UNL     1      -2.787   0.000  25.131  0.00  0.00    +0.003 C 
ATOM     23  C   UNL     1      -2.058  -0.136  24.769  0.00  0.00    +0.006 C 
ATOM     24  C   UNL     1      -2.307   0.637  24.917  0.00  0.00    +0.000 C 
ATOM     25  C   UNL     1      -1.579   0.501  24.555  0.00  0.00    +0.050 C 
ATOM     36  S   UNL     1       0.139  -0.373  23.682  0.00  0.00    -0.054 S 
ENDROOT
BRANCH  15  17
ATOM     17  C   UNL     1      -2.547  -2.322  24.935  0.00  0.00    +0.184 C 
ATOM     18  O   UNL     1      -2.145  -2.940  24.566  0.00  0.00    -0.220 OA
ENDBRANCH  15  17
BRANCH   6   5
ATOM      5  C   UNL     1       2.308   0.474  22.647  0.00  0.00    +0.087 C 
BRANCH   5   4
ATOM      4  C   UNL     1       3.036   0.176  22.895  0.00  0.00    +0.010 C 
BRANCH   4   3
ATOM      3  C   UNL     1       3.726   0.612  22.764  0.00  0.00    +0.001 C 
BRANCH   3   2
ATOM      1  C   UNL     1       5.016   0.584  23.375  0.00  0.00    +0.000 C 
ATOM      2  C   UNL     1       4.463   0.254  22.859  0.00  0.00    +0.000 C 
ENDBRANCH   3   2
ENDBRANCH   4   3
ENDBRANCH   5   4
ENDBRANCH   6   5
BRANCH  25  26
ATOM     26  C   UNL     1      -1.827   1.273  24.703  0.00  0.00    +0.091 C 
BRANCH  26  27
ATOM     27  C   UNL     1      -1.446   1.725  25.278  0.00  0.00    +0.226 C 
ATOM     28  O   UNL     1      -0.993   1.357  25.860  0.00  0.00    -0.275 OA
ATOM     29  N   UNL     1      -1.518   2.547  25.272  0.00  0.00    -0.280 N 
ATOM     30  C   UNL     1      -1.138   2.999  25.846  0.00  0.00    +0.093 C 
ATOM     31  C   UNL     1      -1.210   3.821  25.839  0.00  0.00    +0.022 C 
ATOM     32  C   UNL     1      -1.664   4.190  25.257  0.00  0.00    +0.003 C 
ATOM     33  C   UNL     1      -1.736   5.012  25.250  0.00  0.00    +0.000 C 
ATOM     34  C   UNL     1      -2.044   3.738  24.682  0.00  0.00    +0.022 C 
ATOM     35  C   UNL     1      -1.972   2.916  24.689  0.00  0.00    +0.093 C 
ENDBRANCH  26  27
ENDBRANCH  25  26
TORSDOF 7
ENDMDL
MODEL 3
REMARK VINA RESULT:     -11.4      2.397      4.405
REMARK  Name = 
REMARK  7 active torsions:
REMARK  status: ('A' for Active; 'I' for Inactive)
REMARK    1  A    between atoms: C_2  and  C_3
REMARK    2  A    between atoms: C_3  and  C_4
REMARK    3  A    between atoms: C_4  and  C_5
REMARK    4  A    between atoms: C_5  and  C_6
REMARK    5  A    between atoms: C_15  and  C_17
REMARK    6  A    between atoms: C_25  and  C_26
REMARK    7  A    between atoms: C_26  and  C_27
REMARK                            x       y       z     vdW  Elec       q    Type
REMARK                         _______ _______ _______ _____ _____    ______ ____
ROOT
ATOM      6  C   UNL     1      -0.566   2.064  25.271  0.00  0.00    +0.247 C 
ATOM      7  O   UNL     1      -0.094   1.412  25.091  0.00  0.00    -0.273 OA
ATOM      8  N   UNL     1      -1.385   1.980  25.322  0.00  0.00    -0.154 NA
ATOM      9  C   UNL     1      -1.732   1.242  25.193  0.00  0.00    +0.185 A 
ATOM     10  N   UNL     1      -2.539   1.074  25.226  0.00  0.00    -0.227 NA
ATOM     11  C   UNL     1      -2.639   0.272  25.062  0.00  0.00    +0.063 A 
ATOM     12  C   UNL     1      -1.893  -0.056  24.928  0.00  0.00    +0.023 A 
ATOM     13  C   UNL     1      -1.822  -0.858  24.750  0.00  0.00    +0.034 C 
ATOM     14  C   UNL     1      -2.495  -1.333  24.705  0.00  0.00    +0.010 C 
ATOM     15  C   UNL     1      -2.422  -2.135  24.526  0.00  0.00    +0.059 C 
ATOM     16  C   UNL     1      -1.628  -1.912  24.507  0.00  0.00    +0.005 C 
ATOM     19  C   UNL     1      -3.095  -2.610  24.481  0.00  0.00    +0.154 C 
ATOM     20  O   UNL     1      -3.024  -3.412  24.303  0.00  0.00    -0.223 OA
ATOM     21  C   UNL     1      -3.841  -2.282  24.615  0.00  0.00    +0.033 C 
ATOM     22  C   UNL     1      -3.913  -1.480  24.793  0.00  0.00    +0.003 C 
ATOM     23  C   UNL     1      -3.240  -1.005  24.838  0.00  0.00    +0.006 C 
ATOM     24  C   UNL     1      -3.985  -0.677  24.972  0.00  0.00    +0.000 C 
ATOM     25  C   UNL     1      -3.312  -0.203  25.017  0.00  0.00    +0.050 C 
ATOM     36  S   UNL     1      -1.333   0.544  25.010  0.00  0.00    -0.054 S 
ENDROOT
BRANCH  15  17
ATOM     17  C   UNL     1      -2.074  -2.859  24.341  0.00  0.00    +0.184 C 
ATOM     18  O   UNL     1      -1.267  -2.899  24.178  0.00  0.00    -0.220 OA
ENDBRANCH  15  17
BRANCH   6   5
ATOM      5  C   UNL     1      -0.219   2.802  25.400  0.00  0.00    +0.087 C 
BRANCH   5   4
ATOM      4  C   UNL     1      -0.422   3.442  24.922  0.00  0.00    +0.010 C 
BRANCH   4   3
ATOM      3  C   UNL     1      -0.476   4.200  25.247  0.00  0.00    +0.001 C 
BRANCH   3   2
ATOM      1  C   UNL     1      -1.180   5.413  24.982  0.00  0.00    +0.000 C 
ATOM      2  C   UNL     1      -0.623   4.848  24.758  0.00  0.00    +0.000 C 
ENDBRANCH   3   2
ENDBRANCH   4   3
ENDBRANCH   5   4
ENDBRANCH   6   5
BRANCH  25  26
ATOM     26  C   UNL     1      -4.057   0.124  25.150  0.00  0.00    +0.091 C 
BRANCH  26  27
ATOM     27  C   UNL     1      -4.355   0.694  24.634  0.00  0.00    +0.226 C 
ATOM     28  O   UNL     1      -4.128   0.693  23.841  0.00  0.00    -0.275 OA
ATOM     29  N   UNL     1      -4.881   1.267  24.910  0.00  0.00    -0.280 N 
ATOM     30  C   UNL     1      -5.179   1.836  24.394  0.00  0.00    +0.093 C 
ATOM     31  C   UNL     1      -5.706   2.409  24.670  0.00  0.00    +0.022 C 
ATOM     32  C   UNL     1      -5.933   2.411  25.463  0.00  0.00    +0.003 C 
ATOM     33  C   UNL     1      -6.459   2.984  25.740  0.00  0.00    +0.000 C 
ATOM     34  C   UNL     1      -5.635   1.842  25.979  0.00  0.00    +0.022 C 
ATOM     35  C   UNL     1      -5.109   1.269  25.703  0.00  0.00    +0.093 C 
ENDBRANCH  26  27
ENDBRANCH  25  26
TORSDOF 7
ENDMDL
MODEL 4
REMARK VINA RESULT:     -10.2      2.174      3.533
REMARK  Name = 
REMARK  7 active torsions:
REMARK  status: ('A' for Active; 'I' for Inactive)
REMARK    1  A    between atoms: C_2  and  C_3
REMARK    2  A    between atoms: C_3  and  C_4
REMARK    3  A    between atoms: C_4  and  C_5
REMARK    4  A    between atoms: C_5  and  C_6
REMARK    5  A    between atoms: C_15  and  C_17
REMARK    6  A    between atoms: C_25  and  C_26
REMARK    7  A    between atoms: C_26  and  C_27
REMARK                            x       y       z     vdW  Elec       q    Type
REMARK                         _______ _______ _______ _____ _____    ______ ____
ROOT
ATOM      6  C   UNL     1      -1.039  -0.207  24.886  0.00  0.00    +0.247 C 
ATOM      7  O   UNL     1      -0.347   0.214  24.732  0.00  0.00    -0.273 OA
ATOM      8  N   UNL     1      -1.740   0.196  25.049  0.00  0.00    -0.154 NA
ATOM      9  C   UNL     1      -1.748   1.022  25.059  0.00  0.00    +0.185 A 
ATOM     10  N   UNL     1      -2.404   1.499  25.213  0.00  0.00    -0.227 NA
ATOM     11  C   UNL     1      -2.163   2.286  25.166  0.00  0.00    +0.063 A 
ATOM     12  C   UNL     1      -1.357   2.296  24.983  0.00  0.00    +0.023 A 
ATOM     13  C   UNL     1      -0.963   3.015  24.900  0.00  0.00    +0.034 C 
ATOM     14  C   UNL     1      -1.372   3.725  25.000  0.00  0.00    +0.010 C 
ATOM     15  C   UNL     1      -0.975   4.444  24.917  0.00  0.00    +0.059 C 
ATOM     16  C   UNL     1      -0.355   3.921  24.770  0.00  0.00    +0.005 C 
ATOM     19  C   UNL     1      -1.384   5.154  25.016  0.00  0.00    +0.154 C 
ATOM     20  O   UNL     1      -0.990   5.873  24.934  0.00  0.00    -0.223 OA
ATOM     21  C   UNL     1      -2.190   5.144  25.200  0.00  0.00    +0.033 C 
ATOM     22  C   UNL     1      -2.584   4.424  25.283  0.00  0.00    +0.003 C 
ATOM     23  C   UNL     1      -2.175   3.715  25.183  0.00  0.00    +0.006 C 
ATOM     24  C   UNL     1      -2.980   3.705  25.366  0.00  0.00    +0.000 C 
ATOM     25  C   UNL     1      -2.572   2.996  25.266  0.00  0.00    +0.050 C 
ATOM     36  S   UNL     1      -1.102   1.514  24.917  0.00  0.00    -0.054 S 
ENDROOT
BRANCH  15  17
ATOM     17  C   UNL     1      -0.365   4.981  24.783  0.00  0.00    +0.184 C 
ATOM     18  O   UNL     1       0.149   4.871  24.147  0.00  0.00    -0.220 OA
ENDBRANCH  15  17
BRANCH   6   5
ATOM      5  C   UNL     1      -1.032  -1.033  24.876  0.00  0.00    +0.087 C 
BRANCH   5   4
ATOM      4  C   UNL     1      -1.667  -1.446  24.551  0.00  0.00    +0.010 C 
BRANCH   4   3
ATOM      3  C   UNL     1      -1.759  -2.251  24.710  0.00  0.00    +0.001 C 
BRANCH   3   2
ATOM      1  C   UNL     1      -3.020  -2.915  24.614  0.00  0.00    +0.000 C 
ATOM      2  C   UNL     1      -2.300  -2.698  24.276  0.00  0.00    +0.000 C 
ENDBRANCH   3   2
ENDBRANCH   4   3
ENDBRANCH   5   4
ENDBRANCH   6   5
BRANCH  25  26
ATOM     26  C   UNL     1      -3.375   2.986  25.449  0.00  0.00    +0.091 C 
BRANCH  26  27
ATOM     27  C   UNL     1      -3.925   2.752  24.879  0.00  0.00    +0.226 C 
ATOM     28  O   UNL     1      -3.723   2.767  24.080  0.00  0.00    -0.275 OA
ATOM     29  N   UNL     1      -4.677   2.502  25.109  0.00  0.00    -0.280 N 
ATOM     30  C   UNL     1      -5.225   2.268  24.541  0.00  0.00    +0.093 C 
ATOM     31  C   UNL     1      -5.978   2.019  24.771  0.00  0.00    +0.022 C 
ATOM     32  C   UNL     1      -6.180   2.003  25.571  0.00  0.00    +0.003 C 
ATOM     33  C   UNL     1      -6.932   1.754  25.802  0.00  0.00    +0.000 C 
ATOM     34  C   UNL     1      -5.631   2.237  26.139  0.00  0.00    +0.022 C 
ATOM     35  C   UNL     1      -4.879   2.487  25.910  0.00  0.00    +0.093 C 
ENDBRANCH  26  27
ENDBRANCH  25  26
TORSDOF 7
ENDMDL
MODEL 5
REMARK VINA RESULT:      -9.9      2.395      5.902
REMARK  Name = 
REMARK  7 active torsions:
REMARK  status: ('A' for Active; 'I' for Inactive)
REMARK    1  A    between atoms: C_2  and  C_3
REMARK    2  A    between atoms: C_3  and  C_4
REMARK    3  A    between atoms: C_4  and  C_5
REMARK    4  A    between atoms: C_5  and  C_6
REMARK    5  A    between atoms: C_15  and  C_17
REMARK    6  A    between atoms: C_25  and  C_26
REMARK    7  A    between atoms: C_26  and  C_27
REMARK                            x       y       z     vdW  Elec       q    Type
REMARK                         _______ _______ _______ _____ _____    ______ ____
ROOT
ATOM      6  C   UNL     1      -5.432   1.694  25.120  0.00  0.00    +0.247 C 
ATOM      7  O   UNL     1      -5.818   1.000  24.896  0.00  0.00    -0.273 OA
ATOM      8  N   UNL     1      -4.613   1.696  25.222  0.00  0.00    -0.154 NA
ATOM      9  C   UNL     1      -4.181   1.004  25.098  0.00  0.00    +0.185 A 
ATOM     10  N   UNL     1      -3.363   0.923  25.178  0.00  0.00    -0.227 NA
ATOM     11  C   UNL     1      -3.167   0.141  25.003  0.00  0.00    +0.063 A 
ATOM     12  C   UNL     1      -3.863  -0.261  24.814  0.00  0.00    +0.023 A 
ATOM     13  C   UNL     1      -3.836  -1.060  24.614  0.00  0.00    +0.034 C 
ATOM     14  C   UNL     1      -3.113  -1.459  24.601  0.00  0.00    +0.010 C 
ATOM     15  C   UNL     1      -3.087  -2.259  24.400  0.00  0.00    +0.059 C 
ATOM     16  C   UNL     1      -3.898  -2.122  24.335  0.00  0.00    +0.005 C 
ATOM     19  C   UNL     1      -2.365  -2.657  24.387  0.00  0.00    +0.154 C 
ATOM     20  O   UNL     1      -2.337  -3.456  24.186  0.00  0.00    -0.223 OA
ATOM     21  C   UNL     1      -1.668  -2.255  24.576  0.00  0.00    +0.033 C 
ATOM     22  C   UNL     1      -1.696  -1.456  24.776  0.00  0.00    +0.003 C 
ATOM     23  C   UNL     1      -2.418  -1.057  24.789  0.00  0.00    +0.006 C 
ATOM     24  C   UNL     1      -1.723  -0.655  24.978  0.00  0.00    +0.000 C 
ATOM     25  C   UNL     1      -2.444  -0.257  24.990  0.00  0.00    +0.050 C 
ATOM     36  S   UNL     1      -4.489   0.273  24.874  0.00  0.00    -0.054 S 
ENDROOT
BRANCH  15  17
ATOM     17  C   UNL     1      -3.342  -3.010  24.177  0.00  0.00    +0.184 C 
ATOM     18  O   UNL     1      -4.127  -3.130  23.952  0.00  0.00    -0.220 OA
ENDBRANCH  15  17
BRANCH   6   5
ATOM      5  C   UNL     1      -5.865   2.386  25.244  0.00  0.00    +0.087 C 
BRANCH   5   4
ATOM      4  C   UNL     1      -5.473   3.108  25.322  0.00  0.00    +0.010 C 
BRANCH   4   3
ATOM      3  C   UNL     1      -5.877   3.766  25.615  0.00  0.00    +0.001 C 
BRANCH   3   2
ATOM      1  C   UNL     1      -6.089   5.175  25.522  0.00  0.00    +0.000 C 
ATOM      2  C   UNL     1      -5.584   4.524  25.474  0.00  0.00    +0.000 C 
ENDBRANCH   3   2
ENDBRANCH   4   3
ENDBRANCH   5   4
ENDBRANCH   6   5
BRANCH  25  26
ATOM     26  C   UNL     1      -1.749   0.144  25.178  0.00  0.00    +0.091 C 
BRANCH  26  27
ATOM     27  C   UNL     1      -1.450   0.714  24.663  0.00  0.00    +0.226 C 
ATOM     28  O   UNL     1      -1.609   0.664  23.855  0.00  0.00    -0.275 OA
ATOM     29  N   UNL     1      -0.991   1.334  24.954  0.00  0.00    -0.280 N 
ATOM     30  C   UNL     1      -0.692   1.904  24.439  0.00  0.00    +0.093 C 
ATOM     31  C   UNL     1      -0.233   2.524  24.731  0.00  0.00    +0.022 C 
ATOM     32  C   UNL     1      -0.074   2.574  25.539  0.00  0.00    +0.003 C 
ATOM     33  C   UNL     1       0.385   3.195  25.831  0.00  0.00    +0.000 C 
ATOM     34  C   UNL     1      -0.373   2.005  26.054  0.00  0.00    +0.022 C 
ATOM     35  C   UNL     1      -0.832   1.385  25.763  0.00  0.00    +0.093 C 
ENDBRANCH  26  27
ENDBRANCH  25  26
TORSDOF 7
ENDMDL
MODEL 6
REMARK VINA RESULT:      -9.4      1.726      4.309
REMARK  Name = 
REMARK  7 active torsions:
REMARK  status: ('A' for Active; 'I' for Inactive)
REMARK    1  A    between atoms: C_2  and  C_3
REMARK    2  A    between atoms: C_3  and  C_4
REMARK    3  A    between atoms: C_4  and  C_5
REMARK    4  A    between atoms: C_5  and  C_6
REMARK    5  A    between atoms: C_15  and  C_17
REMARK    6  A    between atoms: C_25  and  C_26
REMARK    7  A    between atoms: C_26  and  C_27
REMARK                            x       y       z     vdW  Elec       q    Type
REMARK                         _______ _______ _______ _____ _____    ______ ____
ROOT
ATOM      6  C   UNL     1      -4.214  -1.118  24.129  0.00  0.00    +0.247 C 
ATOM      7  O   UNL     1      -4.974  -0.909  24.373  0.00  0.00    -0.273 OA
ATOM      8  N   UNL     1      -3.616  -0.550  24.109  0.00  0.00    -0.154 NA
ATOM      9  C   UNL     1      -3.779   0.228  24.333  0.00  0.00    +0.185 A 
ATOM     10  N   UNL     1      -3.240   0.853  24.341  0.00  0.00    -0.227 NA
ATOM     11  C   UNL     1      -3.637   1.528  24.601  0.00  0.00    +0.063 A 
ATOM     12  C   UNL     1      -4.421   1.320  24.753  0.00  0.00    +0.023 A 
ATOM     13  C   UNL     1      -4.953   1.889  25.023  0.00  0.00    +0.034 C 
ATOM     14  C   UNL     1      -4.702   2.666  25.141  0.00  0.00    +0.010 C 
ATOM     15  C   UNL     1      -5.236   3.235  25.411  0.00  0.00    +0.059 C 
ATOM     16  C   UNL     1      -5.731   2.577  25.384  0.00  0.00    +0.005 C 
ATOM     19  C   UNL     1      -4.985   4.012  25.529  0.00  0.00    +0.154 C 
ATOM     20  O   UNL     1      -5.517   4.582  25.799  0.00  0.00    -0.223 OA
ATOM     21  C   UNL     1      -4.200   4.220  25.376  0.00  0.00    +0.033 C 
ATOM     22  C   UNL     1      -3.668   3.651  25.107  0.00  0.00    +0.003 C 
ATOM     23  C   UNL     1      -3.919   2.874  24.989  0.00  0.00    +0.006 C 
ATOM     24  C   UNL     1      -3.135   3.081  24.836  0.00  0.00    +0.000 C 
ATOM     25  C   UNL     1      -3.386   2.305  24.719  0.00  0.00    +0.050 C 
ATOM     36  S   UNL     1      -4.509   0.516  24.588  0.00  0.00    -0.054 S 
ENDROOT
BRANCH  15  17
ATOM     17  C   UNL     1      -5.940   3.575  25.671  0.00  0.00    +0.184 C 
ATOM     18  O   UNL     1      -6.475   3.129  26.113  0.00  0.00    -0.220 OA
ENDBRANCH  15  17
BRANCH   6   5
ATOM      5  C   UNL     1      -4.051  -1.896  23.905  0.00  0.00    +0.087 C 
BRANCH   5   4
ATOM      4  C   UNL     1      -3.652  -2.398  24.423  0.00  0.00    +0.010 C 
BRANCH   4   3
ATOM      3  C   UNL     1      -3.143  -2.977  24.125  0.00  0.00    +0.001 C 
BRANCH   3   2
ATOM      1  C   UNL     1      -1.750  -3.035  24.436  0.00  0.00    +0.000 C 
ATOM      2  C   UNL     1      -2.527  -3.264  24.593  0.00  0.00    +0.000 C 
ENDBRANCH   3   2
ENDBRANCH   4   3
ENDBRANCH   5   4
ENDBRANCH   6   5
BRANCH  25  26
ATOM     26  C   UNL     1      -2.603   2.512  24.567  0.00  0.00    +0.091 C 
BRANCH  26  27
ATOM     27  C   UNL     1      -2.005   2.275  25.084  0.00  0.00    +0.226 C 
ATOM     28  O   UNL     1      -2.180   2.125  25.876  0.00  0.00    -0.275 OA
ATOM     29  N   UNL     1      -1.232   2.187  24.809  0.00  0.00    -0.280 N 
ATOM     30  C   UNL     1      -0.636   1.949  25.326  0.00  0.00    +0.093 C 
ATOM     31  C   UNL     1       0.138   1.862  25.050  0.00  0.00    +0.022 C 
ATOM     32  C   UNL     1       0.313   2.012  24.258  0.00  0.00    +0.003 C 
ATOM     33  C   UNL     1       1.086   1.924  23.983  0.00  0.00    +0.000 C 
ATOM     34  C   UNL     1      -0.284   2.249  23.742  0.00  0.00    +0.022 C 
ATOM     35  C   UNL     1      -1.057   2.337  24.016  0.00  0.00    +0.093 C 
ENDBRANCH  26  27
ENDBRANCH  25  26
TORSDOF 7
ENDMDL
MODEL 7
REMARK VINA RESULT:      -9.2      1.168      4.222
REMARK  Name = 
REMARK  7 active torsions:
REMARK  status: ('A' for Active; 'I' for Inactive)
REMARK    1  A    between atoms: C_2  and  C_3
REMARK    2  A    between atoms: C_3  and  C_4
REMARK    3  A    between atoms: C_4  and  C_5
REMARK    4  A    between atoms: C_5  and  C_6
REMARK    5  A    between atoms: C_15  and  C_17
REMARK    6  A    between atoms: C_25  and  C_26
REMARK    7  A    between atoms: C_26  and  C_27
REMARK                            x       y       z     vdW  Elec       q    Type
REMARK                         _______ _______ _______ _____ _____    ______ ____
ROOT
ATOM      6  C   UNL     1      -4.113  -0.127  24.335  0.00  0.00    +0.247 C 
ATOM      7  O   UNL     1      -4.545   0.461  24.721  0.00  0.00    -0.273 OA
ATOM      8  N   UNL     1      -3.330   0.013  24.115  0.00  0.00    -0.154 NA
ATOM      9  C   UNL     1      -2.979   0.742  24.281  0.00  0.00    +0.185 A 
ATOM     10  N   UNL     1      -2.205   0.961  24.095  0.00  0.00    -0.227 NA
ATOM     11  C   UNL     1      -2.089   1.733  24.361  0.00  0.00    +0.063 A 
ATOM     12  C   UNL     1      -2.790   1.991  24.712  0.00  0.00    +0.023 A 
ATOM     13  C   UNL     1      -2.837   2.751  25.030  0.00  0.00    +0.034 C 
ATOM     14  C   UNL     1      -2.182   3.252  24.999  0.00  0.00    +0.010 C 
ATOM     15  C   UNL     1      -2.230   4.012  25.318  0.00  0.00    +0.059 C 
ATOM     16  C   UNL     1      -2.992   3.741  25.480  0.00  0.00    +0.005 C 
ATOM     19  C   UNL     1      -1.576   4.513  25.287  0.00  0.00    +0.154 C 
ATOM     20  O   UNL     1      -1.622   5.273  25.606  0.00  0.00    -0.223 OA
ATOM     21  C   UNL     1      -0.874   4.255  24.937  0.00  0.00    +0.033 C 
ATOM     22  C   UNL     1      -0.828   3.496  24.618  0.00  0.00    +0.003 C 
ATOM     23  C   UNL     1      -1.482   2.994  24.649  0.00  0.00    +0.006 C 
ATOM     24  C   UNL     1      -0.781   2.736  24.299  0.00  0.00    +0.000 C 
ATOM     25  C   UNL     1      -1.434   2.235  24.330  0.00  0.00    +0.050 C 
ATOM     36  S   UNL     1      -3.340   1.378  24.662  0.00  0.00    -0.054 S 
ENDROOT
BRANCH  15  17
ATOM     17  C   UNL     1      -2.542   4.677  25.693  0.00  0.00    +0.184 C 
ATOM     18  O   UNL     1      -3.195   4.601  26.191  0.00  0.00    -0.220 OA
ENDBRANCH  15  17
BRANCH   6   5
ATOM      5  C   UNL     1      -4.463  -0.855  24.168  0.00  0.00    +0.087 C 
BRANCH   5   4
ATOM      4  C   UNL     1      -4.065  -1.555  24.347  0.00  0.00    +0.010 C 
BRANCH   4   3
ATOM      3  C   UNL     1      -4.353  -2.277  24.070  0.00  0.00    +0.001 C 
BRANCH   3   2
ATOM      1  C   UNL     1      -3.541  -3.285  24.672  0.00  0.00    +0.000 C 
ATOM      2  C   UNL     1      -3.846  -2.923  23.996  0.00  0.00    +0.000 C 
ENDBRANCH   3   2
ENDBRANCH   4   3
ENDBRANCH   5   4
ENDBRANCH   6   5
BRANCH  25  26
ATOM     26  C   UNL     1      -0.734   1.977  23.981  0.00  0.00    +0.091 C 
BRANCH  26  27
ATOM     27  C   UNL     1      -0.301   1.366  24.327  0.00  0.00    +0.226 C 
ATOM     28  O   UNL     1      -0.357   1.228  25.138  0.00  0.00    -0.275 OA
ATOM     29  N   UNL     1       0.190   0.893  23.862  0.00  0.00    -0.280 N 
ATOM     30  C   UNL     1       0.622   0.282  24.208  0.00  0.00    +0.093 C 
ATOM     31  C   UNL     1       1.113  -0.191  23.742  0.00  0.00    +0.022 C 
ATOM     32  C   UNL     1       1.169  -0.053  22.931  0.00  0.00    +0.003 C 
ATOM     33  C   UNL     1       1.660  -0.527  22.465  0.00  0.00    +0.000 C 
ATOM     34  C   UNL     1       0.737   0.557  22.585  0.00  0.00    +0.022 C 
ATOM     35  C   UNL     1       0.247   1.031  23.050  0.00  0.00    +0.093 C 
ENDBRANCH  26  27
ENDBRANCH  25  26
TORSDOF 7
ENDMDL
MODEL 8
REMARK VINA RESULT:      -8.9      2.189      2.790
REMARK  Name = 
REMARK  7 active torsions:
REMARK  status: ('A' for Active; 'I' for Inactive)
REMARK    1  A    between atoms: C_2  and  C_3
REMARK    2  A    between atoms: C_3  and  C_4
REMARK    3  A    between atoms: C_4  and  C_5
REMARK    4  A    between atoms: C_5  and  C_6
REMARK    5  A    between atoms: C_15  and  C_17
REMARK    6  A    between atoms: C_25  and  C_26
REMARK    7  A    between atoms: C_26  and  C_27
REMARK                            x       y       z     vdW  Elec       q    Type
REMARK                         _______ _______ _______ _____ _____    ______ ____
ROOT
ATOM      6  C   UNL     1      -0.764   2.449  25.755  0.00  0.00    +0.247 C 
ATOM      7  O   UNL     1      -1.175   3.145  25.923  0.00  0.00    -0.273 OA
ATOM      8  N   UNL     1      -1.171   1.783  25.490  0.00  0.00    -0.154 NA
ATOM      9  C   UNL     1      -1.991   1.812  25.394  0.00  0.00    +0.185 A 
ATOM     10  N   UNL     1      -2.471   1.192  25.135  0.00  0.00    -0.227 NA
ATOM     11  C   UNL     1      -3.250   1.462  25.121  0.00  0.00    +0.063 A 
ATOM     12  C   UNL     1      -3.252   2.249  25.371  0.00  0.00    +0.023 A 
ATOM     13  C   UNL     1      -3.962   2.667  25.413  0.00  0.00    +0.034 C 
ATOM     14  C   UNL     1      -4.670   2.298  25.205  0.00  0.00    +0.010 C 
ATOM     15  C   UNL     1      -5.380   2.717  25.247  0.00  0.00    +0.059 C 
ATOM     16  C   UNL     1      -4.855   3.301  25.500  0.00  0.00    +0.005 C 
ATOM     19  C   UNL     1      -6.089   2.349  25.039  0.00  0.00    +0.154 C 
ATOM     20  O   UNL     1      -6.799   2.766  25.080  0.00  0.00    -0.223 OA
ATOM     21  C   UNL     1      -6.087   1.562  24.788  0.00  0.00    +0.033 C 
ATOM     22  C   UNL     1      -5.377   1.145  24.747  0.00  0.00    +0.003 C 
ATOM     23  C   UNL     1      -4.668   1.513  24.955  0.00  0.00    +0.006 C 
ATOM     24  C   UNL     1      -4.666   0.726  24.705  0.00  0.00    +0.000 C 
ATOM     25  C   UNL     1      -3.959   1.094  24.913  0.00  0.00    +0.050 C 
ATOM     36  S   UNL     1      -2.473   2.464  25.540  0.00  0.00    -0.054 S 
ENDROOT
BRANCH  15  17
ATOM     17  C   UNL     1      -5.907   3.338  25.377  0.00  0.00    +0.184 C 
ATOM     18  O   UNL     1      -5.648   4.029  25.743  0.00  0.00    -0.220 OA
ENDBRANCH  15  17
BRANCH   6   5
ATOM      5  C   UNL     1       0.056   2.420  25.851  0.00  0.00    +0.087 C 
BRANCH   5   4
ATOM      4  C   UNL     1       0.410   2.816  26.481  0.00  0.00    +0.010 C 
BRANCH   4   3
ATOM      3  C   UNL     1       0.791   2.388  27.075  0.00  0.00    +0.001 C 
BRANCH   3   2
ATOM      1  C   UNL     1       1.320   2.519  28.395  0.00  0.00    +0.000 C 
ATOM      2  C   UNL     1       1.283   2.775  27.612  0.00  0.00    +0.000 C 
ENDBRANCH   3   2
ENDBRANCH   4   3
ENDBRANCH   5   4
ENDBRANCH   6   5
BRANCH  25  26
ATOM     26  C   UNL     1      -3.957   0.309  24.663  0.00  0.00    +0.091 C 
BRANCH  26  27
ATOM     27  C   UNL     1      -3.847  -0.298  25.211  0.00  0.00    +0.226 C 
ATOM     28  O   UNL     1      -3.867  -0.133  26.019  0.00  0.00    -0.275 OA
ATOM     29  N   UNL     1      -3.717  -1.070  24.952  0.00  0.00    -0.280 N 
ATOM     30  C   UNL     1      -3.607  -1.676  25.499  0.00  0.00    +0.093 C 
ATOM     31  C   UNL     1      -3.477  -2.449  25.240  0.00  0.00    +0.022 C 
ATOM     32  C   UNL     1      -3.456  -2.614  24.432  0.00  0.00    +0.003 C 
ATOM     33  C   UNL     1      -3.326  -3.387  24.172  0.00  0.00    +0.000 C 
ATOM     34  C   UNL     1      -3.566  -2.008  23.884  0.00  0.00    +0.022 C 
ATOM     35  C   UNL     1      -3.696  -1.236  24.143  0.00  0.00    +0.093 C 
ENDBRANCH  26  27
ENDBRANCH  25  26
TORSDOF 7
ENDMDL
