MODEL 1
REMARK VINA RESULT:     -13.7      0.000      0.000
REMARK  Name = 
REMARK  4 active torsions:
REMARK  status: ('A' for Active; 'I' for Inactive)
REMARK    1  A    between atoms: C_2  and  C_3
REMARK    2  A    between atoms: C_3  and  C_4
REMARK    3  A    between atoms: C_18  and  N_19
REMARK    4  A    between atoms: C_20  and  C_22
REMARK                            x       y       z     vdW  Elec       q    Type
REMARK                         _______ _______ _______ _____ _____    ______ ____
ROOT
ATOM      1  O   UNL     1      -0.996  -0.522  24.773  0.00  0.00    -0.274 OA
ATOM      2  C   UNL     1      -1.798  -0.689  24.676  0.00  0.00    +0.231 C 
ATOM      9  N   UNL     1      -2.054  -1.473  24.636  0.00  0.00    -0.279 N 
ATOM     10  C   UNL     1      -2.011  -2.307  24.632  0.00  0.00    +0.095 C 
ATOM     11  C   UNL     1      -2.969  -2.521  24.515  0.00  0.00    +0.043 C 
ATOM     12  C   UNL     1      -3.705  -2.859  24.424  0.00  0.00    +0.011 C 
ATOM     13  C   UNL     1      -3.431  -2.214  24.464  0.00  0.00    +0.058 C 
ATOM     14  C   UNL     1      -2.502  -2.023  24.577  0.00  0.00    +0.099 C 
ATOM     15  C   UNL     1      -3.671  -1.327  24.446  0.00  0.00    +0.041 A 
ATOM     16  C   UNL     1      -4.336  -0.845  24.372  0.00  0.00    +0.014 A 
ATOM     17  C   UNL     1      -4.255  -0.024  24.391  0.00  0.00    +0.023 A 
ATOM     18  C   UNL     1      -3.508   0.315  24.484  0.00  0.00    +0.130 A 
ATOM     27  C   UNL     1      -2.843  -0.167  24.558  0.00  0.00    +0.276 A 
ATOM     28  O   UNL     1      -2.438   0.548  24.614  0.00  0.00    -0.266 OA
ATOM     29  N   UNL     1      -2.925  -0.988  24.538  0.00  0.00    -0.298 N 
ATOM     30  C   UNL     1      -3.210  -1.592  24.497  0.00  0.00    +0.110 C 
ENDROOT
BRANCH  18  19
ATOM     19  N   UNL     1      -3.428   1.135  24.503  0.00  0.00    -0.170 NA
ATOM     20  C   UNL     1      -4.095   1.614  24.576  0.00  0.00    +0.275 C 
ATOM     21  O   UNL     1      -4.844   1.272  24.630  0.00  0.00    -0.267 OA
BRANCH  20  22
ATOM     22  C   UNL     1      -4.014   2.435  24.595  0.00  0.00    +0.085 A 
ATOM     23  C   UNL     1      -3.968   2.933  23.939  0.00  0.00    +0.012 A 
ATOM     24  C   UNL     1      -3.890   3.708  24.212  0.00  0.00    +0.008 A 
ATOM     25  C   UNL     1      -3.888   3.689  25.037  0.00  0.00    +0.036 A 
ATOM     26  S   UNL     1      -3.965   2.902  25.274  0.00  0.00    -0.082 S 
ENDBRANCH  20  22
ENDBRANCH  18  19
BRANCH   2   3
ATOM      3  C   UNL     1      -2.344  -0.073  24.618  0.00  0.00    +0.118 C 
BRANCH   3   4
ATOM      4  C   UNL     1      -2.085   0.693  24.459  0.00  0.00    +0.016 A 
ATOM      5  C   UNL     1      -2.043   1.045  23.714  0.00  0.00    +0.003 A 
ATOM      6  C   UNL     1      -1.754   1.812  23.810  0.00  0.00    +0.007 A 
ATOM      7  C   UNL     1      -1.617   1.934  24.615  0.00  0.00    +0.035 A 
ATOM      8  S   UNL     1      -1.822   1.243  25.015  0.00  0.00    -0.090 S 
ENDBRANCH   3   4
ENDBRANCH   2   3
TORSDOF 4
ENDMDL
MODEL 2
REMARK VINA RESULT:     -13.0      1.060      2.185
REMARK  Name = 
REMARK  4 active torsions:
REMARK  status: ('A' for Active; 'I' for Inactive)
REMARK    1  A    between atoms: C_2  and  C_3
REMARK    2  A    between atoms: C_3  and  C_4
REMARK    3  A    between atoms: C_18  and  N_19
REMARK    4  A    between atoms: C_20  and  C_22
REMARK                            x       y       z     vdW  Elec       q    Type
REMARK                         _______ _______ _______ _____ _____    ______ ____
ROOT
ATOM      1  O   UNL     1      -4.816   0.453  24.244  0.00  0.00    -0.274 OA
ATOM      2  C   UNL     1      -4.095   0.094  24.418  0.00  0.00    +0.231 C 
ATOM      9  N   UNL     1      -4.040  -0.729  24.450  0.00  0.00    -0.279 N 
ATOM     10  C   UNL     1      -4.282  -1.527  24.414  0.00  0.00    +0.095 C 
ATOM     11  C   UNL     1      -3.424  -1.970  24.621  0.00  0.00    +0.043 C 
ATOM     12  C   UNL     1      -2.806  -2.478  24.774  0.00  0.00    +0.011 C 
ATOM     13  C   UNL     1      -2.910  -1.785  24.734  0.00  0.00    +0.058 C 
ATOM     14  C   UNL     1      -3.747  -1.372  24.533  0.00  0.00    +0.099 C 
ATOM     15  C   UNL     1      -2.467  -0.984  24.816  0.00  0.00    +0.041 A 
ATOM     16  C   UNL     1      -1.718  -0.680  24.981  0.00  0.00    +0.014 A 
ATOM     17  C   UNL     1      -1.598   0.136  24.989  0.00  0.00    +0.023 A 
ATOM     18  C   UNL     1      -2.226   0.648  24.833  0.00  0.00    +0.130 A 
ATOM     27  C   UNL     1      -2.975   0.344  24.669  0.00  0.00    +0.276 A 
ATOM     28  O   UNL     1      -3.187   1.137  24.601  0.00  0.00    -0.266 OA
ATOM     29  N   UNL     1      -3.095  -0.472  24.660  0.00  0.00    -0.298 N 
ATOM     30  C   UNL     1      -2.970  -1.128  24.705  0.00  0.00    +0.110 C 
ENDROOT
BRANCH  18  19
ATOM     19  N   UNL     1      -2.104   1.463  24.841  0.00  0.00    -0.170 NA
ATOM     20  C   UNL     1      -1.414   1.775  25.169  0.00  0.00    +0.275 C 
ATOM     21  O   UNL     1      -0.845   1.270  25.489  0.00  0.00    -0.267 OA
BRANCH  20  22
ATOM     22  C   UNL     1      -1.293   2.592  25.177  0.00  0.00    +0.085 A 
ATOM     23  C   UNL     1      -1.570   3.116  25.749  0.00  0.00    +0.012 A 
ATOM     24  C   UNL     1      -1.322   3.876  25.541  0.00  0.00    +0.008 A 
ATOM     25  C   UNL     1      -0.892   3.819  24.839  0.00  0.00    +0.036 A 
ATOM     26  S   UNL     1      -0.874   3.025  24.614  0.00  0.00    -0.082 S 
ENDBRANCH  20  22
ENDBRANCH  18  19
BRANCH   2   3
ATOM      3  C   UNL     1      -3.427   0.558  24.560  0.00  0.00    +0.118 C 
BRANCH   3   4
ATOM      4  C   UNL     1      -3.407   1.341  24.304  0.00  0.00    +0.016 A 
ATOM      5  C   UNL     1      -3.089   1.610  23.591  0.00  0.00    +0.003 A 
ATOM      6  C   UNL     1      -3.187   2.428  23.561  0.00  0.00    +0.007 A 
ATOM      7  C   UNL     1      -3.565   2.666  24.254  0.00  0.00    +0.035 A 
ATOM      8  S   UNL     1      -3.701   1.994  24.713  0.00  0.00    -0.090 S 
ENDBRANCH   3   4
ENDBRANCH   2   3
TORSDOF 4
ENDMDL
MODEL 3
REMARK VINA RESULT:     -12.8      1.718      4.161
REMARK  Name = 
REMARK  4 active torsions:
REMARK  status: ('A' for Active; 'I' for Inactive)
REMARK    1  A    between atoms: C_2  and  C_3
REMARK    2  A    between atoms: C_3  and  C_4
REMARK    3  A    between atoms: C_18  and  N_19
REMARK    4  A    between atoms: C_20  and  C_22
REMARK                            x       y       z     vdW  Elec       q    Type
REMARK                         _______ _______ _______ _____ _____    ______ ____
ROOT
ATOM      1  O   UNL     1       0.044   2.261  24.550  0.00  0.00    -0.274 OA
ATOM      2  C   UNL     1      -0.675   2.630  24.716  0.00  0.00    +0.231 C 
ATOM      9  N   UNL     1      -0.700   3.445  24.846  0.00  0.00    -0.279 N 
ATOM     10  C   UNL     1      -0.426   4.230  24.925  0.00  0.00    +0.095 C 
ATOM     11  C   UNL     1      -1.280   4.684  25.126  0.00  0.00    +0.043 C 
ATOM     12  C   UNL     1      -1.888   5.198  25.298  0.00  0.00    +0.011 C 
ATOM     13  C   UNL     1      -1.807   4.511  25.179  0.00  0.00    +0.058 C 
ATOM     14  C   UNL     1      -0.974   4.087  24.987  0.00  0.00    +0.099 C 
ATOM     15  C   UNL     1      -2.285   3.728  25.131  0.00  0.00    +0.041 A 
ATOM     16  C   UNL     1      -3.055   3.441  25.204  0.00  0.00    +0.014 A 
ATOM     17  C   UNL     1      -3.207   2.637  25.103  0.00  0.00    +0.023 A 
ATOM     18  C   UNL     1      -2.589   2.119  24.928  0.00  0.00    +0.130 A 
ATOM     27  C   UNL     1      -1.819   2.405  24.855  0.00  0.00    +0.276 A 
ATOM     28  O   UNL     1      -1.632   1.616  24.705  0.00  0.00    -0.266 OA
ATOM     29  N   UNL     1      -1.667   3.209  24.957  0.00  0.00    -0.298 N 
ATOM     30  C   UNL     1      -1.770   3.860  25.073  0.00  0.00    +0.110 C 
ENDROOT
BRANCH  18  19
ATOM     19  N   UNL     1      -2.742   1.315  24.827  0.00  0.00    -0.170 NA
ATOM     20  C   UNL     1      -3.519   1.046  24.770  0.00  0.00    +0.275 C 
ATOM     21  O   UNL     1      -4.145   1.582  24.813  0.00  0.00    -0.267 OA
BRANCH  20  22
ATOM     22  C   UNL     1      -3.672   0.241  24.669  0.00  0.00    +0.085 A 
ATOM     23  C   UNL     1      -3.713  -0.157  23.948  0.00  0.00    +0.012 A 
ATOM     24  C   UNL     1      -3.876  -0.951  24.104  0.00  0.00    +0.008 A 
ATOM     25  C   UNL     1      -3.936  -1.043  24.922  0.00  0.00    +0.036 A 
ATOM     26  S   UNL     1      -3.809  -0.306  25.271  0.00  0.00    -0.082 S 
ENDBRANCH  20  22
ENDBRANCH  18  19
BRANCH   2   3
ATOM      3  C   UNL     1      -1.369   2.184  24.753  0.00  0.00    +0.118 C 
BRANCH   3   4
ATOM      4  C   UNL     1      -1.328   1.362  24.802  0.00  0.00    +0.016 A 
ATOM      5  C   UNL     1      -1.332   0.918  25.497  0.00  0.00    +0.003 A 
ATOM      6  C   UNL     1      -1.283   0.121  25.290  0.00  0.00    +0.007 A 
ATOM      7  C   UNL     1      -1.248   0.072  24.468  0.00  0.00    +0.035 A 
ATOM      8  S   UNL     1      -1.276   0.840  24.166  0.00  0.00    -0.090 S 
ENDBRANCH   3   4
ENDBRANCH   2   3
TORSDOF 4
ENDMDL
MODEL 4
REMARK VINA RESULT:     -12.8      1.652      4.505
REMARK  Name = 
REMARK  4 active torsions:
REMARK  status: ('A' for Active; 'I' for Inactive)
REMARK    1  A    between atoms: C_2  and  C_3
REMARK    2  A    between atoms: C_3  and  C_4
REMARK    3  A    between atoms: C_18  and  N_19
REMARK    4  A    between atoms: C_20  and  C_22
REMARK                            x       y       z     vdW  Elec       q    Type
REMARK                         _______ _______ _______ _____ _____    ______ ____
ROOT
ATOM      1  O   UNL     1      -3.956   3.995  25.664  0.00  0.00    -0.274 OA
ATOM      2  C   UNL     1      -3.226   3.719  25.398  0.00  0.00    +0.231 C 
ATOM      9  N   UNL     1      -2.577   4.228  25.370  0.00  0.00    -0.279 N 
ATOM     10  C   UNL     1      -2.136   4.933  25.451  0.00  0.00    +0.095 C 
ATOM     11  C   UNL     1      -1.256   4.614  25.135  0.00  0.00    +0.043 C 
ATOM     12  C   UNL     1      -0.481   4.511  24.905  0.00  0.00    +0.011 C 
ATOM     13  C   UNL     1      -1.065   4.124  24.950  0.00  0.00    +0.058 C 
ATOM     14  C   UNL     1      -1.909   4.447  25.258  0.00  0.00    +0.099 C 
ATOM     15  C   UNL     1      -1.380   3.274  24.796  0.00  0.00    +0.041 A 
ATOM     16  C   UNL     1      -1.127   2.537  24.527  0.00  0.00    +0.014 A 
ATOM     17  C   UNL     1      -1.659   1.907  24.491  0.00  0.00    +0.023 A 
ATOM     18  C   UNL     1      -2.443   2.015  24.724  0.00  0.00    +0.130 A 
ATOM     27  C   UNL     1      -2.695   2.752  24.993  0.00  0.00    +0.276 A 
ATOM     28  O   UNL     1      -3.424   2.376  25.078  0.00  0.00    -0.266 OA
ATOM     29  N   UNL     1      -2.164   3.382  25.029  0.00  0.00    -0.298 N 
ATOM     30  C   UNL     1      -1.594   3.729  24.978  0.00  0.00    +0.110 C 
ENDROOT
BRANCH  18  19
ATOM     19  N   UNL     1      -2.974   1.385  24.688  0.00  0.00    -0.170 NA
ATOM     20  C   UNL     1      -2.694   0.614  24.594  0.00  0.00    +0.275 C 
ATOM     21  O   UNL     1      -1.883   0.474  24.538  0.00  0.00    -0.267 OA
BRANCH  20  22
ATOM     22  C   UNL     1      -3.226  -0.016  24.558  0.00  0.00    +0.085 A 
ATOM     23  C   UNL     1      -3.623  -0.277  23.884  0.00  0.00    +0.012 A 
ATOM     24  C   UNL     1      -4.097  -0.918  24.098  0.00  0.00    +0.008 A 
ATOM     25  C   UNL     1      -3.992  -1.053  24.905  0.00  0.00    +0.036 A 
ATOM     26  S   UNL     1      -3.454  -0.495  25.190  0.00  0.00    -0.082 S 
ENDBRANCH  20  22
ENDBRANCH  18  19
BRANCH   2   3
ATOM      3  C   UNL     1      -3.145   2.933  25.159  0.00  0.00    +0.118 C 
BRANCH   3   4
ATOM      4  C   UNL     1      -3.810   2.496  24.944  0.00  0.00    +0.016 A 
ATOM      5  C   UNL     1      -4.097   2.398  24.177  0.00  0.00    +0.003 A 
ATOM      6  C   UNL     1      -4.770   1.922  24.216  0.00  0.00    +0.007 A 
ATOM      7  C   UNL     1      -4.899   1.727  25.007  0.00  0.00    +0.035 A 
ATOM      8  S   UNL     1      -4.306   2.082  25.457  0.00  0.00    -0.090 S 
ENDBRANCH   3   4
ENDBRANCH   2   3
TORSDOF 4
ENDMDL
MODEL 5
REMARK VINA RESULT:     -12.7      1.184      3.873
REMARK  Name = 
REMARK  4 active torsions:
REMARK  status: ('A' for Active; 'I' for Inactive)
REMARK    1  A    between atoms: C_2  and  C_3
REMARK    2  A    between atoms: C_3  and  C_4
REMARK    3  A    between atoms: C_18  and  N_19
REMARK    4  A    between atoms: C_20  and  C_22
REMARK                            x       y       z     vdW  Elec       q    Type
REMARK                         _______ _______ _______ _____ _____    ______ ____
ROOT
ATOM      1  O   UNL     1      -1.558   2.238  24.483  0.00  0.00    -0.274 OA
ATOM      2  C   UNL     1      -2.367   2.210  24.638  0.00  0.00    +0.231 C 
ATOM      9  N   UNL     1      -2.794   2.910  24.733  0.00  0.00    -0.279 N 
ATOM     10  C   UNL     1      -2.944   3.731  24.777  0.00  0.00    +0.095 C 
ATOM     11  C   UNL     1      -3.915   3.711  24.964  0.00  0.00    +0.043 C 
ATOM     12  C   UNL     1      -4.700   3.864  25.118  0.00  0.00    +0.011 C 
ATOM     13  C   UNL     1      -4.289   3.303  25.028  0.00  0.00    +0.058 C 
ATOM     14  C   UNL     1      -3.351   3.338  24.848  0.00  0.00    +0.099 C 
ATOM     15  C   UNL     1      -4.316   2.384  25.016  0.00  0.00    +0.041 A 
ATOM     16  C   UNL     1      -4.845   1.758  25.106  0.00  0.00    +0.014 A 
ATOM     17  C   UNL     1      -4.578   0.980  25.040  0.00  0.00    +0.023 A 
ATOM     18  C   UNL     1      -3.782   0.828  24.885  0.00  0.00    +0.130 A 
ATOM     27  C   UNL     1      -3.253   1.455  24.794  0.00  0.00    +0.276 A 
ATOM     28  O   UNL     1      -2.699   0.856  24.677  0.00  0.00    -0.266 OA
ATOM     29  N   UNL     1      -3.520   2.232  24.860  0.00  0.00    -0.298 N 
ATOM     30  C   UNL     1      -3.933   2.751  24.949  0.00  0.00    +0.110 C 
ENDROOT
BRANCH  18  19
ATOM     19  N   UNL     1      -3.516   0.051  24.819  0.00  0.00    -0.170 NA
ATOM     20  C   UNL     1      -4.059  -0.568  24.769  0.00  0.00    +0.275 C 
ATOM     21  O   UNL     1      -4.869  -0.410  24.785  0.00  0.00    -0.267 OA
BRANCH  20  22
ATOM     22  C   UNL     1      -3.792  -1.347  24.703  0.00  0.00    +0.085 A 
ATOM     23  C   UNL     1      -3.551  -1.831  25.326  0.00  0.00    +0.012 A 
ATOM     24  C   UNL     1      -3.330  -2.561  25.011  0.00  0.00    +0.008 A 
ATOM     25  C   UNL     1      -3.434  -2.527  24.194  0.00  0.00    +0.036 A 
ATOM     26  S   UNL     1      -3.720  -1.777  24.003  0.00  0.00    -0.082 S 
ENDBRANCH  20  22
ENDBRANCH  18  19
BRANCH   2   3
ATOM      3  C   UNL     1      -2.751   1.481  24.698  0.00  0.00    +0.118 C 
BRANCH   3   4
ATOM      4  C   UNL     1      -2.311   0.791  24.795  0.00  0.00    +0.016 A 
ATOM      5  C   UNL     1      -2.125   0.432  25.514  0.00  0.00    +0.003 A 
ATOM      6  C   UNL     1      -1.679  -0.243  25.353  0.00  0.00    +0.007 A 
ATOM      7  C   UNL     1      -1.589  -0.302  24.535  0.00  0.00    +0.035 A 
ATOM      8  S   UNL     1      -1.980   0.338  24.190  0.00  0.00    -0.090 S 
ENDBRANCH   3   4
ENDBRANCH   2   3
TORSDOF 4
ENDMDL
MODEL 6
REMARK VINA RESULT:     -12.5      1.360      4.127
REMARK  Name = 
REMARK  4 active torsions:
REMARK  status: ('A' for Active; 'I' for Inactive)
REMARK    1  A    between atoms: C_2  and  C_3
REMARK    2  A    between atoms: C_3  and  C_4
REMARK    3  A    between atoms: C_18  and  N_19
REMARK    4  A    between atoms: C_20  and  C_22
REMARK                            x       y       z     vdW  Elec       q    Type
REMARK                         _______ _______ _______ _____ _____    ______ ____
ROOT
ATOM      1  O   UNL     1      -5.445   0.523  25.070  0.00  0.00    -0.274 OA
ATOM      2  C   UNL     1      -4.873   1.117  25.057  0.00  0.00    +0.231 C 
ATOM      9  N   UNL     1      -5.101   1.909  25.090  0.00  0.00    -0.279 N 
ATOM     10  C   UNL     1      -5.605   2.574  25.133  0.00  0.00    +0.095 C 
ATOM     11  C   UNL     1      -4.930   3.295  25.118  0.00  0.00    +0.043 C 
ATOM     12  C   UNL     1      -4.509   3.993  25.115  0.00  0.00    +0.011 C 
ATOM     13  C   UNL     1      -4.373   3.304  25.090  0.00  0.00    +0.058 C 
ATOM     14  C   UNL     1      -5.038   2.619  25.105  0.00  0.00    +0.099 C 
ATOM     15  C   UNL     1      -3.675   2.709  25.039  0.00  0.00    +0.041 A 
ATOM     16  C   UNL     1      -2.852   2.689  24.997  0.00  0.00    +0.014 A 
ATOM     17  C   UNL     1      -2.458   1.965  24.958  0.00  0.00    +0.023 A 
ATOM     18  C   UNL     1      -2.888   1.261  24.961  0.00  0.00    +0.130 A 
ATOM     27  C   UNL     1      -3.712   1.280  25.003  0.00  0.00    +0.276 A 
ATOM     28  O   UNL     1      -3.646   0.459  24.978  0.00  0.00    -0.266 OA
ATOM     29  N   UNL     1      -4.105   2.004  25.042  0.00  0.00    -0.298 N 
ATOM     30  C   UNL     1      -4.207   2.666  25.065  0.00  0.00    +0.110 C 
ENDROOT
BRANCH  18  19
ATOM     19  N   UNL     1      -2.494   0.538  24.922  0.00  0.00    -0.170 NA
ATOM     20  C   UNL     1      -1.678   0.506  25.036  0.00  0.00    +0.275 C 
ATOM     21  O   UNL     1      -1.255   1.198  25.189  0.00  0.00    -0.267 OA
BRANCH  20  22
ATOM     22  C   UNL     1      -1.283  -0.219  24.997  0.00  0.00    +0.085 A 
ATOM     23  C   UNL     1      -1.194  -0.756  25.616  0.00  0.00    +0.012 A 
ATOM     24  C   UNL     1      -0.765  -1.402  25.333  0.00  0.00    +0.008 A 
ATOM     25  C   UNL     1      -0.589  -1.263  24.540  0.00  0.00    +0.036 A 
ATOM     26  S   UNL     1      -0.910  -0.532  24.331  0.00  0.00    -0.082 S 
ENDBRANCH  20  22
ENDBRANCH  18  19
BRANCH   2   3
ATOM      3  C   UNL     1      -4.073   0.919  25.012  0.00  0.00    +0.118 C 
BRANCH   3   4
ATOM      4  C   UNL     1      -3.850   0.156  24.792  0.00  0.00    +0.016 A 
ATOM      5  C   UNL     1      -3.665  -0.093  24.027  0.00  0.00    +0.003 A 
ATOM      6  C   UNL     1      -3.473  -0.894  24.059  0.00  0.00    +0.007 A 
ATOM      7  C   UNL     1      -3.538  -1.141  24.844  0.00  0.00    +0.035 A 
ATOM      8  S   UNL     1      -3.771  -0.492  25.296  0.00  0.00    -0.090 S 
ENDBRANCH   3   4
ENDBRANCH   2   3
TORSDOF 4
ENDMDL
