MODEL 1
REMARK VINA RESULT:      -9.4      0.000      0.000
REMARK  Name = 
REMARK  7 active torsions:
REMARK  status: ('A' for Active; 'I' for Inactive)
REMARK    1  A    between atoms: C_2  and  N_4
REMARK    2  A    between atoms: N_4  and  C_5
REMARK    3  A    between atoms: C_5  and  C_6
REMARK    4  A    between atoms: C_8  and  C_9
REMARK    5  A    between atoms: C_13  and  N_14
REMARK    6  A    between atoms: N_14  and  C_16
REMARK    7  A    between atoms: C_16  and  C_17
REMARK                            x       y       z     vdW  Elec       q    Type
REMARK                         _______ _______ _______ _____ _____    ______ ____
ROOT
ATOM      6  C   UNL     1      -3.291   1.825  24.926  0.00  0.00    +0.150 C 
ATOM      7  O   UNL     1      -3.595   2.558  25.150  0.00  0.00    -0.350 OA
ATOM      8  C   UNL     1      -4.418   2.516  25.111  0.00  0.00    +0.180 C 
ATOM     11  C   UNL     1      -4.622   1.757  24.862  0.00  0.00    +0.198 C 
ATOM     12  O   UNL     1      -5.389   1.475  24.747  0.00  0.00    -0.219 OA
ATOM     13  C   UNL     1      -3.926   1.330  24.748  0.00  0.00    +0.120 C 
ENDROOT
BRANCH   8   9
ATOM      9  C   UNL     1      -4.944   3.126  25.289  0.00  0.00    +0.214 C 
ATOM     10  O   UNL     1      -4.657   3.859  25.537  0.00  0.00    -0.218 OA
ENDBRANCH   8   9
BRANCH  13  14
ATOM     14  N   UNL     1      -3.874   0.545  24.498  0.00  0.00    -0.265 NA
ATOM     15  C   UNL     1      -3.629   0.371  23.730  0.00  0.00    +0.090 C 
BRANCH  14  16
ATOM     16  C   UNL     1      -4.068  -0.066  25.017  0.00  0.00    +0.099 C 
BRANCH  16  17
ATOM     17  C   UNL     1      -3.913  -0.850  24.809  0.00  0.00    -0.006 A 
ATOM     18  C   UNL     1      -3.368  -1.292  25.242  0.00  0.00    -0.003 A 
ATOM     19  C   UNL     1      -3.213  -2.075  25.033  0.00  0.00    -0.000 A 
ATOM     20  C   UNL     1      -3.604  -2.416  24.391  0.00  0.00    -0.000 A 
ATOM     21  C   UNL     1      -4.149  -1.973  23.958  0.00  0.00    -0.000 A 
ATOM     22  C   UNL     1      -4.304  -1.190  24.167  0.00  0.00    -0.003 A 
ENDBRANCH  16  17
ENDBRANCH  14  16
ENDBRANCH  13  14
BRANCH   6   5
ATOM      5  C   UNL     1      -2.492   1.622  24.886  0.00  0.00    +0.120 C 
BRANCH   5   4
ATOM      4  N   UNL     1      -1.918   2.160  25.136  0.00  0.00    -0.217 NA
BRANCH   4   2
ATOM      1  C   UNL     1      -0.763   1.547  25.711  0.00  0.00    +0.019 C 
ATOM      2  C   UNL     1      -1.118   1.959  25.092  0.00  0.00    +0.073 C 
ATOM      3  C   UNL     1      -0.676   2.171  24.429  0.00  0.00    +0.019 C 
ENDBRANCH   4   2
ENDBRANCH   5   4
ENDBRANCH   6   5
TORSDOF 7
ENDMDL
MODEL 2
REMARK VINA RESULT:      -9.2      1.417      2.701
REMARK  Name = 
REMARK  7 active torsions:
REMARK  status: ('A' for Active; 'I' for Inactive)
REMARK    1  A    between atoms: C_2  and  N_4
REMARK    2  A    between atoms: N_4  and  C_5
REMARK    3  A    between atoms: C_5  and  C_6
REMARK    4  A    between atoms: C_8  and  C_9
REMARK    5  A    between atoms: C_13  and  N_14
REMARK    6  A    between atoms: N_14  and  C_16
REMARK    7  A    between atoms: C_16  and  C_17
REMARK                            x       y       z     vdW  Elec       q    Type
REMARK                         _______ _______ _______ _____ _____    ______ ____
ROOT
ATOM      6  C   UNL     1      -2.289   1.654  25.002  0.00  0.00    +0.150 C 
ATOM      7  O   UNL     1      -1.706   2.115  25.360  0.00  0.00    -0.350 OA
ATOM      8  C   UNL     1      -1.068   1.625  25.539  0.00  0.00    +0.180 C 
ATOM     11  C   UNL     1      -1.256   0.861  25.293  0.00  0.00    +0.198 C 
ATOM     12  O   UNL     1      -0.774   0.195  25.367  0.00  0.00    -0.219 OA
ATOM     13  C   UNL     1      -2.011   0.878  24.961  0.00  0.00    +0.120 C 
ENDROOT
BRANCH   8   9
ATOM      9  C   UNL     1      -0.364   1.858  25.902  0.00  0.00    +0.214 C 
ATOM     10  O   UNL     1      -0.295   2.617  26.218  0.00  0.00    -0.218 OA
ENDBRANCH   8   9
BRANCH  13  14
ATOM     14  N   UNL     1      -2.416   0.233  24.644  0.00  0.00    -0.265 NA
ATOM     15  C   UNL     1      -2.285   0.008  23.861  0.00  0.00    +0.090 C 
BRANCH  14  16
ATOM     16  C   UNL     1      -2.953  -0.186  25.109  0.00  0.00    +0.099 C 
BRANCH  16  17
ATOM     17  C   UNL     1      -3.286  -0.886  24.826  0.00  0.00    -0.006 A 
ATOM     18  C   UNL     1      -3.907  -0.857  24.284  0.00  0.00    -0.003 A 
ATOM     19  C   UNL     1      -4.240  -1.557  24.000  0.00  0.00    -0.000 A 
ATOM     20  C   UNL     1      -3.951  -2.285  24.259  0.00  0.00    -0.000 A 
ATOM     21  C   UNL     1      -3.330  -2.313  24.801  0.00  0.00    -0.000 A 
ATOM     22  C   UNL     1      -2.997  -1.614  25.084  0.00  0.00    -0.003 A 
ENDBRANCH  16  17
ENDBRANCH  14  16
ENDBRANCH  13  14
BRANCH   6   5
ATOM      5  C   UNL     1      -3.022   1.921  24.733  0.00  0.00    +0.120 C 
BRANCH   5   4
ATOM      4  N   UNL     1      -3.226   2.716  24.815  0.00  0.00    -0.217 NA
BRANCH   4   2
ATOM      1  C   UNL     1      -4.047   3.205  23.753  0.00  0.00    +0.019 C 
ATOM      2  C   UNL     1      -3.958   2.984  24.542  0.00  0.00    +0.073 C 
ATOM      3  C   UNL     1      -4.599   3.030  25.060  0.00  0.00    +0.019 C 
ENDBRANCH   4   2
ENDBRANCH   5   4
ENDBRANCH   6   5
TORSDOF 7
ENDMDL
MODEL 3
REMARK VINA RESULT:      -8.8      1.456      3.832
REMARK  Name = 
REMARK  7 active torsions:
REMARK  status: ('A' for Active; 'I' for Inactive)
REMARK    1  A    between atoms: C_2  and  N_4
REMARK    2  A    between atoms: N_4  and  C_5
REMARK    3  A    between atoms: C_5  and  C_6
REMARK    4  A    between atoms: C_8  and  C_9
REMARK    5  A    between atoms: C_13  and  N_14
REMARK    6  A    between atoms: N_14  and  C_16
REMARK    7  A    between atoms: C_16  and  C_17
REMARK                            x       y       z     vdW  Elec       q    Type
REMARK                         _______ _______ _______ _____ _____    ______ ____
ROOT
ATOM      6  C   UNL     1      -4.015   1.560  24.960  0.00  0.00    +0.150 C 
ATOM      7  O   UNL     1      -4.812   1.390  25.081  0.00  0.00    -0.350 OA
ATOM      8  C   UNL     1      -5.225   2.103  25.099  0.00  0.00    +0.180 C 
ATOM     11  C   UNL     1      -4.684   2.714  24.989  0.00  0.00    +0.198 C 
ATOM     12  O   UNL     1      -4.860   3.520  24.968  0.00  0.00    -0.219 OA
ATOM     13  C   UNL     1      -3.935   2.379  24.902  0.00  0.00    +0.120 C 
ENDROOT
BRANCH   8   9
ATOM      9  C   UNL     1      -6.039   2.190  25.209  0.00  0.00    +0.214 C 
ATOM     10  O   UNL     1      -6.560   1.635  24.890  0.00  0.00    -0.218 OA
ENDBRANCH   8   9
BRANCH  13  14
ATOM     14  N   UNL     1      -3.231   2.791  24.780  0.00  0.00    -0.265 NA
ATOM     15  C   UNL     1      -2.967   2.939  24.012  0.00  0.00    +0.090 C 
BRANCH  14  16
ATOM     16  C   UNL     1      -2.789   3.053  25.425  0.00  0.00    +0.099 C 
BRANCH  16  17
ATOM     17  C   UNL     1      -2.136   3.543  25.306  0.00  0.00    -0.006 A 
ATOM     18  C   UNL     1      -2.226   4.363  25.332  0.00  0.00    -0.003 A 
ATOM     19  C   UNL     1      -1.572   4.853  25.213  0.00  0.00    -0.000 A 
ATOM     20  C   UNL     1      -0.830   4.524  25.068  0.00  0.00    -0.000 A 
ATOM     21  C   UNL     1      -0.741   3.704  25.042  0.00  0.00    -0.000 A 
ATOM     22  C   UNL     1      -1.393   3.214  25.161  0.00  0.00    -0.003 A 
ENDBRANCH  16  17
ENDBRANCH  14  16
ENDBRANCH  13  14
BRANCH   6   5
ATOM      5  C   UNL     1      -3.404   1.008  24.905  0.00  0.00    +0.120 C 
BRANCH   5   4
ATOM      4  N   UNL     1      -3.566   0.204  24.990  0.00  0.00    -0.217 NA
BRANCH   4   2
ATOM      1  C   UNL     1      -2.630  -0.598  24.267  0.00  0.00    +0.019 C 
ATOM      2  C   UNL     1      -2.948  -0.344  24.984  0.00  0.00    +0.073 C 
ATOM      3  C   UNL     1      -2.651  -0.638  25.696  0.00  0.00    +0.019 C 
ENDBRANCH   4   2
ENDBRANCH   5   4
ENDBRANCH   6   5
TORSDOF 7
ENDMDL
MODEL 4
REMARK VINA RESULT:      -8.8      1.725      3.941
REMARK  Name = 
REMARK  7 active torsions:
REMARK  status: ('A' for Active; 'I' for Inactive)
REMARK    1  A    between atoms: C_2  and  N_4
REMARK    2  A    between atoms: N_4  and  C_5
REMARK    3  A    between atoms: C_5  and  C_6
REMARK    4  A    between atoms: C_8  and  C_9
REMARK    5  A    between atoms: C_13  and  N_14
REMARK    6  A    between atoms: N_14  and  C_16
REMARK    7  A    between atoms: C_16  and  C_17
REMARK                            x       y       z     vdW  Elec       q    Type
REMARK                         _______ _______ _______ _____ _____    ______ ____
ROOT
ATOM      6  C   UNL     1      -2.332  -0.163  24.386  0.00  0.00    +0.150 C 
ATOM      7  O   UNL     1      -1.526  -0.334  24.337  0.00  0.00    -0.350 OA
ATOM      8  C   UNL     1      -1.121   0.376  24.227  0.00  0.00    +0.180 C 
ATOM     11  C   UNL     1      -1.676   0.986  24.208  0.00  0.00    +0.198 C 
ATOM     12  O   UNL     1      -1.511   1.788  24.109  0.00  0.00    -0.219 OA
ATOM     13  C   UNL     1      -2.424   0.653  24.307  0.00  0.00    +0.120 C 
ENDROOT
BRANCH   8   9
ATOM      9  C   UNL     1      -0.304   0.461  24.149  0.00  0.00    +0.214 C 
ATOM     10  O   UNL     1       0.145  -0.150  23.823  0.00  0.00    -0.218 OA
ENDBRANCH   8   9
BRANCH  13  14
ATOM     14  N   UNL     1      -3.139   1.064  24.323  0.00  0.00    -0.265 NA
ATOM     15  C   UNL     1      -3.533   1.236  23.619  0.00  0.00    +0.090 C 
BRANCH  14  16
ATOM     16  C   UNL     1      -3.461   1.304  25.044  0.00  0.00    +0.099 C 
BRANCH  16  17
ATOM     17  C   UNL     1      -4.160   1.742  25.059  0.00  0.00    -0.006 A 
ATOM     18  C   UNL     1      -4.888   1.355  25.082  0.00  0.00    -0.003 A 
ATOM     19  C   UNL     1      -5.587   1.794  25.097  0.00  0.00    -0.000 A 
ATOM     20  C   UNL     1      -5.558   2.618  25.089  0.00  0.00    -0.000 A 
ATOM     21  C   UNL     1      -4.829   3.004  25.065  0.00  0.00    -0.000 A 
ATOM     22  C   UNL     1      -4.130   2.567  25.051  0.00  0.00    -0.003 A 
ENDBRANCH  16  17
ENDBRANCH  14  16
ENDBRANCH  13  14
BRANCH   6   5
ATOM      5  C   UNL     1      -2.938  -0.711  24.496  0.00  0.00    +0.120 C 
BRANCH   5   4
ATOM      4  N   UNL     1      -2.776  -1.519  24.455  0.00  0.00    -0.217 NA
BRANCH   4   2
ATOM      1  C   UNL     1      -3.424  -2.364  25.408  0.00  0.00    +0.019 C 
ATOM      2  C   UNL     1      -3.364  -2.068  24.641  0.00  0.00    +0.073 C 
ATOM      3  C   UNL     1      -3.892  -2.319  24.058  0.00  0.00    +0.019 C 
ENDBRANCH   4   2
ENDBRANCH   5   4
ENDBRANCH   6   5
TORSDOF 7
ENDMDL
MODEL 5
REMARK VINA RESULT:      -8.8      1.840      4.490
REMARK  Name = 
REMARK  7 active torsions:
REMARK  status: ('A' for Active; 'I' for Inactive)
REMARK    1  A    between atoms: C_2  and  N_4
REMARK    2  A    between atoms: N_4  and  C_5
REMARK    3  A    between atoms: C_5  and  C_6
REMARK    4  A    between atoms: C_8  and  C_9
REMARK    5  A    between atoms: C_13  and  N_14
REMARK    6  A    between atoms: N_14  and  C_16
REMARK    7  A    between atoms: C_16  and  C_17
REMARK                            x       y       z     vdW  Elec       q    Type
REMARK                         _______ _______ _______ _____ _____    ______ ____
ROOT
ATOM      6  C   UNL     1      -3.441   1.279  24.890  0.00  0.00    +0.150 C 
ATOM      7  O   UNL     1      -3.464   0.455  24.919  0.00  0.00    -0.350 OA
ATOM      8  C   UNL     1      -2.701   0.174  24.783  0.00  0.00    +0.180 C 
ATOM     11  C   UNL     1      -2.207   0.823  24.670  0.00  0.00    +0.198 C 
ATOM     12  O   UNL     1      -1.396   0.794  24.517  0.00  0.00    -0.219 OA
ATOM     13  C   UNL     1      -2.663   1.506  24.736  0.00  0.00    +0.120 C 
ENDROOT
BRANCH   8   9
ATOM      9  C   UNL     1      -2.473  -0.619  24.764  0.00  0.00    +0.214 C 
ATOM     10  O   UNL     1      -3.039  -1.214  24.846  0.00  0.00    -0.218 OA
ENDBRANCH   8   9
BRANCH  13  14
ATOM     14  N   UNL     1      -2.390   2.281  24.660  0.00  0.00    -0.265 NA
ATOM     15  C   UNL     1      -2.451   2.672  23.936  0.00  0.00    +0.090 C 
BRANCH  14  16
ATOM     16  C   UNL     1      -2.057   2.666  25.310  0.00  0.00    +0.099 C 
BRANCH  16  17
ATOM     17  C   UNL     1      -1.775   3.438  25.232  0.00  0.00    -0.006 A 
ATOM     18  C   UNL     1      -1.001   3.571  24.981  0.00  0.00    -0.003 A 
ATOM     19  C   UNL     1      -0.719   4.342  24.904  0.00  0.00    -0.000 A 
ATOM     20  C   UNL     1      -1.212   4.981  25.076  0.00  0.00    -0.000 A 
ATOM     21  C   UNL     1      -1.987   4.847  25.327  0.00  0.00    -0.000 A 
ATOM     22  C   UNL     1      -2.268   4.077  25.405  0.00  0.00    -0.003 A 
ENDBRANCH  16  17
ENDBRANCH  14  16
ENDBRANCH  13  14
BRANCH   6   5
ATOM      5  C   UNL     1      -4.083   1.787  24.997  0.00  0.00    +0.120 C 
BRANCH   5   4
ATOM      4  N   UNL     1      -4.799   1.491  25.281  0.00  0.00    -0.217 NA
BRANCH   4   2
ATOM      1  C   UNL     1      -6.040   1.936  24.731  0.00  0.00    +0.019 C 
ATOM      2  C   UNL     1      -5.462   1.982  25.317  0.00  0.00    +0.073 C 
ATOM      3  C   UNL     1      -5.545   2.518  25.939  0.00  0.00    +0.019 C 
ENDBRANCH   4   2
ENDBRANCH   5   4
ENDBRANCH   6   5
TORSDOF 7
ENDMDL
MODEL 6
REMARK VINA RESULT:      -8.6      2.311      4.875
REMARK  Name = 
REMARK  7 active torsions:
REMARK  status: ('A' for Active; 'I' for Inactive)
REMARK    1  A    between atoms: C_2  and  N_4
REMARK    2  A    between atoms: N_4  and  C_5
REMARK    3  A    between atoms: C_5  and  C_6
REMARK    4  A    between atoms: C_8  and  C_9
REMARK    5  A    between atoms: C_13  and  N_14
REMARK    6  A    between atoms: N_14  and  C_16
REMARK    7  A    between atoms: C_16  and  C_17
REMARK                            x       y       z     vdW  Elec       q    Type
REMARK                         _______ _______ _______ _____ _____    ______ ____
ROOT
ATOM      6  C   UNL     1      -1.347   0.666  24.444  0.00  0.00    +0.150 C 
ATOM      7  O   UNL     1      -0.893   0.119  24.025  0.00  0.00    -0.350 OA
ATOM      8  C   UNL     1      -0.160   0.462  23.871  0.00  0.00    +0.180 C 
ATOM     11  C   UNL     1      -0.159   1.220  24.194  0.00  0.00    +0.198 C 
ATOM     12  O   UNL     1       0.466   1.758  24.167  0.00  0.00    -0.219 OA
ATOM     13  C   UNL     1      -0.892   1.346  24.548  0.00  0.00    +0.120 C 
ENDROOT
BRANCH   8   9
ATOM      9  C   UNL     1       0.465   0.108  23.464  0.00  0.00    +0.214 C 
ATOM     10  O   UNL     1       0.522  -0.715  23.430  0.00  0.00    -0.218 OA
ENDBRANCH   8   9
BRANCH  13  14
ATOM     14  N   UNL     1      -1.131   2.033  24.939  0.00  0.00    -0.265 NA
ATOM     15  C   UNL     1      -0.965   2.130  25.742  0.00  0.00    +0.090 C 
BRANCH  14  16
ATOM     16  C   UNL     1      -1.534   2.623  24.527  0.00  0.00    +0.099 C 
BRANCH  16  17
ATOM     17  C   UNL     1      -1.672   3.355  24.883  0.00  0.00    -0.006 A 
ATOM     18  C   UNL     1      -2.345   3.467  25.346  0.00  0.00    -0.003 A 
ATOM     19  C   UNL     1      -2.483   4.199  25.703  0.00  0.00    -0.000 A 
ATOM     20  C   UNL     1      -1.948   4.817  25.596  0.00  0.00    -0.000 A 
ATOM     21  C   UNL     1      -1.274   4.704  25.133  0.00  0.00    -0.000 A 
ATOM     22  C   UNL     1      -1.136   3.973  24.777  0.00  0.00    -0.003 A 
ENDBRANCH  16  17
ENDBRANCH  14  16
ENDBRANCH  13  14
BRANCH   6   5
ATOM      5  C   UNL     1      -2.119   0.552  24.712  0.00  0.00    +0.120 C 
BRANCH   5   4
ATOM      4  N   UNL     1      -2.512  -0.154  24.547  0.00  0.00    -0.217 NA
BRANCH   4   2
ATOM      1  C   UNL     1      -3.920  -0.019  24.342  0.00  0.00    +0.019 C 
ATOM      2  C   UNL     1      -3.288  -0.265  24.809  0.00  0.00    +0.073 C 
ATOM      3  C   UNL     1      -3.428  -0.623  25.539  0.00  0.00    +0.019 C 
ENDBRANCH   4   2
ENDBRANCH   5   4
ENDBRANCH   6   5
TORSDOF 7
ENDMDL
