MODEL 1
REMARK VINA RESULT:     -11.6      0.000      0.000
REMARK  Name = 
REMARK  7 active torsions:
REMARK  status: ('A' for Active; 'I' for Inactive)
REMARK    1  A    between atoms: C_2  and  C_4
REMARK    2  A    between atoms: C_6  and  C_7
REMARK    3  A    between atoms: C_7  and  C_8
REMARK    4  A    between atoms: N_10  and  C_11
REMARK    5  A    between atoms: C_19  and  C_20
REMARK    6  A    between atoms: C_20  and  N_21
REMARK    7  A    between atoms: C_22  and  C_24
REMARK                            x       y       z     vdW  Elec       q    Type
REMARK                         _______ _______ _______ _____ _____    ______ ____
ROOT
ATOM      4  C   UNL     1      -3.051   1.734  24.782  0.00  0.00    +0.006 C 
ATOM      5  C   UNL     1      -2.437   2.243  24.990  0.00  0.00    +0.005 C 
ATOM      6  C   UNL     1      -1.695   1.939  25.179  0.00  0.00    +0.027 C 
ATOM     16  C   UNL     1      -1.566   1.124  25.161  0.00  0.00    -0.048 C 
ATOM     17  C   UNL     1      -0.823   0.819  25.351  0.00  0.00    +0.026 C 
ATOM     18  C   UNL     1      -2.181   0.614  24.953  0.00  0.00    -0.033 C 
ATOM     19  C   UNL     1      -2.923   0.919  24.763  0.00  0.00    +0.043 C 
ENDROOT
BRANCH   4   2
ATOM      1  C   UNL     1      -4.356   2.155  25.185  0.00  0.00    +0.000 C 
ATOM      2  C   UNL     1      -3.794   2.039  24.592  0.00  0.00    +0.000 C 
ATOM      3  C   UNL     1      -3.975   2.227  23.810  0.00  0.00    +0.000 C 
ENDBRANCH   4   2
BRANCH   6   7
ATOM      7  C   UNL     1      -1.080   2.449  25.388  0.00  0.00    +0.091 C 
BRANCH   7   8
ATOM      8  C   UNL     1      -1.049   3.209  25.069  0.00  0.00    +0.242 C 
ATOM      9  O   UNL     1      -0.877   3.313  24.269  0.00  0.00    -0.273 OA
ATOM     10  N   UNL     1      -1.189   3.864  25.550  0.00  0.00    -0.207 NA
BRANCH  10  11
ATOM     11  C   UNL     1      -1.157   4.625  25.231  0.00  0.00    +0.095 C 
ATOM     12  C   UNL     1      -1.759   5.188  25.262  0.00  0.00    +0.022 C 
ATOM     13  C   UNL     1      -1.493   5.867  24.875  0.00  0.00    +0.002 C 
ATOM     14  C   UNL     1      -0.726   5.722  24.607  0.00  0.00    +0.002 C 
ATOM     15  C   UNL     1      -0.519   4.954  24.827  0.00  0.00    +0.022 C 
ENDBRANCH  10  11
ENDBRANCH   7   8
ENDBRANCH   6   7
BRANCH  19  20
ATOM     20  C   UNL     1      -3.537   0.409  24.555  0.00  0.00    +0.120 C 
BRANCH  20  21
ATOM     21  N   UNL     1      -3.411  -0.406  24.539  0.00  0.00    -0.201 NA
ATOM     22  C   UNL     1      -4.042  -0.918  24.400  0.00  0.00    +0.265 C 
ATOM     23  O   UNL     1      -4.800  -0.616  24.276  0.00  0.00    -0.268 OA
BRANCH  22  24
ATOM     24  C   UNL     1      -3.916  -1.734  24.384  0.00  0.00    +0.055 A 
ATOM     25  C   UNL     1      -4.185  -2.180  23.745  0.00  0.00    +0.005 A 
ATOM     26  C   UNL     1      -4.059  -2.995  23.729  0.00  0.00    +0.000 A 
ATOM     27  C   UNL     1      -3.663  -3.364  24.353  0.00  0.00    +0.000 A 
ATOM     28  C   UNL     1      -3.394  -2.917  24.992  0.00  0.00    +0.000 A 
ATOM     29  C   UNL     1      -3.520  -2.102  25.007  0.00  0.00    +0.005 A 
ENDBRANCH  22  24
ENDBRANCH  20  21
ENDBRANCH  19  20
TORSDOF 7
ENDMDL
MODEL 2
REMARK VINA RESULT:     -11.5      0.675      5.957
REMARK  Name = 
REMARK  7 active torsions:
REMARK  status: ('A' for Active; 'I' for Inactive)
REMARK    1  A    between atoms: C_2  and  C_4
REMARK    2  A    between atoms: C_6  and  C_7
REMARK    3  A    between atoms: C_7  and  C_8
REMARK    4  A    between atoms: N_10  and  C_11
REMARK    5  A    between atoms: C_19  and  C_20
REMARK    6  A    between atoms: C_20  and  N_21
REMARK    7  A    between atoms: C_22  and  C_24
REMARK                            x       y       z     vdW  Elec       q    Type
REMARK                         _______ _______ _______ _____ _____    ______ ____
ROOT
ATOM      4  C   UNL     1      -2.087   0.771  24.956  0.00  0.00    +0.006 C 
ATOM      5  C   UNL     1      -2.725   0.271  24.803  0.00  0.00    +0.005 C 
ATOM      6  C   UNL     1      -3.479   0.584  24.697  0.00  0.00    +0.027 C 
ATOM     16  C   UNL     1      -3.598   1.399  24.743  0.00  0.00    -0.048 C 
ATOM     17  C   UNL     1      -4.353   1.713  24.637  0.00  0.00    +0.026 C 
ATOM     18  C   UNL     1      -2.960   1.901  24.897  0.00  0.00    -0.033 C 
ATOM     19  C   UNL     1      -2.206   1.587  25.004  0.00  0.00    +0.043 C 
ENDROOT
BRANCH   4   2
ATOM      1  C   UNL     1      -0.810   0.413  24.425  0.00  0.00    +0.000 C 
ATOM      2  C   UNL     1      -1.332   0.457  25.063  0.00  0.00    +0.000 C 
ATOM      3  C   UNL     1      -1.099   0.187  25.806  0.00  0.00    +0.000 C 
ENDBRANCH   4   2
BRANCH   6   7
ATOM      7  C   UNL     1      -4.117   0.083  24.543  0.00  0.00    +0.091 C 
BRANCH   7   8
ATOM      8  C   UNL     1      -3.983  -0.679  24.258  0.00  0.00    +0.242 C 
ATOM      9  O   UNL     1      -3.721  -0.790  23.483  0.00  0.00    -0.273 OA
ATOM     10  N   UNL     1      -4.111  -1.331  24.747  0.00  0.00    -0.207 NA
BRANCH  10  11
ATOM     11  C   UNL     1      -3.977  -2.094  24.461  0.00  0.00    +0.095 C 
ATOM     12  C   UNL     1      -3.434  -2.636  24.765  0.00  0.00    +0.022 C 
ATOM     13  C   UNL     1      -3.484  -3.325  24.314  0.00  0.00    +0.002 C 
ATOM     14  C   UNL     1      -4.058  -3.209  23.733  0.00  0.00    +0.002 C 
ATOM     15  C   UNL     1      -4.363  -2.447  23.825  0.00  0.00    +0.022 C 
ENDBRANCH  10  11
ENDBRANCH   7   8
ENDBRANCH   6   7
BRANCH  19  20
ATOM     20  C   UNL     1      -1.568   2.087  25.157  0.00  0.00    +0.120 C 
BRANCH  20  21
ATOM     21  N   UNL     1      -1.628   2.894  24.996  0.00  0.00    -0.201 NA
ATOM     22  C   UNL     1      -1.087   3.421  25.325  0.00  0.00    +0.265 C 
ATOM     23  O   UNL     1      -0.484   3.143  25.815  0.00  0.00    -0.268 OA
BRANCH  22  24
ATOM     24  C   UNL     1      -1.147   4.229  25.164  0.00  0.00    +0.055 A 
ATOM     25  C   UNL     1      -0.554   4.609  24.734  0.00  0.00    +0.005 A 
ATOM     26  C   UNL     1      -0.614   5.416  24.573  0.00  0.00    +0.000 A 
ATOM     27  C   UNL     1      -1.267   5.843  24.843  0.00  0.00    +0.000 A 
ATOM     28  C   UNL     1      -1.859   5.462  25.273  0.00  0.00    +0.000 A 
ATOM     29  C   UNL     1      -1.799   4.655  25.433  0.00  0.00    +0.005 A 
ENDBRANCH  22  24
ENDBRANCH  20  21
ENDBRANCH  19  20
TORSDOF 7
ENDMDL
MODEL 3
REMARK VINA RESULT:     -11.4      1.201      5.681
REMARK  Name = 
REMARK  7 active torsions:
REMARK  status: ('A' for Active; 'I' for Inactive)
REMARK    1  A    between atoms: C_2  and  C_4
REMARK    2  A    between atoms: C_6  and  C_7
REMARK    3  A    between atoms: C_7  and  C_8
REMARK    4  A    between atoms: N_10  and  C_11
REMARK    5  A    between atoms: C_19  and  C_20
REMARK    6  A    between atoms: C_20  and  N_21
REMARK    7  A    between atoms: C_22  and  C_24
REMARK                            x       y       z     vdW  Elec       q    Type
REMARK                         _______ _______ _______ _____ _____    ______ ____
ROOT
ATOM      4  C   UNL     1      -4.324   1.582  24.695  0.00  0.00    +0.006 C 
ATOM      5  C   UNL     1      -4.367   0.854  24.309  0.00  0.00    +0.005 C 
ATOM      6  C   UNL     1      -3.736   0.593  23.849  0.00  0.00    +0.027 C 
ATOM     16  C   UNL     1      -3.059   1.058  23.774  0.00  0.00    -0.048 C 
ATOM     17  C   UNL     1      -2.426   0.797  23.314  0.00  0.00    +0.026 C 
ATOM     18  C   UNL     1      -3.014   1.786  24.161  0.00  0.00    -0.033 C 
ATOM     19  C   UNL     1      -3.646   2.048  24.621  0.00  0.00    +0.043 C 
ENDROOT
BRANCH   4   2
ATOM      1  C   UNL     1      -5.013   1.614  25.947  0.00  0.00    +0.000 C 
ATOM      2  C   UNL     1      -4.956   1.843  25.156  0.00  0.00    +0.000 C 
ATOM      3  C   UNL     1      -5.531   2.334  24.826  0.00  0.00    +0.000 C 
ENDBRANCH   4   2
BRANCH   6   7
ATOM      7  C   UNL     1      -3.780  -0.135  23.462  0.00  0.00    +0.091 C 
BRANCH   7   8
ATOM      8  C   UNL     1      -3.877  -0.829  23.898  0.00  0.00    +0.242 C 
ATOM      9  O   UNL     1      -4.630  -1.058  24.145  0.00  0.00    -0.273 OA
ATOM     10  N   UNL     1      -3.221  -1.292  24.087  0.00  0.00    -0.207 NA
BRANCH  10  11
ATOM     11  C   UNL     1      -3.318  -1.986  24.523  0.00  0.00    +0.095 C 
ATOM     12  C   UNL     1      -3.189  -2.071  25.333  0.00  0.00    +0.022 C 
ATOM     13  C   UNL     1      -3.352  -2.854  25.536  0.00  0.00    +0.002 C 
ATOM     14  C   UNL     1      -3.582  -3.252  24.852  0.00  0.00    +0.002 C 
ATOM     15  C   UNL     1      -3.561  -2.715  24.225  0.00  0.00    +0.022 C 
ENDBRANCH  10  11
ENDBRANCH   7   8
ENDBRANCH   6   7
BRANCH  19  20
ATOM     20  C   UNL     1      -3.602   2.775  25.008  0.00  0.00    +0.120 C 
BRANCH  20  21
ATOM     21  N   UNL     1      -2.967   3.282  24.864  0.00  0.00    -0.201 NA
ATOM     22  C   UNL     1      -2.766   3.857  25.419  0.00  0.00    +0.265 C 
ATOM     23  O   UNL     1      -3.199   3.927  26.118  0.00  0.00    -0.268 OA
BRANCH  22  24
ATOM     24  C   UNL     1      -2.130   4.365  25.275  0.00  0.00    +0.055 A 
ATOM     25  C   UNL     1      -1.364   4.062  25.227  0.00  0.00    +0.005 A 
ATOM     26  C   UNL     1      -0.729   4.569  25.083  0.00  0.00    +0.000 A 
ATOM     27  C   UNL     1      -0.860   5.378  24.987  0.00  0.00    +0.000 A 
ATOM     28  C   UNL     1      -1.626   5.680  25.035  0.00  0.00    +0.000 A 
ATOM     29  C   UNL     1      -2.261   5.173  25.179  0.00  0.00    +0.005 A 
ENDBRANCH  22  24
ENDBRANCH  20  21
ENDBRANCH  19  20
TORSDOF 7
ENDMDL
MODEL 4
REMARK VINA RESULT:     -11.4      1.176      1.796
REMARK  Name = 
REMARK  7 active torsions:
REMARK  status: ('A' for Active; 'I' for Inactive)
REMARK    1  A    between atoms: C_2  and  C_4
REMARK    2  A    between atoms: C_6  and  C_7
REMARK    3  A    between atoms: C_7  and  C_8
REMARK    4  A    between atoms: N_10  and  C_11
REMARK    5  A    between atoms: C_19  and  C_20
REMARK    6  A    between atoms: C_20  and  N_21
REMARK    7  A    between atoms: C_22  and  C_24
REMARK                            x       y       z     vdW  Elec       q    Type
REMARK                         _______ _______ _______ _____ _____    ______ ____
ROOT
ATOM      4  C   UNL     1      -3.193   1.778  23.757  0.00  0.00    +0.006 C 
ATOM      5  C   UNL     1      -3.205   2.535  24.083  0.00  0.00    +0.005 C 
ATOM      6  C   UNL     1      -3.733   2.714  24.690  0.00  0.00    +0.027 C 
ATOM     16  C   UNL     1      -4.251   2.137  24.971  0.00  0.00    -0.048 C 
ATOM     17  C   UNL     1      -4.779   2.316  25.579  0.00  0.00    +0.026 C 
ATOM     18  C   UNL     1      -4.239   1.378  24.645  0.00  0.00    -0.033 C 
ATOM     19  C   UNL     1      -3.711   1.199  24.038  0.00  0.00    +0.043 C 
ENDROOT
BRANCH   4   2
ATOM      1  C   UNL     1      -2.888   1.709  22.363  0.00  0.00    +0.000 C 
ATOM      2  C   UNL     1      -2.665   1.598  23.149  0.00  0.00    +0.000 C 
ATOM      3  C   UNL     1      -1.914   1.308  23.329  0.00  0.00    +0.000 C 
ENDBRANCH   4   2
BRANCH   6   7
ATOM      7  C   UNL     1      -3.745   3.473  25.017  0.00  0.00    +0.091 C 
BRANCH   7   8
ATOM      8  C   UNL     1      -3.131   4.000  24.857  0.00  0.00    +0.242 C 
ATOM      9  O   UNL     1      -3.135   4.438  24.158  0.00  0.00    -0.273 OA
ATOM     10  N   UNL     1      -2.514   4.089  25.396  0.00  0.00    -0.207 NA
BRANCH  10  11
ATOM     11  C   UNL     1      -1.899   4.617  25.237  0.00  0.00    +0.095 C 
ATOM     12  C   UNL     1      -1.111   4.415  25.100  0.00  0.00    +0.022 C 
ATOM     13  C   UNL     1      -0.690   5.112  24.965  0.00  0.00    +0.002 C 
ATOM     14  C   UNL     1      -1.218   5.743  25.018  0.00  0.00    +0.002 C 
ATOM     15  C   UNL     1      -1.966   5.437  25.186  0.00  0.00    +0.022 C 
ENDBRANCH  10  11
ENDBRANCH   7   8
ENDBRANCH   6   7
BRANCH  19  20
ATOM     20  C   UNL     1      -3.699   0.442  23.712  0.00  0.00    +0.120 C 
BRANCH  20  21
ATOM     21  N   UNL     1      -3.541  -0.212  24.190  0.00  0.00    -0.201 NA
ATOM     22  C   UNL     1      -3.814  -0.958  23.970  0.00  0.00    +0.265 C 
ATOM     23  O   UNL     1      -4.244  -1.052  23.273  0.00  0.00    -0.268 OA
BRANCH  22  24
ATOM     24  C   UNL     1      -3.655  -1.613  24.449  0.00  0.00    +0.055 A 
ATOM     25  C   UNL     1      -3.658  -2.371  24.124  0.00  0.00    +0.005 A 
ATOM     26  C   UNL     1      -3.500  -3.025  24.602  0.00  0.00    +0.000 A 
ATOM     27  C   UNL     1      -3.340  -2.920  25.405  0.00  0.00    +0.000 A 
ATOM     28  C   UNL     1      -3.337  -2.161  25.729  0.00  0.00    +0.000 A 
ATOM     29  C   UNL     1      -3.495  -1.507  25.251  0.00  0.00    +0.005 A 
ENDBRANCH  22  24
ENDBRANCH  20  21
ENDBRANCH  19  20
TORSDOF 7
ENDMDL
MODEL 5
REMARK VINA RESULT:      -9.3      2.349      4.405
REMARK  Name = 
REMARK  7 active torsions:
REMARK  status: ('A' for Active; 'I' for Inactive)
REMARK    1  A    between atoms: C_2  and  C_4
REMARK    2  A    between atoms: C_6  and  C_7
REMARK    3  A    between atoms: C_7  and  C_8
REMARK    4  A    between atoms: N_10  and  C_11
REMARK    5  A    between atoms: C_19  and  C_20
REMARK    6  A    between atoms: C_20  and  N_21
REMARK    7  A    between atoms: C_22  and  C_24
REMARK                            x       y       z     vdW  Elec       q    Type
REMARK                         _______ _______ _______ _____ _____    ______ ____
ROOT
ATOM      4  C   UNL     1      -1.056   1.994  24.685  0.00  0.00    +0.006 C 
ATOM      5  C   UNL     1      -0.518   1.391  24.518  0.00  0.00    +0.005 C 
ATOM      6  C   UNL     1      -0.791   0.636  24.331  0.00  0.00    +0.027 C 
ATOM     16  C   UNL     1      -1.601   0.483  24.310  0.00  0.00    -0.048 C 
ATOM     17  C   UNL     1      -1.873  -0.273  24.122  0.00  0.00    +0.026 C 
ATOM     18  C   UNL     1      -2.139   1.086  24.476  0.00  0.00    -0.033 C 
ATOM     19  C   UNL     1      -1.867   1.841  24.664  0.00  0.00    +0.043 C 
ENDROOT
BRANCH   4   2
ATOM      1  C   UNL     1      -0.619   2.946  25.657  0.00  0.00    +0.000 C 
ATOM      2  C   UNL     1      -0.783   2.750  24.872  0.00  0.00    +0.000 C 
ATOM      3  C   UNL     1      -0.675   3.309  24.276  0.00  0.00    +0.000 C 
ENDBRANCH   4   2
BRANCH   6   7
ATOM      7  C   UNL     1      -0.252   0.032  24.164  0.00  0.00    +0.091 C 
BRANCH   7   8
ATOM      8  C   UNL     1       0.301   0.128  23.560  0.00  0.00    +0.242 C 
ATOM      9  O   UNL     1       0.071   0.457  22.839  0.00  0.00    -0.273 OA
ATOM     10  N   UNL     1       1.083  -0.105  23.677  0.00  0.00    -0.207 NA
BRANCH  10  11
ATOM     11  C   UNL     1       1.637  -0.009  23.072  0.00  0.00    +0.095 C 
ATOM     12  C   UNL     1       2.329   0.439  23.116  0.00  0.00    +0.022 C 
ATOM     13  C   UNL     1       2.716   0.381  22.389  0.00  0.00    +0.002 C 
ATOM     14  C   UNL     1       2.262  -0.102  21.897  0.00  0.00    +0.002 C 
ATOM     15  C   UNL     1       1.596  -0.343  22.320  0.00  0.00    +0.022 C 
ENDBRANCH  10  11
ENDBRANCH   7   8
ENDBRANCH   6   7
BRANCH  19  20
ATOM     20  C   UNL     1      -2.404   2.444  24.830  0.00  0.00    +0.120 C 
BRANCH  20  21
ATOM     21  N   UNL     1      -3.186   2.261  25.020  0.00  0.00    -0.201 NA
ATOM     22  C   UNL     1      -3.773   2.834  24.946  0.00  0.00    +0.265 C 
ATOM     23  O   UNL     1      -3.580   3.592  24.683  0.00  0.00    -0.268 OA
BRANCH  22  24
ATOM     24  C   UNL     1      -4.556   2.651  25.136  0.00  0.00    +0.055 A 
ATOM     25  C   UNL     1      -4.894   2.952  25.826  0.00  0.00    +0.005 A 
ATOM     26  C   UNL     1      -5.676   2.768  26.015  0.00  0.00    +0.000 A 
ATOM     27  C   UNL     1      -6.119   2.283  25.515  0.00  0.00    +0.000 A 
ATOM     28  C   UNL     1      -5.780   1.983  24.826  0.00  0.00    +0.000 A 
ATOM     29  C   UNL     1      -4.998   2.167  24.636  0.00  0.00    +0.005 A 
ENDBRANCH  22  24
ENDBRANCH  20  21
ENDBRANCH  19  20
TORSDOF 7
ENDMDL
MODEL 6
REMARK VINA RESULT:      -9.2      2.451      4.099
REMARK  Name = 
REMARK  7 active torsions:
REMARK  status: ('A' for Active; 'I' for Inactive)
REMARK    1  A    between atoms: C_2  and  C_4
REMARK    2  A    between atoms: C_6  and  C_7
REMARK    3  A    between atoms: C_7  and  C_8
REMARK    4  A    between atoms: N_10  and  C_11
REMARK    5  A    between atoms: C_19  and  C_20
REMARK    6  A    between atoms: C_20  and  N_21
REMARK    7  A    between atoms: C_22  and  C_24
REMARK                            x       y       z     vdW  Elec       q    Type
REMARK                         _______ _______ _______ _____ _____    ______ ____
ROOT
ATOM      4  C   UNL     1      -1.738   1.042  24.755  0.00  0.00    +0.006 C 
ATOM      5  C   UNL     1      -2.135   1.719  25.010  0.00  0.00    +0.005 C 
ATOM      6  C   UNL     1      -1.801   2.462  24.891  0.00  0.00    +0.027 C 
ATOM     16  C   UNL     1      -1.069   2.531  24.517  0.00  0.00    -0.048 C 
ATOM     17  C   UNL     1      -0.734   3.276  24.397  0.00  0.00    +0.026 C 
ATOM     18  C   UNL     1      -0.671   1.854  24.262  0.00  0.00    -0.033 C 
ATOM     19  C   UNL     1      -1.005   1.110  24.381  0.00  0.00    +0.043 C 
ENDROOT
BRANCH   4   2
ATOM      1  C   UNL     1      -1.902  -0.125  25.563  0.00  0.00    +0.000 C 
ATOM      2  C   UNL     1      -2.072   0.297  24.875  0.00  0.00    +0.000 C 
ATOM      3  C   UNL     1      -2.576  -0.024  24.307  0.00  0.00    +0.000 C 
ENDBRANCH   4   2
BRANCH   6   7
ATOM      7  C   UNL     1      -2.198   3.139  25.146  0.00  0.00    +0.091 C 
BRANCH   7   8
ATOM      8  C   UNL     1      -3.016   3.199  25.050  0.00  0.00    +0.242 C 
ATOM      9  O   UNL     1      -3.342   3.213  24.292  0.00  0.00    -0.273 OA
ATOM     10  N   UNL     1      -3.506   3.244  25.711  0.00  0.00    -0.207 NA
BRANCH  10  11
ATOM     11  C   UNL     1      -4.324   3.303  25.615  0.00  0.00    +0.095 C 
ATOM     12  C   UNL     1      -4.867   2.689  25.704  0.00  0.00    +0.022 C 
ATOM     13  C   UNL     1      -5.621   2.993  25.558  0.00  0.00    +0.002 C 
ATOM     14  C   UNL     1      -5.542   3.794  25.379  0.00  0.00    +0.002 C 
ATOM     15  C   UNL     1      -4.740   3.986  25.415  0.00  0.00    +0.022 C 
ENDBRANCH  10  11
ENDBRANCH   7   8
ENDBRANCH   6   7
BRANCH  19  20
ATOM     20  C   UNL     1      -0.608   0.434  24.126  0.00  0.00    +0.120 C 
BRANCH  20  21
ATOM     21  N   UNL     1       0.054   0.502  23.639  0.00  0.00    -0.201 NA
ATOM     22  C   UNL     1       0.507  -0.164  23.464  0.00  0.00    +0.265 C 
ATOM     23  O   UNL     1       0.300  -0.899  23.776  0.00  0.00    -0.268 OA
BRANCH  22  24
ATOM     24  C   UNL     1       1.170  -0.096  22.976  0.00  0.00    +0.055 A 
ATOM     25  C   UNL     1       1.128  -0.335  22.187  0.00  0.00    +0.005 A 
ATOM     26  C   UNL     1       1.790  -0.267  21.700  0.00  0.00    +0.000 A 
ATOM     27  C   UNL     1       2.494   0.041  22.001  0.00  0.00    +0.000 A 
ATOM     28  C   UNL     1       2.536   0.280  22.790  0.00  0.00    +0.000 A 
ATOM     29  C   UNL     1       1.874   0.211  23.277  0.00  0.00    +0.005 A 
ENDBRANCH  22  24
ENDBRANCH  20  21
ENDBRANCH  19  20
TORSDOF 7
ENDMDL
MODEL 7
REMARK VINA RESULT:      -9.1      2.301      4.367
REMARK  Name = 
REMARK  7 active torsions:
REMARK  status: ('A' for Active; 'I' for Inactive)
REMARK    1  A    between atoms: C_2  and  C_4
REMARK    2  A    between atoms: C_6  and  C_7
REMARK    3  A    between atoms: C_7  and  C_8
REMARK    4  A    between atoms: N_10  and  C_11
REMARK    5  A    between atoms: C_19  and  C_20
REMARK    6  A    between atoms: C_20  and  N_21
REMARK    7  A    between atoms: C_22  and  C_24
REMARK                            x       y       z     vdW  Elec       q    Type
REMARK                         _______ _______ _______ _____ _____    ______ ____
ROOT
ATOM      4  C   UNL     1      -2.781  -0.573  24.643  0.00  0.00    +0.006 C 
ATOM      5  C   UNL     1      -1.988  -0.798  24.679  0.00  0.00    +0.005 C 
ATOM      6  C   UNL     1      -1.428  -0.285  24.998  0.00  0.00    +0.027 C 
ATOM     16  C   UNL     1      -1.659   0.454  25.282  0.00  0.00    -0.048 C 
ATOM     17  C   UNL     1      -1.098   0.968  25.602  0.00  0.00    +0.026 C 
ATOM     18  C   UNL     1      -2.453   0.680  25.246  0.00  0.00    -0.033 C 
ATOM     19  C   UNL     1      -3.013   0.166  24.927  0.00  0.00    +0.043 C 
ENDROOT
BRANCH   4   2
ATOM      1  C   UNL     1      -3.582  -0.998  23.539  0.00  0.00    +0.000 C 
ATOM      2  C   UNL     1      -3.342  -1.087  24.323  0.00  0.00    +0.000 C 
ATOM      3  C   UNL     1      -3.661  -1.688  24.788  0.00  0.00    +0.000 C 
ENDBRANCH   4   2
BRANCH   6   7
ATOM      7  C   UNL     1      -0.634  -0.510  25.034  0.00  0.00    +0.091 C 
BRANCH   7   8
ATOM      8  C   UNL     1      -0.205  -0.622  24.338  0.00  0.00    +0.242 C 
ATOM      9  O   UNL     1      -0.234  -1.349  23.949  0.00  0.00    -0.273 OA
ATOM     10  N   UNL     1       0.252  -0.008  24.032  0.00  0.00    -0.207 NA
BRANCH  10  11
ATOM     11  C   UNL     1       0.681  -0.120  23.336  0.00  0.00    +0.095 C 
ATOM     12  C   UNL     1       0.364  -0.191  22.578  0.00  0.00    +0.022 C 
ATOM     13  C   UNL     1       0.989  -0.295  22.049  0.00  0.00    +0.002 C 
ATOM     14  C   UNL     1       1.692  -0.288  22.481  0.00  0.00    +0.002 C 
ATOM     15  C   UNL     1       1.501  -0.180  23.277  0.00  0.00    +0.022 C 
ENDBRANCH  10  11
ENDBRANCH   7   8
ENDBRANCH   6   7
BRANCH  19  20
ATOM     20  C   UNL     1      -3.806   0.391  24.891  0.00  0.00    +0.120 C 
BRANCH  20  21
ATOM     21  N   UNL     1      -4.020   1.173  25.042  0.00  0.00    -0.201 NA
ATOM     22  C   UNL     1      -4.816   1.391  25.035  0.00  0.00    +0.265 C 
ATOM     23  O   UNL     1      -5.397   0.827  24.878  0.00  0.00    -0.268 OA
BRANCH  22  24
ATOM     24  C   UNL     1      -5.031   2.174  25.186  0.00  0.00    +0.055 A 
ATOM     25  C   UNL     1      -4.658   2.789  24.780  0.00  0.00    +0.005 A 
ATOM     26  C   UNL     1      -4.873   3.571  24.930  0.00  0.00    +0.000 A 
ATOM     27  C   UNL     1      -5.460   3.738  25.486  0.00  0.00    +0.000 A 
ATOM     28  C   UNL     1      -5.832   3.123  25.891  0.00  0.00    +0.000 A 
ATOM     29  C   UNL     1      -5.617   2.341  25.741  0.00  0.00    +0.005 A 
ENDBRANCH  22  24
ENDBRANCH  20  21
ENDBRANCH  19  20
TORSDOF 7
ENDMDL
