MODEL 1
REMARK VINA RESULT:      -7.2      0.000      0.000
REMARK  Name = 
REMARK  6 active torsions:
REMARK  status: ('A' for Active; 'I' for Inactive)
REMARK    1  A    between atoms: C_2  and  N_4
REMARK    2  A    between atoms: N_7  and  C_8
REMARK    3  A    between atoms: C_8  and  C_9
REMARK    4  A    between atoms: C_12  and  N_13
REMARK    5  A    between atoms: N_13  and  C_14
REMARK    6  A    between atoms: C_14  and  C_15
REMARK                            x       y       z     vdW  Elec       q    Type
REMARK                         _______ _______ _______ _____ _____    ______ ____
ROOT
ATOM      9  C   UNL     1      -2.707   0.917  24.853  0.00  0.00    +0.169 C 
ATOM     10  O   UNL     1      -1.922   0.857  25.103  0.00  0.00    -0.350 OA
ATOM     11  C   UNL     1      -1.611   1.619  25.151  0.00  0.00    +0.162 C 
ATOM     12  C   UNL     1      -2.203   2.151  24.931  0.00  0.00    +0.135 C 
ATOM     20  C   UNL     1      -2.880   1.717  24.747  0.00  0.00    +0.199 C 
ATOM     21  O   UNL     1      -3.603   2.027  24.501  0.00  0.00    -0.219 OA
ENDROOT
BRANCH   9   8
ATOM      8  C   UNL     1      -3.225   0.288  24.732  0.00  0.00    +0.149 C 
BRANCH   8   7
ATOM      4  N   UNL     1      -3.126  -1.847  24.283  0.00  0.00    -0.189 NA
ATOM      5  C   UNL     1      -3.415  -1.114  24.530  0.00  0.00    +0.339 C 
ATOM      6  O   UNL     1      -4.184  -1.052  24.823  0.00  0.00    -0.249 OA
ATOM      7  N   UNL     1      -2.936  -0.445  24.485  0.00  0.00    -0.185 NA
BRANCH   4   2
ATOM      1  C   UNL     1      -4.177  -2.654  23.752  0.00  0.00    +0.023 C 
ATOM      2  C   UNL     1      -3.605  -2.516  24.329  0.00  0.00    +0.097 C 
ATOM      3  C   UNL     1      -3.511  -3.048  24.952  0.00  0.00    +0.023 C 
ENDBRANCH   4   2
ENDBRANCH   8   7
ENDBRANCH   9   8
BRANCH  12  13
ATOM     13  N   UNL     1      -2.131   2.973  24.900  0.00  0.00    -0.208 NA
BRANCH  13  14
ATOM     14  C   UNL     1      -1.507   3.346  25.290  0.00  0.00    +0.136 C 
BRANCH  14  15
ATOM     15  C   UNL     1      -1.371   4.152  25.173  0.00  0.00    +0.097 A 
ATOM     16  C   UNL     1      -0.685   4.487  24.861  0.00  0.00    +0.117 A 
ATOM     17  N   UNL     1      -0.788   5.306  24.843  0.00  0.00    -0.221 NA
ATOM     18  C   UNL     1      -1.537   5.475  25.144  0.00  0.00    +0.199 A 
ATOM     19  N   UNL     1      -1.898   4.762  25.348  0.00  0.00    -0.225 NA
ENDBRANCH  14  15
ENDBRANCH  13  14
ENDBRANCH  12  13
TORSDOF 6
ENDMDL
MODEL 2
REMARK VINA RESULT:      -7.2      1.203      5.632
REMARK  Name = 
REMARK  6 active torsions:
REMARK  status: ('A' for Active; 'I' for Inactive)
REMARK    1  A    between atoms: C_2  and  N_4
REMARK    2  A    between atoms: N_7  and  C_8
REMARK    3  A    between atoms: C_8  and  C_9
REMARK    4  A    between atoms: C_12  and  N_13
REMARK    5  A    between atoms: N_13  and  C_14
REMARK    6  A    between atoms: C_14  and  C_15
REMARK                            x       y       z     vdW  Elec       q    Type
REMARK                         _______ _______ _______ _____ _____    ______ ____
ROOT
ATOM      9  C   UNL     1      -3.586   1.837  24.512  0.00  0.00    +0.169 C 
ATOM     10  O   UNL     1      -4.135   1.665  25.103  0.00  0.00    -0.350 OA
ATOM     11  C   UNL     1      -4.329   0.865  25.045  0.00  0.00    +0.162 C 
ATOM     12  C   UNL     1      -3.900   0.542  24.419  0.00  0.00    +0.135 C 
ATOM     20  C   UNL     1      -3.440   1.143  24.089  0.00  0.00    +0.199 C 
ATOM     21  O   UNL     1      -2.926   1.065  23.449  0.00  0.00    -0.219 OA
ENDROOT
BRANCH   9   8
ATOM      8  C   UNL     1      -3.242   2.573  24.369  0.00  0.00    +0.149 C 
BRANCH   8   7
ATOM      4  N   UNL     1      -1.953   4.015  25.382  0.00  0.00    -0.189 NA
ATOM      5  C   UNL     1      -2.398   3.645  24.793  0.00  0.00    +0.339 C 
ATOM      6  O   UNL     1      -2.443   3.978  24.040  0.00  0.00    -0.249 OA
ATOM      7  N   UNL     1      -2.798   2.943  24.958  0.00  0.00    -0.185 NA
BRANCH   4   2
ATOM      1  C   UNL     1      -1.941   5.440  25.296  0.00  0.00    +0.023 C 
ATOM      2  C   UNL     1      -1.554   4.717  25.218  0.00  0.00    +0.097 C 
ATOM      3  C   UNL     1      -0.766   4.695  24.974  0.00  0.00    +0.023 C 
ENDBRANCH   4   2
ENDBRANCH   8   7
ENDBRANCH   9   8
BRANCH  12  13
ATOM     13  N   UNL     1      -3.925  -0.243  24.165  0.00  0.00    -0.208 NA
BRANCH  13  14
ATOM     14  C   UNL     1      -4.064  -0.846  24.710  0.00  0.00    +0.136 C 
BRANCH  14  15
ATOM     15  C   UNL     1      -3.962  -1.635  24.487  0.00  0.00    +0.097 A 
ATOM     16  C   UNL     1      -3.483  -2.188  24.867  0.00  0.00    +0.117 A 
ATOM     17  N   UNL     1      -3.547  -2.903  24.459  0.00  0.00    -0.221 NA
ATOM     18  C   UNL     1      -4.066  -2.790  23.828  0.00  0.00    +0.199 A 
ATOM     19  N   UNL     1      -4.323  -2.006  23.845  0.00  0.00    -0.225 NA
ENDBRANCH  14  15
ENDBRANCH  13  14
ENDBRANCH  12  13
TORSDOF 6
ENDMDL
MODEL 3
REMARK VINA RESULT:      -6.9      0.854      5.702
REMARK  Name = 
REMARK  6 active torsions:
REMARK  status: ('A' for Active; 'I' for Inactive)
REMARK    1  A    between atoms: C_2  and  N_4
REMARK    2  A    between atoms: N_7  and  C_8
REMARK    3  A    between atoms: C_8  and  C_9
REMARK    4  A    between atoms: C_12  and  N_13
REMARK    5  A    between atoms: N_13  and  C_14
REMARK    6  A    between atoms: C_14  and  C_15
REMARK                            x       y       z     vdW  Elec       q    Type
REMARK                         _______ _______ _______ _____ _____    ______ ____
ROOT
ATOM      9  C   UNL     1      -2.540   1.504  24.999  0.00  0.00    +0.169 C 
ATOM     10  O   UNL     1      -3.340   1.549  24.800  0.00  0.00    -0.350 OA
ATOM     11  C   UNL     1      -3.606   0.785  24.643  0.00  0.00    +0.162 C 
ATOM     12  C   UNL     1      -2.972   0.267  24.743  0.00  0.00    +0.135 C 
ATOM     20  C   UNL     1      -2.313   0.712  24.963  0.00  0.00    +0.199 C 
ATOM     21  O   UNL     1      -1.559   0.417  25.121  0.00  0.00    -0.219 OA
ENDROOT
BRANCH   9   8
ATOM      8  C   UNL     1      -2.054   2.140  25.197  0.00  0.00    +0.149 C 
BRANCH   8   7
ATOM      4  N   UNL     1      -1.781   4.234  24.642  0.00  0.00    -0.189 NA
ATOM      5  C   UNL     1      -1.722   3.522  25.057  0.00  0.00    +0.339 C 
ATOM      6  O   UNL     1      -1.270   3.484  25.747  0.00  0.00    -0.249 OA
ATOM      7  N   UNL     1      -2.113   2.851  24.783  0.00  0.00    -0.185 NA
BRANCH   4   2
ATOM      1  C   UNL     1      -1.808   5.491  25.319  0.00  0.00    +0.023 C 
ATOM      2  C   UNL     1      -1.390   4.905  24.917  0.00  0.00    +0.097 C 
ATOM      3  C   UNL     1      -0.579   4.991  24.789  0.00  0.00    +0.023 C 
ENDBRANCH   4   2
ENDBRANCH   8   7
ENDBRANCH   9   8
BRANCH  12  13
ATOM     13  N   UNL     1      -2.992  -0.552  24.642  0.00  0.00    -0.208 NA
BRANCH  13  14
ATOM     14  C   UNL     1      -3.707  -0.958  24.713  0.00  0.00    +0.136 C 
BRANCH  14  15
ATOM     15  C   UNL     1      -3.735  -1.771  24.572  0.00  0.00    +0.097 A 
ATOM     16  C   UNL     1      -4.059  -2.137  23.908  0.00  0.00    +0.117 A 
ATOM     17  N   UNL     1      -3.969  -2.953  23.997  0.00  0.00    -0.221 NA
ATOM     18  C   UNL     1      -3.589  -3.089  24.716  0.00  0.00    +0.199 A 
ATOM     19  N   UNL     1      -3.444  -2.359  25.072  0.00  0.00    -0.225 NA
ENDBRANCH  14  15
ENDBRANCH  13  14
ENDBRANCH  12  13
TORSDOF 6
ENDMDL
MODEL 4
REMARK VINA RESULT:      -6.4      2.886      4.161
REMARK  Name = 
REMARK  6 active torsions:
REMARK  status: ('A' for Active; 'I' for Inactive)
REMARK    1  A    between atoms: C_2  and  N_4
REMARK    2  A    between atoms: N_7  and  C_8
REMARK    3  A    between atoms: C_8  and  C_9
REMARK    4  A    between atoms: C_12  and  N_13
REMARK    5  A    between atoms: N_13  and  C_14
REMARK    6  A    between atoms: C_14  and  C_15
REMARK                            x       y       z     vdW  Elec       q    Type
REMARK                         _______ _______ _______ _____ _____    ______ ____
ROOT
ATOM      9  C   UNL     1      -2.237   1.297  24.214  0.00  0.00    +0.169 C 
ATOM     10  O   UNL     1      -2.025   0.674  24.712  0.00  0.00    -0.350 OA
ATOM     11  C   UNL     1      -1.259   0.439  24.513  0.00  0.00    +0.162 C 
ATOM     12  C   UNL     1      -0.998   0.916  23.893  0.00  0.00    +0.135 C 
ATOM     20  C   UNL     1      -1.603   1.446  23.708  0.00  0.00    +0.199 C 
ATOM     21  O   UNL     1      -1.578   2.024  23.120  0.00  0.00    -0.219 OA
ENDROOT
BRANCH   9   8
ATOM      8  C   UNL     1      -2.957   1.699  24.221  0.00  0.00    +0.149 C 
BRANCH   8   7
ATOM      4  N   UNL     1      -4.810   1.746  25.374  0.00  0.00    -0.189 NA
ATOM      5  C   UNL     1      -4.244   1.923  24.801  0.00  0.00    +0.339 C 
ATOM      6  O   UNL     1      -4.399   2.501  24.233  0.00  0.00    -0.249 OA
ATOM      7  N   UNL     1      -3.523   1.522  24.794  0.00  0.00    -0.185 NA
BRANCH   4   2
ATOM      1  C   UNL     1      -6.191   1.813  25.016  0.00  0.00    +0.023 C 
ATOM      2  C   UNL     1      -5.530   2.147  25.380  0.00  0.00    +0.097 C 
ATOM      3  C   UNL     1      -5.591   2.881  25.750  0.00  0.00    +0.023 C 
ENDBRANCH   4   2
ENDBRANCH   8   7
ENDBRANCH   9   8
BRANCH  12  13
ATOM     13  N   UNL     1      -0.262   0.871  23.521  0.00  0.00    -0.208 NA
BRANCH  13  14
ATOM     14  C   UNL     1       0.184   0.180  23.576  0.00  0.00    +0.136 C 
BRANCH  14  15
ATOM     15  C   UNL     1       0.880   0.103  23.139  0.00  0.00    +0.097 A 
ATOM     16  C   UNL     1       1.609   0.441  23.324  0.00  0.00    +0.117 A 
ATOM     17  N   UNL     1       2.148   0.221  22.738  0.00  0.00    -0.221 NA
ATOM     18  C   UNL     1       1.751  -0.253  22.193  0.00  0.00    +0.199 A 
ATOM     19  N   UNL     1       0.968  -0.326  22.439  0.00  0.00    -0.225 NA
ENDBRANCH  14  15
ENDBRANCH  13  14
ENDBRANCH  12  13
TORSDOF 6
ENDMDL
MODEL 5
REMARK VINA RESULT:      -5.9     17.461     18.850
REMARK  Name = 
REMARK  6 active torsions:
REMARK  status: ('A' for Active; 'I' for Inactive)
REMARK    1  A    between atoms: C_2  and  N_4
REMARK    2  A    between atoms: N_7  and  C_8
REMARK    3  A    between atoms: C_8  and  C_9
REMARK    4  A    between atoms: C_12  and  N_13
REMARK    5  A    between atoms: N_13  and  C_14
REMARK    6  A    between atoms: C_14  and  C_15
REMARK                            x       y       z     vdW  Elec       q    Type
REMARK                         _______ _______ _______ _____ _____    ______ ____
ROOT
ATOM      9  C   UNL     1      13.632   7.673  19.343  0.00  0.00    +0.169 C 
ATOM     10  O   UNL     1      13.457   8.464  19.498  0.00  0.00    -0.350 OA
ATOM     11  C   UNL     1      12.854   8.696  18.984  0.00  0.00    +0.162 C 
ATOM     12  C   UNL     1      12.657   8.049  18.512  0.00  0.00    +0.135 C 
ATOM     20  C   UNL     1      13.137   7.417  18.734  0.00  0.00    +0.199 C 
ATOM     21  O   UNL     1      13.126   6.660  18.405  0.00  0.00    -0.219 OA
ENDROOT
BRANCH   9   8
ATOM      8  C   UNL     1      14.201   7.218  19.729  0.00  0.00    +0.149 C 
BRANCH   8   7
ATOM      4  N   UNL     1      16.336   7.293  20.180  0.00  0.00    -0.189 NA
ATOM      5  C   UNL     1      15.566   7.008  20.098  0.00  0.00    +0.339 C 
ATOM      6  O   UNL     1      15.390   6.229  20.305  0.00  0.00    -0.249 OA
ATOM      7  N   UNL     1      14.971   7.502  19.811  0.00  0.00    -0.185 NA
BRANCH   4   2
ATOM      1  C   UNL     1      17.050   6.727  21.280  0.00  0.00    +0.023 C 
ATOM      2  C   UNL     1      16.930   6.799  20.468  0.00  0.00    +0.097 C 
ATOM      3  C   UNL     1      17.405   6.376  19.942  0.00  0.00    +0.023 C 
ENDBRANCH   4   2
ENDBRANCH   8   7
ENDBRANCH   9   8
BRANCH  12  13
ATOM     13  N   UNL     1      12.080   8.036  17.922  0.00  0.00    -0.208 NA
BRANCH  13  14
ATOM     14  C   UNL     1      11.776   8.745  17.629  0.00  0.00    +0.136 C 
BRANCH  14  15
ATOM     15  C   UNL     1      11.347   8.749  16.923  0.00  0.00    +0.097 A 
ATOM     16  C   UNL     1      11.586   9.094  16.213  0.00  0.00    +0.117 A 
ATOM     17  N   UNL     1      10.992   8.966  15.655  0.00  0.00    -0.221 NA
ATOM     18  C   UNL     1      10.386   8.543  16.021  0.00  0.00    +0.199 A 
ATOM     19  N   UNL     1      10.605   8.408  16.805  0.00  0.00    -0.225 NA
ENDBRANCH  14  15
ENDBRANCH  13  14
ENDBRANCH  12  13
TORSDOF 6
ENDMDL
MODEL 6
REMARK VINA RESULT:      -5.8     17.267     19.125
REMARK  Name = 
REMARK  6 active torsions:
REMARK  status: ('A' for Active; 'I' for Inactive)
REMARK    1  A    between atoms: C_2  and  N_4
REMARK    2  A    between atoms: N_7  and  C_8
REMARK    3  A    between atoms: C_8  and  C_9
REMARK    4  A    between atoms: C_12  and  N_13
REMARK    5  A    between atoms: N_13  and  C_14
REMARK    6  A    between atoms: C_14  and  C_15
REMARK                            x       y       z     vdW  Elec       q    Type
REMARK                         _______ _______ _______ _____ _____    ______ ____
ROOT
ATOM      9  C   UNL     1      13.702   7.536  18.355  0.00  0.00    +0.169 C 
ATOM     10  O   UNL     1      14.350   7.839  17.944  0.00  0.00    -0.350 OA
ATOM     11  C   UNL     1      15.026   7.700  18.397  0.00  0.00    +0.162 C 
ATOM     12  C   UNL     1      14.796   7.311  19.087  0.00  0.00    +0.135 C 
ATOM     20  C   UNL     1      13.977   7.210  19.061  0.00  0.00    +0.199 C 
ATOM     21  O   UNL     1      13.515   6.847  19.640  0.00  0.00    -0.219 OA
ENDROOT
BRANCH   9   8
ATOM      8  C   UNL     1      12.917   7.556  18.104  0.00  0.00    +0.149 C 
BRANCH   8   7
ATOM      4  N   UNL     1      11.617   8.875  16.949  0.00  0.00    -0.189 NA
ATOM      5  C   UNL     1      11.919   8.195  17.305  0.00  0.00    +0.339 C 
ATOM      6  O   UNL     1      11.527   7.475  17.218  0.00  0.00    -0.249 OA
ATOM      7  N   UNL     1      12.614   8.235  17.747  0.00  0.00    -0.185 NA
BRANCH   4   2
ATOM      1  C   UNL     1      10.214   8.619  16.869  0.00  0.00    +0.023 C 
ATOM      2  C   UNL     1      10.922   8.835  16.507  0.00  0.00    +0.097 C 
ATOM      3  C   UNL     1      10.936   9.012  15.701  0.00  0.00    +0.023 C 
ENDBRANCH   4   2
ENDBRANCH   8   7
ENDBRANCH   9   8
BRANCH  12  13
ATOM     13  N   UNL     1      15.295   7.067  19.697  0.00  0.00    -0.208 NA
BRANCH  13  14
ATOM     14  C   UNL     1      16.095   7.269  19.679  0.00  0.00    +0.136 C 
BRANCH  14  15
ATOM     15  C   UNL     1      16.584   7.071  20.314  0.00  0.00    +0.097 A 
ATOM     16  C   UNL     1      16.965   6.347  20.425  0.00  0.00    +0.117 A 
ATOM     17  N   UNL     1      17.395   6.391  21.129  0.00  0.00    -0.221 NA
ATOM     18  C   UNL     1      17.279   7.141  21.451  0.00  0.00    +0.199 A 
ATOM     19  N   UNL     1      16.778   7.562  20.948  0.00  0.00    -0.225 NA
ENDBRANCH  14  15
ENDBRANCH  13  14
ENDBRANCH  12  13
TORSDOF 6
ENDMDL
MODEL 7
REMARK VINA RESULT:      -5.8     15.796     18.173
REMARK  Name = 
REMARK  6 active torsions:
REMARK  status: ('A' for Active; 'I' for Inactive)
REMARK    1  A    between atoms: C_2  and  N_4
REMARK    2  A    between atoms: N_7  and  C_8
REMARK    3  A    between atoms: C_8  and  C_9
REMARK    4  A    between atoms: C_12  and  N_13
REMARK    5  A    between atoms: N_13  and  C_14
REMARK    6  A    between atoms: C_14  and  C_15
REMARK                            x       y       z     vdW  Elec       q    Type
REMARK                         _______ _______ _______ _____ _____    ______ ____
ROOT
ATOM      9  C   UNL     1      13.693   7.431  19.671  0.00  0.00    +0.169 C 
ATOM     10  O   UNL     1      13.109   6.900  19.430  0.00  0.00    -0.350 OA
ATOM     11  C   UNL     1      12.398   7.128  19.782  0.00  0.00    +0.162 C 
ATOM     12  C   UNL     1      12.542   7.799  20.239  0.00  0.00    +0.135 C 
ATOM     20  C   UNL     1      13.343   7.986  20.171  0.00  0.00    +0.199 C 
ATOM     21  O   UNL     1      13.726   8.617  20.538  0.00  0.00    -0.219 OA
ENDROOT
BRANCH   9   8
ATOM      8  C   UNL     1      14.487   7.410  19.450  0.00  0.00    +0.149 C 
BRANCH   8   7
ATOM      4  N   UNL     1      16.089   5.943  19.229  0.00  0.00    -0.189 NA
ATOM      5  C   UNL     1      15.698   6.667  19.296  0.00  0.00    +0.339 C 
ATOM      6  O   UNL     1      16.127   7.371  19.275  0.00  0.00    -0.249 OA
ATOM      7  N   UNL     1      14.878   6.686  19.384  0.00  0.00    -0.185 NA
BRANCH   4   2
ATOM      1  C   UNL     1      17.242   5.664  18.433  0.00  0.00    +0.023 C 
ATOM      2  C   UNL     1      16.909   5.923  19.142  0.00  0.00    +0.097 C 
ATOM      3  C   UNL     1      17.395   6.163  19.763  0.00  0.00    +0.023 C 
ENDBRANCH   4   2
ENDBRANCH   8   7
ENDBRANCH   9   8
BRANCH  12  13
ATOM     13  N   UNL     1      11.985   8.211  20.687  0.00  0.00    -0.208 NA
BRANCH  13  14
ATOM     14  C   UNL     1      11.369   7.802  21.055  0.00  0.00    +0.136 C 
BRANCH  14  15
ATOM     15  C   UNL     1      10.934   8.165  21.655  0.00  0.00    +0.097 A 
ATOM     16  C   UNL     1      10.590   7.786  22.302  0.00  0.00    +0.117 A 
ATOM     17  N   UNL     1      10.210   8.358  22.760  0.00  0.00    -0.221 NA
ATOM     18  C   UNL     1      10.320   9.090  22.396  0.00  0.00    +0.199 A 
ATOM     19  N   UNL     1      10.767   8.971  21.713  0.00  0.00    -0.225 NA
ENDBRANCH  14  15
ENDBRANCH  13  14
ENDBRANCH  12  13
TORSDOF 6
ENDMDL
MODEL 8
REMARK VINA RESULT:      -5.2     14.479     14.947
REMARK  Name = 
REMARK  6 active torsions:
REMARK  status: ('A' for Active; 'I' for Inactive)
REMARK    1  A    between atoms: C_2  and  N_4
REMARK    2  A    between atoms: N_7  and  C_8
REMARK    3  A    between atoms: C_8  and  C_9
REMARK    4  A    between atoms: C_12  and  N_13
REMARK    5  A    between atoms: N_13  and  C_14
REMARK    6  A    between atoms: C_14  and  C_15
REMARK                            x       y       z     vdW  Elec       q    Type
REMARK                         _______ _______ _______ _____ _____    ______ ____
ROOT
ATOM      9  C   UNL     1      -5.836 -10.170  16.566  0.00  0.00    +0.169 C 
ATOM     10  O   UNL     1      -5.467 -10.312  17.291  0.00  0.00    -0.350 OA
ATOM     11  C   UNL     1      -4.668 -10.458  17.144  0.00  0.00    +0.162 C 
ATOM     12  C   UNL     1      -4.543 -10.406  16.330  0.00  0.00    +0.135 C 
ATOM     20  C   UNL     1      -5.265 -10.228  15.973  0.00  0.00    +0.199 C 
ATOM     21  O   UNL     1      -5.395 -10.126  15.165  0.00  0.00    -0.219 OA
ENDROOT
BRANCH   9   8
ATOM      8  C   UNL     1      -6.635 -10.000  16.456  0.00  0.00    +0.149 C 
BRANCH   8   7
ATOM      4  N   UNL     1      -8.435  -9.684  17.651  0.00  0.00    -0.189 NA
ATOM      5  C   UNL     1      -7.928  -9.729  17.001  0.00  0.00    +0.339 C 
ATOM      6  O   UNL     1      -8.208  -9.547  16.247  0.00  0.00    -0.249 OA
ATOM      7  N   UNL     1      -7.142  -9.955  17.105  0.00  0.00    -0.185 NA
BRANCH   4   2
ATOM      1  C   UNL     1      -9.811 -10.031  17.495  0.00  0.00    +0.023 C 
ATOM      2  C   UNL     1      -9.221  -9.458  17.546  0.00  0.00    +0.097 C 
ATOM      3  C   UNL     1      -9.416  -8.658  17.493  0.00  0.00    +0.023 C 
ENDBRANCH   4   2
ENDBRANCH   8   7
ENDBRANCH   9   8
BRANCH  12  13
ATOM     13  N   UNL     1      -3.823 -10.514  15.941  0.00  0.00    -0.208 NA
BRANCH  13  14
ATOM     14  C   UNL     1      -3.148 -10.710  16.372  0.00  0.00    +0.136 C 
BRANCH  14  15
ATOM     15  C   UNL     1      -2.411 -10.725  16.000  0.00  0.00    +0.097 A 
ATOM     16  C   UNL     1      -1.678 -10.734  16.377  0.00  0.00    +0.117 A 
ATOM     17  N   UNL     1      -1.092 -10.747  15.795  0.00  0.00    -0.221 NA
ATOM     18  C   UNL     1      -1.465 -10.747  15.059  0.00  0.00    +0.199 A 
ATOM     19  N   UNL     1      -2.280 -10.733  15.185  0.00  0.00    -0.225 NA
ENDBRANCH  14  15
ENDBRANCH  13  14
ENDBRANCH  12  13
TORSDOF 6
ENDMDL
MODEL 9
REMARK VINA RESULT:      -5.1     15.511     17.886
REMARK  Name = 
REMARK  6 active torsions:
REMARK  status: ('A' for Active; 'I' for Inactive)
REMARK    1  A    between atoms: C_2  and  N_4
REMARK    2  A    between atoms: N_7  and  C_8
REMARK    3  A    between atoms: C_8  and  C_9
REMARK    4  A    between atoms: C_12  and  N_13
REMARK    5  A    between atoms: N_13  and  C_14
REMARK    6  A    between atoms: C_14  and  C_15
REMARK                            x       y       z     vdW  Elec       q    Type
REMARK                         _______ _______ _______ _____ _____    ______ ____
ROOT
ATOM      9  C   UNL     1      12.663   7.278  19.373  0.00  0.00    +0.169 C 
ATOM     10  O   UNL     1      13.454   7.420  19.563  0.00  0.00    -0.350 OA
ATOM     11  C   UNL     1      13.865   7.556  18.861  0.00  0.00    +0.162 C 
ATOM     12  C   UNL     1      13.329   7.498  18.236  0.00  0.00    +0.135 C 
ATOM     20  C   UNL     1      12.587   7.327  18.553  0.00  0.00    +0.199 C 
ATOM     21  O   UNL     1      11.890   7.222  18.125  0.00  0.00    -0.219 OA
ENDROOT
BRANCH   9   8
ATOM      8  C   UNL     1      12.058   7.116  19.908  0.00  0.00    +0.149 C 
BRANCH   8   7
ATOM      4  N   UNL     1      11.461   7.847  21.877  0.00  0.00    -0.189 NA
ATOM      5  C   UNL     1      11.415   7.565  21.102  0.00  0.00    +0.339 C 
ATOM      6  O   UNL     1      10.678   7.451  20.749  0.00  0.00    -0.249 OA
ATOM      7  N   UNL     1      12.104   7.398  20.682  0.00  0.00    -0.185 NA
BRANCH   4   2
ATOM      1  C   UNL     1      10.666   8.758  22.637  0.00  0.00    +0.023 C 
ATOM      2  C   UNL     1      10.772   8.014  22.297  0.00  0.00    +0.097 C 
ATOM      3  C   UNL     1      10.188   7.437  22.378  0.00  0.00    +0.023 C 
ENDBRANCH   4   2
ENDBRANCH   8   7
ENDBRANCH   9   8
BRANCH  12  13
ATOM     13  N   UNL     1      13.504   7.595  17.435  0.00  0.00    -0.208 NA
BRANCH  13  14
ATOM     14  C   UNL     1      13.959   8.238  17.189  0.00  0.00    +0.136 C 
BRANCH  14  15
ATOM     15  C   UNL     1      14.033   8.406  16.384  0.00  0.00    +0.097 A 
ATOM     16  C   UNL     1      13.768   9.090  16.006  0.00  0.00    +0.117 A 
ATOM     17  N   UNL     1      13.956   9.026  15.204  0.00  0.00    -0.221 NA
ATOM     18  C   UNL     1      14.336   8.304  15.089  0.00  0.00    +0.199 A 
ATOM     19  N   UNL     1      14.384   7.920  15.818  0.00  0.00    -0.225 NA
ENDBRANCH  14  15
ENDBRANCH  13  14
ENDBRANCH  12  13
TORSDOF 6
ENDMDL
MODEL 10
REMARK VINA RESULT:      -5.0     15.108     17.780
REMARK  Name = 
REMARK  6 active torsions:
REMARK  status: ('A' for Active; 'I' for Inactive)
REMARK    1  A    between atoms: C_2  and  N_4
REMARK    2  A    between atoms: N_7  and  C_8
REMARK    3  A    between atoms: C_8  and  C_9
REMARK    4  A    between atoms: C_12  and  N_13
REMARK    5  A    between atoms: N_13  and  C_14
REMARK    6  A    between atoms: C_14  and  C_15
REMARK                            x       y       z     vdW  Elec       q    Type
REMARK                         _______ _______ _______ _____ _____    ______ ____
ROOT
ATOM      9  C   UNL     1      -3.070 -10.393  12.402  0.00  0.00    +0.169 C 
ATOM     10  O   UNL     1      -2.433 -10.376  11.876  0.00  0.00    -0.350 OA
ATOM     11  C   UNL     1      -2.737 -10.304  11.112  0.00  0.00    +0.162 C 
ATOM     12  C   UNL     1      -3.559 -10.277  11.165  0.00  0.00    +0.135 C 
ATOM     20  C   UNL     1      -3.765 -10.332  11.962  0.00  0.00    +0.199 C 
ATOM     21  O   UNL     1      -4.531 -10.327  12.267  0.00  0.00    -0.219 OA
ENDROOT
BRANCH   9   8
ATOM      8  C   UNL     1      -3.018 -10.460  13.222  0.00  0.00    +0.149 C 
BRANCH   8   7
ATOM      4  N   UNL     1      -1.491 -10.446  14.782  0.00  0.00    -0.189 NA
ATOM      5  C   UNL     1      -2.229 -10.439  14.413  0.00  0.00    +0.339 C 
ATOM      6  O   UNL     1      -2.916 -10.404  14.868  0.00  0.00    -0.249 OA
ATOM      7  N   UNL     1      -2.280 -10.467  13.590  0.00  0.00    -0.185 NA
BRANCH   4   2
ATOM      1  C   UNL     1      -2.018 -10.781  16.066  0.00  0.00    +0.023 C 
ATOM      2  C   UNL     1      -1.440 -10.418  15.604  0.00  0.00    +0.097 C 
ATOM      3  C   UNL     1      -0.810 -10.026  15.965  0.00  0.00    +0.023 C 
ENDBRANCH   4   2
ENDBRANCH   8   7
ENDBRANCH   9   8
BRANCH  12  13
ATOM     13  N   UNL     1      -4.085 -10.207  10.532  0.00  0.00    -0.208 NA
BRANCH  13  14
ATOM     14  C   UNL     1      -3.796 -10.103   9.767  0.00  0.00    +0.136 C 
BRANCH  14  15
ATOM     15  C   UNL     1      -4.321 -10.035   9.133  0.00  0.00    +0.097 A 
ATOM     16  C   UNL     1      -4.496  -9.343   8.721  0.00  0.00    +0.117 A 
ATOM     17  N   UNL     1      -5.047  -9.529   8.134  0.00  0.00    -0.221 NA
ATOM     18  C   UNL     1      -5.211 -10.335   8.185  0.00  0.00    +0.199 A 
ATOM     19  N   UNL     1      -4.762 -10.649   8.803  0.00  0.00    -0.225 NA
ENDBRANCH  14  15
ENDBRANCH  13  14
ENDBRANCH  12  13
TORSDOF 6
ENDMDL
