MODEL 1
REMARK VINA RESULT:     -11.3      0.000      0.000
REMARK  Name = 
REMARK  3 active torsions:
REMARK  status: ('A' for Active; 'I' for Inactive)
REMARK    1  A    between atoms: O_2  and  C_3
REMARK    2  A    between atoms: C_8  and  C_10
REMARK    3  A    between atoms: N_17  and  C_18
REMARK                            x       y       z     vdW  Elec       q    Type
REMARK                         _______ _______ _______ _____ _____    ______ ____
ROOT
ATOM     10  C   UNL     1      -3.459   1.874  24.993  0.00  0.00    +0.080 C 
ATOM     11  C   UNL     1      -4.270   1.725  25.015  0.00  0.00    +0.031 C 
ATOM     12  C   UNL     1      -4.384   0.916  24.898  0.00  0.00    +0.096 C 
ATOM     13  N   UNL     1      -3.643   0.566  24.804  0.00  0.00    -0.262 N 
ATOM     14  C   UNL     1      -3.072   1.158  24.862  0.00  0.00    +0.103 C 
ATOM     15  C   UNL     1      -3.498  -0.236  24.675  0.00  0.00    +0.327 C 
ATOM     16  O   UNL     1      -2.724  -0.508  24.591  0.00  0.00    -0.250 OA
ATOM     17  N   UNL     1      -4.128  -0.767  24.629  0.00  0.00    -0.162 NA
ENDROOT
BRANCH  10   8
ATOM      3  C   UNL     1      -1.609   4.897  25.146  0.00  0.00    +0.140 A 
ATOM      4  C   UNL     1      -1.608   4.136  24.828  0.00  0.00    +0.058 A 
ATOM      5  C   UNL     1      -2.232   3.621  24.987  0.00  0.00    +0.103 A 
ATOM      6  C   UNL     1      -2.858   3.867  25.464  0.00  0.00    +0.100 A 
ATOM      7  N   UNL     1      -3.394   3.243  25.525  0.00  0.00    -0.229 NA
ATOM      8  C   UNL     1      -3.099   2.611  25.084  0.00  0.00    +0.140 A 
ATOM      9  N   UNL     1      -2.382   2.845  24.752  0.00  0.00    -0.229 NA
ATOM     24  C   UNL     1      -2.860   4.629  25.783  0.00  0.00    +0.024 A 
ATOM     25  C   UNL     1      -2.235   5.143  25.623  0.00  0.00    +0.039 A 
BRANCH   3   2
ATOM      1  C   UNL     1      -0.321   5.142  24.579  0.00  0.00    +0.252 C 
ATOM      2  O   UNL     1      -0.985   5.412  24.987  0.00  0.00    -0.471 OA
ENDBRANCH   3   2
ENDBRANCH  10   8
BRANCH  17  18
ATOM     18  C   UNL     1      -3.984  -1.569  24.499  0.00  0.00    +0.075 A 
ATOM     19  C   UNL     1      -4.217  -1.920  23.790  0.00  0.00    +0.017 A 
ATOM     20  C   UNL     1      -4.073  -2.722  23.660  0.00  0.00    +0.001 A 
ATOM     21  C   UNL     1      -3.694  -3.172  24.239  0.00  0.00    +0.000 A 
ATOM     22  C   UNL     1      -3.461  -2.821  24.947  0.00  0.00    +0.001 A 
ATOM     23  C   UNL     1      -3.606  -2.018  25.078  0.00  0.00    +0.017 A 
ENDBRANCH  17  18
TORSDOF 3
ENDMDL
MODEL 2
REMARK VINA RESULT:     -11.0      1.578      6.093
REMARK  Name = 
REMARK  3 active torsions:
REMARK  status: ('A' for Active; 'I' for Inactive)
REMARK    1  A    between atoms: O_2  and  C_3
REMARK    2  A    between atoms: C_8  and  C_10
REMARK    3  A    between atoms: N_17  and  C_18
REMARK                            x       y       z     vdW  Elec       q    Type
REMARK                         _______ _______ _______ _____ _____    ______ ____
ROOT
ATOM     10  C   UNL     1      -1.564   0.523  25.189  0.00  0.00    +0.080 C 
ATOM     11  C   UNL     1      -0.955   0.705  25.714  0.00  0.00    +0.031 C 
ATOM     12  C   UNL     1      -0.857   1.525  25.718  0.00  0.00    +0.096 C 
ATOM     13  N   UNL     1      -1.407   1.849  25.196  0.00  0.00    -0.262 N 
ATOM     14  C   UNL     1      -1.844   1.230  24.869  0.00  0.00    +0.103 C 
ATOM     15  C   UNL     1      -1.504   2.651  25.030  0.00  0.00    +0.327 C 
ATOM     16  O   UNL     1      -2.080   2.895  24.492  0.00  0.00    -0.250 OA
ATOM     17  N   UNL     1      -1.024   3.210  25.400  0.00  0.00    -0.162 NA
ENDROOT
BRANCH  10   8
ATOM      3  C   UNL     1      -3.151  -2.570  24.487  0.00  0.00    +0.140 A 
ATOM      4  C   UNL     1      -3.296  -1.781  24.677  0.00  0.00    +0.058 A 
ATOM      5  C   UNL     1      -2.665  -1.261  24.788  0.00  0.00    +0.103 A 
ATOM      6  C   UNL     1      -1.889  -1.530  24.708  0.00  0.00    +0.100 A 
ATOM      7  N   UNL     1      -1.383  -0.895  24.849  0.00  0.00    -0.229 NA
ATOM      8  C   UNL     1      -1.845  -0.233  25.016  0.00  0.00    +0.140 A 
ATOM      9  N   UNL     1      -2.637  -0.459  24.978  0.00  0.00    -0.229 NA
ATOM     24  C   UNL     1      -1.744  -2.321  24.518  0.00  0.00    +0.024 A 
ATOM     25  C   UNL     1      -2.376  -2.840  24.407  0.00  0.00    +0.039 A 
BRANCH   3   2
ATOM      1  C   UNL     1      -4.350  -2.933  23.800  0.00  0.00    +0.252 C 
ATOM      2  O   UNL     1      -3.782  -3.090  24.376  0.00  0.00    -0.471 OA
ENDBRANCH   3   2
ENDBRANCH  10   8
BRANCH  17  18
ATOM     18  C   UNL     1      -1.120   4.012  25.234  0.00  0.00    +0.075 A 
ATOM     19  C   UNL     1      -0.557   4.410  24.780  0.00  0.00    +0.017 A 
ATOM     20  C   UNL     1      -0.653   5.212  24.613  0.00  0.00    +0.001 A 
ATOM     21  C   UNL     1      -1.313   5.617  24.900  0.00  0.00    +0.000 A 
ATOM     22  C   UNL     1      -1.875   5.220  25.354  0.00  0.00    +0.001 A 
ATOM     23  C   UNL     1      -1.779   4.417  25.521  0.00  0.00    +0.017 A 
ENDBRANCH  17  18
TORSDOF 3
ENDMDL
MODEL 3
REMARK VINA RESULT:      -9.2      3.518      4.709
REMARK  Name = 
REMARK  3 active torsions:
REMARK  status: ('A' for Active; 'I' for Inactive)
REMARK    1  A    between atoms: O_2  and  C_3
REMARK    2  A    between atoms: C_8  and  C_10
REMARK    3  A    between atoms: N_17  and  C_18
REMARK                            x       y       z     vdW  Elec       q    Type
REMARK                         _______ _______ _______ _____ _____    ______ ____
ROOT
ATOM     10  C   UNL     1      -0.840   0.641  24.261  0.00  0.00    +0.080 C 
ATOM     11  C   UNL     1      -1.082   0.245  24.943  0.00  0.00    +0.031 C 
ATOM     12  C   UNL     1      -1.849   0.489  25.122  0.00  0.00    +0.096 C 
ATOM     13  N   UNL     1      -2.082   1.036  24.550  0.00  0.00    -0.262 N 
ATOM     14  C   UNL     1      -1.458   1.130  24.018  0.00  0.00    +0.103 C 
ATOM     15  C   UNL     1      -2.810   1.422  24.516  0.00  0.00    +0.327 C 
ATOM     16  O   UNL     1      -2.966   1.958  23.908  0.00  0.00    -0.250 OA
ATOM     17  N   UNL     1      -3.384   1.272  25.090  0.00  0.00    -0.162 NA
ENDROOT
BRANCH  10   8
ATOM      3  C   UNL     1       2.413   0.649  22.846  0.00  0.00    +0.140 A 
ATOM      4  C   UNL     1       1.910   1.064  23.351  0.00  0.00    +0.058 A 
ATOM      5  C   UNL     1       1.146   0.787  23.494  0.00  0.00    +0.103 A 
ATOM      6  C   UNL     1       0.886   0.093  23.131  0.00  0.00    +0.100 A 
ATOM      7  N   UNL     1       0.110  -0.045  23.373  0.00  0.00    -0.229 NA
ATOM      8  C   UNL     1      -0.109   0.562  23.887  0.00  0.00    +0.140 A 
ATOM      9  N   UNL     1       0.532   1.076  23.961  0.00  0.00    -0.229 NA
ATOM     24  C   UNL     1       1.389  -0.322  22.625  0.00  0.00    +0.024 A 
ATOM     25  C   UNL     1       2.152  -0.044  22.483  0.00  0.00    +0.039 A 
BRANCH   3   2
ATOM      1  C   UNL     1       3.815   0.405  22.716  0.00  0.00    +0.252 C 
ATOM      2  O   UNL     1       3.176   0.927  22.704  0.00  0.00    -0.471 OA
ENDBRANCH   3   2
ENDBRANCH  10   8
BRANCH  17  18
ATOM     18  C   UNL     1      -4.112   1.658  25.056  0.00  0.00    +0.075 A 
ATOM     19  C   UNL     1      -4.173   2.445  25.299  0.00  0.00    +0.017 A 
ATOM     20  C   UNL     1      -4.902   2.831  25.265  0.00  0.00    +0.001 A 
ATOM     21  C   UNL     1      -5.569   2.430  24.988  0.00  0.00    +0.000 A 
ATOM     22  C   UNL     1      -5.507   1.645  24.746  0.00  0.00    +0.001 A 
ATOM     23  C   UNL     1      -4.778   1.258  24.780  0.00  0.00    +0.017 A 
ENDBRANCH  17  18
TORSDOF 3
ENDMDL
MODEL 4
REMARK VINA RESULT:      -8.7      3.128      4.252
REMARK  Name = 
REMARK  3 active torsions:
REMARK  status: ('A' for Active; 'I' for Inactive)
REMARK    1  A    between atoms: O_2  and  C_3
REMARK    2  A    between atoms: C_8  and  C_10
REMARK    3  A    between atoms: N_17  and  C_18
REMARK                            x       y       z     vdW  Elec       q    Type
REMARK                         _______ _______ _______ _____ _____    ______ ____
ROOT
ATOM     10  C   UNL     1      -2.425   0.768  24.642  0.00  0.00    +0.080 C 
ATOM     11  C   UNL     1      -2.124   0.105  25.029  0.00  0.00    +0.031 C 
ATOM     12  C   UNL     1      -1.375  -0.054  24.721  0.00  0.00    +0.096 C 
ATOM     13  N   UNL     1      -1.214   0.512  24.143  0.00  0.00    -0.262 N 
ATOM     14  C   UNL     1      -1.863   1.019  24.094  0.00  0.00    +0.103 C 
ATOM     15  C   UNL     1      -0.525   0.562  23.692  0.00  0.00    +0.327 C 
ATOM     16  O   UNL     1      -0.441   1.161  23.131  0.00  0.00    -0.250 OA
ATOM     17  N   UNL     1       0.081   0.012  23.802  0.00  0.00    -0.162 NA
ENDROOT
BRANCH  10   8
ATOM      3  C   UNL     1      -5.375   2.617  25.321  0.00  0.00    +0.140 A 
ATOM      4  C   UNL     1      -4.553   2.670  25.296  0.00  0.00    +0.058 A 
ATOM      5  C   UNL     1      -4.103   2.011  25.084  0.00  0.00    +0.103 A 
ATOM      6  C   UNL     1      -4.476   1.300  24.897  0.00  0.00    +0.100 A 
ATOM      7  N   UNL     1      -3.894   0.748  24.709  0.00  0.00    -0.229 NA
ATOM      8  C   UNL     1      -3.160   1.117  24.779  0.00  0.00    +0.140 A 
ATOM      9  N   UNL     1      -3.290   1.898  25.011  0.00  0.00    -0.229 NA
ATOM     24  C   UNL     1      -5.300   1.247  24.922  0.00  0.00    +0.024 A 
ATOM     25  C   UNL     1      -5.749   1.906  25.134  0.00  0.00    +0.039 A 
BRANCH   3   2
ATOM      1  C   UNL     1      -5.487   4.028  25.518  0.00  0.00    +0.252 C 
ATOM      2  O   UNL     1      -5.824   3.275  25.533  0.00  0.00    -0.471 OA
ENDBRANCH   3   2
ENDBRANCH  10   8
BRANCH  17  18
ATOM     18  C   UNL     1       0.770   0.062  23.351  0.00  0.00    +0.075 A 
ATOM     19  C   UNL     1       1.386   0.556  23.593  0.00  0.00    +0.017 A 
ATOM     20  C   UNL     1       2.075   0.606  23.142  0.00  0.00    +0.001 A 
ATOM     21  C   UNL     1       2.148   0.162  22.450  0.00  0.00    +0.000 A 
ATOM     22  C   UNL     1       1.533  -0.330  22.209  0.00  0.00    +0.001 A 
ATOM     23  C   UNL     1       0.843  -0.381  22.660  0.00  0.00    +0.017 A 
ENDBRANCH  17  18
TORSDOF 3
ENDMDL
MODEL 5
REMARK VINA RESULT:      -8.5      4.363      4.965
REMARK  Name = 
REMARK  3 active torsions:
REMARK  status: ('A' for Active; 'I' for Inactive)
REMARK    1  A    between atoms: O_2  and  C_3
REMARK    2  A    between atoms: C_8  and  C_10
REMARK    3  A    between atoms: N_17  and  C_18
REMARK                            x       y       z     vdW  Elec       q    Type
REMARK                         _______ _______ _______ _____ _____    ______ ____
ROOT
ATOM     10  C   UNL     1       0.389   0.428  23.565  0.00  0.00    +0.080 C 
ATOM     11  C   UNL     1      -0.089   1.093  23.667  0.00  0.00    +0.031 C 
ATOM     12  C   UNL     1      -0.817   0.842  23.962  0.00  0.00    +0.096 C 
ATOM     13  N   UNL     1      -0.790   0.021  24.043  0.00  0.00    -0.262 N 
ATOM     14  C   UNL     1      -0.044  -0.234  23.798  0.00  0.00    +0.103 C 
ATOM     15  C   UNL     1      -1.400  -0.459  24.321  0.00  0.00    +0.327 C 
ATOM     16  O   UNL     1      -1.291  -1.276  24.372  0.00  0.00    -0.250 OA
ATOM     17  N   UNL     1      -2.119  -0.124  24.547  0.00  0.00    -0.162 NA
ENDROOT
BRANCH  10   8
ATOM      3  C   UNL     1       3.814   0.655  22.670  0.00  0.00    +0.140 A 
ATOM      4  C   UNL     1       3.260   0.892  23.234  0.00  0.00    +0.058 A 
ATOM      5  C   UNL     1       2.472   0.659  23.162  0.00  0.00    +0.103 A 
ATOM      6  C   UNL     1       2.237   0.188  22.526  0.00  0.00    +0.100 A 
ATOM      7  N   UNL     1       1.429   0.045  22.600  0.00  0.00    -0.229 NA
ATOM      8  C   UNL     1       1.163   0.426  23.281  0.00  0.00    +0.140 A 
ATOM      9  N   UNL     1       1.808   0.805  23.628  0.00  0.00    -0.229 NA
ATOM     24  C   UNL     1       2.791  -0.049  21.962  0.00  0.00    +0.024 A 
ATOM     25  C   UNL     1       3.579   0.185  22.034  0.00  0.00    +0.039 A 
BRANCH   3   2
ATOM      1  C   UNL     1       5.126   0.438  23.192  0.00  0.00    +0.252 C 
ATOM      2  O   UNL     1       4.601   0.888  22.742  0.00  0.00    -0.471 OA
ENDBRANCH   3   2
ENDBRANCH  10   8
BRANCH  17  18
ATOM     18  C   UNL     1      -2.729  -0.605  24.825  0.00  0.00    +0.075 A 
ATOM     19  C   UNL     1      -3.307  -0.879  24.304  0.00  0.00    +0.017 A 
ATOM     20  C   UNL     1      -3.918  -1.360  24.581  0.00  0.00    +0.001 A 
ATOM     21  C   UNL     1      -3.949  -1.567  25.379  0.00  0.00    +0.000 A 
ATOM     22  C   UNL     1      -3.371  -1.294  25.899  0.00  0.00    +0.001 A 
ATOM     23  C   UNL     1      -2.761  -0.812  25.622  0.00  0.00    +0.017 A 
ENDBRANCH  17  18
TORSDOF 3
ENDMDL
MODEL 6
REMARK VINA RESULT:      -7.6      4.326      5.562
REMARK  Name = 
REMARK  3 active torsions:
REMARK  status: ('A' for Active; 'I' for Inactive)
REMARK    1  A    between atoms: O_2  and  C_3
REMARK    2  A    between atoms: C_8  and  C_10
REMARK    3  A    between atoms: N_17  and  C_18
REMARK                            x       y       z     vdW  Elec       q    Type
REMARK                         _______ _______ _______ _____ _____    ______ ____
ROOT
ATOM     10  C   UNL     1      -0.278   0.528  23.503  0.00  0.00    +0.080 C 
ATOM     11  C   UNL     1      -0.133  -0.200  23.144  0.00  0.00    +0.031 C 
ATOM     12  C   UNL     1       0.680  -0.268  23.021  0.00  0.00    +0.096 C 
ATOM     13  N   UNL     1       1.038   0.420  23.303  0.00  0.00    -0.262 N 
ATOM     14  C   UNL     1       0.446   0.911  23.602  0.00  0.00    +0.103 C 
ATOM     15  C   UNL     1       1.845   0.587  23.291  0.00  0.00    +0.327 C 
ATOM     16  O   UNL     1       2.125   1.301  23.595  0.00  0.00    -0.250 OA
ATOM     17  N   UNL     1       2.375   0.039  22.973  0.00  0.00    -0.162 NA
ENDROOT
BRANCH  10   8
ATOM      3  C   UNL     1      -3.379   2.104  24.197  0.00  0.00    +0.140 A 
ATOM      4  C   UNL     1      -2.687   2.172  23.754  0.00  0.00    +0.058 A 
ATOM      5  C   UNL     1      -2.100   1.595  23.814  0.00  0.00    +0.103 A 
ATOM      6  C   UNL     1      -2.205   0.950  24.317  0.00  0.00    +0.100 A 
ATOM      7  N   UNL     1      -1.536   0.472  24.262  0.00  0.00    -0.229 NA
ATOM      8  C   UNL     1      -1.016   0.821  23.725  0.00  0.00    +0.140 A 
ATOM      9  N   UNL     1      -1.365   1.515  23.448  0.00  0.00    -0.229 NA
ATOM     24  C   UNL     1      -2.898   0.881  24.761  0.00  0.00    +0.024 A 
ATOM     25  C   UNL     1      -3.484   1.458  24.700  0.00  0.00    +0.039 A 
BRANCH   3   2
ATOM      1  C   UNL     1      -3.987   3.305  24.676  0.00  0.00    +0.252 C 
ATOM      2  O   UNL     1      -3.965   2.680  24.138  0.00  0.00    -0.471 OA
ENDBRANCH   3   2
ENDBRANCH  10   8
BRANCH  17  18
ATOM     18  C   UNL     1       3.183   0.206  22.961  0.00  0.00    +0.075 A 
ATOM     19  C   UNL     1       3.707  -0.262  23.393  0.00  0.00    +0.017 A 
ATOM     20  C   UNL     1       4.516  -0.096  23.380  0.00  0.00    +0.001 A 
ATOM     21  C   UNL     1       4.799   0.540  22.935  0.00  0.00    +0.000 A 
ATOM     22  C   UNL     1       4.274   1.007  22.504  0.00  0.00    +0.001 A 
ATOM     23  C   UNL     1       3.466   0.841  22.517  0.00  0.00    +0.017 A 
ENDBRANCH  17  18
TORSDOF 3
ENDMDL
MODEL 7
REMARK VINA RESULT:      -7.6     18.269     19.018
REMARK  Name = 
REMARK  3 active torsions:
REMARK  status: ('A' for Active; 'I' for Inactive)
REMARK    1  A    between atoms: O_2  and  C_3
REMARK    2  A    between atoms: C_8  and  C_10
REMARK    3  A    between atoms: N_17  and  C_18
REMARK                            x       y       z     vdW  Elec       q    Type
REMARK                         _______ _______ _______ _____ _____    ______ ____
ROOT
ATOM     10  C   UNL     1      -6.874  -8.337   8.871  0.00  0.00    +0.080 C 
ATOM     11  C   UNL     1      -6.605  -8.905   8.337  0.00  0.00    +0.031 C 
ATOM     12  C   UNL     1      -5.893  -9.208   8.621  0.00  0.00    +0.096 C 
ATOM     13  N   UNL     1      -5.721  -8.826   9.332  0.00  0.00    -0.262 N 
ATOM     14  C   UNL     1      -6.327  -8.288   9.486  0.00  0.00    +0.103 C 
ATOM     15  C   UNL     1      -5.059  -8.959   9.806  0.00  0.00    +0.327 C 
ATOM     16  O   UNL     1      -4.960  -8.534  10.506  0.00  0.00    -0.250 OA
ATOM     17  N   UNL     1      -4.495  -9.518   9.581  0.00  0.00    -0.162 NA
ENDROOT
BRANCH  10   8
ATOM      3  C   UNL     1      -9.624  -6.149   8.389  0.00  0.00    +0.140 A 
ATOM      4  C   UNL     1      -8.813  -6.230   8.262  0.00  0.00    +0.058 A 
ATOM      5  C   UNL     1      -8.423  -6.914   8.508  0.00  0.00    +0.103 A 
ATOM      6  C   UNL     1      -8.844  -7.517   8.882  0.00  0.00    +0.100 A 
ATOM      7  N   UNL     1      -8.315  -8.123   9.064  0.00  0.00    -0.229 NA
ATOM      8  C   UNL     1      -7.567  -7.895   8.802  0.00  0.00    +0.140 A 
ATOM      9  N   UNL     1      -7.634  -7.148   8.459  0.00  0.00    -0.229 NA
ATOM     24  C   UNL     1      -9.656  -7.436   9.010  0.00  0.00    +0.024 A 
ATOM     25  C   UNL     1     -10.045  -6.752   8.763  0.00  0.00    +0.039 A 
BRANCH   3   2
ATOM      1  C   UNL     1     -10.362  -4.965   8.698  0.00  0.00    +0.252 C 
ATOM      2  O   UNL     1     -10.013  -5.466   8.142  0.00  0.00    -0.471 OA
ENDBRANCH   3   2
ENDBRANCH  10   8
BRANCH  17  18
ATOM     18  C   UNL     1      -3.833  -9.651  10.054  0.00  0.00    +0.075 A 
ATOM     19  C   UNL     1      -3.175  -9.157   9.991  0.00  0.00    +0.017 A 
ATOM     20  C   UNL     1      -2.512  -9.289  10.465  0.00  0.00    +0.001 A 
ATOM     21  C   UNL     1      -2.509  -9.916  11.002  0.00  0.00    +0.000 A 
ATOM     22  C   UNL     1      -3.166 -10.409  11.065  0.00  0.00    +0.001 A 
ATOM     23  C   UNL     1      -3.829 -10.277  10.591  0.00  0.00    +0.017 A 
ENDBRANCH  17  18
TORSDOF 3
ENDMDL
MODEL 8
REMARK VINA RESULT:      -7.3     17.761     19.887
REMARK  Name = 
REMARK  3 active torsions:
REMARK  status: ('A' for Active; 'I' for Inactive)
REMARK    1  A    between atoms: O_2  and  C_3
REMARK    2  A    between atoms: C_8  and  C_10
REMARK    3  A    between atoms: N_17  and  C_18
REMARK                            x       y       z     vdW  Elec       q    Type
REMARK                         _______ _______ _______ _____ _____    ______ ____
ROOT
ATOM     10  C   UNL     1      14.651   8.120  18.690  0.00  0.00    +0.080 C 
ATOM     11  C   UNL     1      14.665   8.922  18.494  0.00  0.00    +0.031 C 
ATOM     12  C   UNL     1      13.981   9.092  18.065  0.00  0.00    +0.096 C 
ATOM     13  N   UNL     1      13.545   8.396  17.995  0.00  0.00    -0.262 N 
ATOM     14  C   UNL     1      13.959   7.795  18.381  0.00  0.00    +0.103 C 
ATOM     15  C   UNL     1      12.821   8.314  17.607  0.00  0.00    +0.327 C 
ATOM     16  O   UNL     1      12.447   7.578  17.582  0.00  0.00    -0.250 OA
ATOM     17  N   UNL     1      12.471   8.967  17.243  0.00  0.00    -0.162 NA
ENDROOT
BRANCH  10   8
ATOM      3  C   UNL     1      17.009   6.601  20.860  0.00  0.00    +0.140 A 
ATOM      4  C   UNL     1      16.404   7.160  20.828  0.00  0.00    +0.058 A 
ATOM      5  C   UNL     1      16.009   7.302  20.118  0.00  0.00    +0.103 A 
ATOM      6  C   UNL     1      16.221   6.884  19.439  0.00  0.00    +0.100 A 
ATOM      7  N   UNL     1      15.738   7.140  18.821  0.00  0.00    -0.229 NA
ATOM      8  C   UNL     1      15.228   7.716  19.118  0.00  0.00    +0.140 A 
ATOM      9  N   UNL     1      15.396   7.816  19.919  0.00  0.00    -0.229 NA
ATOM     24  C   UNL     1      16.826   6.324  19.470  0.00  0.00    +0.024 A 
ATOM     25  C   UNL     1      17.220   6.183  20.181  0.00  0.00    +0.039 A 
BRANCH   3   2
ATOM      1  C   UNL     1      17.077   5.946  22.128  0.00  0.00    +0.252 C 
ATOM      2  O   UNL     1      17.403   6.459  21.571  0.00  0.00    -0.471 OA
ENDBRANCH   3   2
ENDBRANCH  10   8
BRANCH  17  18
ATOM     18  C   UNL     1      11.748   8.884  16.856  0.00  0.00    +0.075 A 
ATOM     19  C   UNL     1      11.702   9.001  16.040  0.00  0.00    +0.017 A 
ATOM     20  C   UNL     1      10.979   8.919  15.651  0.00  0.00    +0.001 A 
ATOM     21  C   UNL     1      10.301   8.720  16.079  0.00  0.00    +0.000 A 
ATOM     22  C   UNL     1      10.348   8.604  16.894  0.00  0.00    +0.001 A 
ATOM     23  C   UNL     1      11.071   8.686  17.282  0.00  0.00    +0.017 A 
ENDBRANCH  17  18
TORSDOF 3
ENDMDL
