MODEL 1
REMARK VINA RESULT:     -12.4      0.000      0.000
REMARK  Name = 
REMARK  7 active torsions:
REMARK  status: ('A' for Active; 'I' for Inactive)
REMARK    1  A    between atoms: O_2  and  C_3
REMARK    2  A    between atoms: C_3  and  C_4
REMARK    3  A    between atoms: C_4  and  N_5
REMARK    4  A    between atoms: N_5  and  C_6
REMARK    5  A    between atoms: C_10  and  C_21
REMARK    6  A    between atoms: C_21  and  O_23
REMARK    7  A    between atoms: C_25  and  C_27
REMARK                            x       y       z     vdW  Elec       q    Type
REMARK                         _______ _______ _______ _____ _____    ______ ____
ROOT
ATOM      6  C   UNL     1      -0.748   0.334  24.293  0.00  0.00    +0.076 C 
ATOM      7  C   UNL     1      -0.765   1.146  24.436  0.00  0.00    +0.040 C 
ATOM      8  C   UNL     1      -1.476   1.517  24.623  0.00  0.00    +0.100 C 
ATOM      9  N   UNL     1      -2.172   1.076  24.668  0.00  0.00    -0.258 NA
ATOM     10  C   UNL     1      -2.885   1.447  24.856  0.00  0.00    +0.162 C 
ATOM     11  C   UNL     1      -2.902   2.259  24.999  0.00  0.00    +0.055 C 
ATOM     12  C   UNL     1      -2.206   2.700  24.954  0.00  0.00    -0.004 A 
ATOM     13  C   UNL     1      -1.493   2.330  24.767  0.00  0.00    +0.070 A 
ATOM     14  N   UNL     1      -0.901   2.903  24.763  0.00  0.00    -0.249 NA
ATOM     15  C   UNL     1      -1.246   3.629  24.948  0.00  0.00    +0.081 A 
ATOM     16  C   UNL     1      -2.054   3.503  25.067  0.00  0.00    +0.015 A 
ATOM     17  C   UNL     1      -2.545   4.137  25.261  0.00  0.00    +0.001 A 
ATOM     18  C   UNL     1      -2.230   4.896  25.338  0.00  0.00    +0.000 A 
ATOM     19  C   UNL     1      -1.423   5.021  25.219  0.00  0.00    +0.002 A 
ATOM     20  C   UNL     1      -0.931   4.388  25.024  0.00  0.00    +0.019 A 
ATOM     25  C   UNL     1      -2.155   0.263  24.525  0.00  0.00    +0.082 C 
ATOM     26  C   UNL     1      -1.444  -0.107  24.337  0.00  0.00    +0.038 C 
ENDROOT
BRANCH  25  27
ATOM     27  C   UNL     1      -2.851  -0.177  24.570  0.00  0.00    -0.008 A 
ATOM     28  C   UNL     1      -3.070  -0.529  25.283  0.00  0.00    -0.003 A 
ATOM     29  C   UNL     1      -3.766  -0.970  25.329  0.00  0.00    -0.000 A 
ATOM     30  C   UNL     1      -4.243  -1.058  24.662  0.00  0.00    -0.000 A 
ATOM     31  C   UNL     1      -4.025  -0.706  23.949  0.00  0.00    -0.000 A 
ATOM     32  C   UNL     1      -3.329  -0.265  23.903  0.00  0.00    -0.003 A 
ENDBRANCH  25  27
BRANCH  10  21
ATOM     21  C   UNL     1      -3.581   1.006  24.901  0.00  0.00    +0.332 C 
ATOM     22  O   UNL     1      -4.050   0.357  25.099  0.00  0.00    -0.249 OA
BRANCH  21  23
ATOM     23  O   UNL     1      -4.282   1.309  24.590  0.00  0.00    -0.443 OA
ATOM     24  C   UNL     1      -4.872   1.584  25.097  0.00  0.00    +0.256 C 
ENDBRANCH  21  23
ENDBRANCH  10  21
BRANCH   6   5
ATOM      5  N   UNL     1      -0.035  -0.037  24.104  0.00  0.00    -0.217 NA
BRANCH   5   4
ATOM      4  C   UNL     1       0.316   0.093  23.370  0.00  0.00    +0.121 C 
BRANCH   4   3
ATOM      3  C   UNL     1       1.067  -0.211  23.212  0.00  0.00    +0.161 C 
BRANCH   3   2
ATOM      1  C   UNL     1       2.229  -0.028  22.402  0.00  0.00    +0.174 C 
ATOM      2  O   UNL     1       1.410  -0.098  22.470  0.00  0.00    -0.350 OA
ENDBRANCH   3   2
ENDBRANCH   4   3
ENDBRANCH   5   4
ENDBRANCH   6   5
TORSDOF 7
ENDMDL
MODEL 2
REMARK VINA RESULT:     -11.8      1.386      3.747
REMARK  Name = 
REMARK  7 active torsions:
REMARK  status: ('A' for Active; 'I' for Inactive)
REMARK    1  A    between atoms: O_2  and  C_3
REMARK    2  A    between atoms: C_3  and  C_4
REMARK    3  A    between atoms: C_4  and  N_5
REMARK    4  A    between atoms: N_5  and  C_6
REMARK    5  A    between atoms: C_10  and  C_21
REMARK    6  A    between atoms: C_21  and  O_23
REMARK    7  A    between atoms: C_25  and  C_27
REMARK                            x       y       z     vdW  Elec       q    Type
REMARK                         _______ _______ _______ _____ _____    ______ ____
ROOT
ATOM      6  C   UNL     1      -1.477   1.563  24.965  0.00  0.00    +0.076 C 
ATOM      7  C   UNL     1      -1.752   0.796  24.837  0.00  0.00    +0.040 C 
ATOM      8  C   UNL     1      -2.557   0.658  24.727  0.00  0.00    +0.100 C 
ATOM      9  N   UNL     1      -3.089   1.289  24.745  0.00  0.00    -0.258 NA
ATOM     10  C   UNL     1      -3.895   1.152  24.634  0.00  0.00    +0.162 C 
ATOM     11  C   UNL     1      -4.170   0.385  24.507  0.00  0.00    +0.055 C 
ATOM     12  C   UNL     1      -3.638  -0.246  24.489  0.00  0.00    -0.004 A 
ATOM     13  C   UNL     1      -2.832  -0.110  24.599  0.00  0.00    +0.070 A 
ATOM     14  N   UNL     1      -2.442  -0.835  24.553  0.00  0.00    -0.249 NA
ATOM     15  C   UNL     1      -3.006  -1.420  24.415  0.00  0.00    +0.081 A 
ATOM     16  C   UNL     1      -3.746  -1.056  24.375  0.00  0.00    +0.015 A 
ATOM     17  C   UNL     1      -4.422  -1.509  24.241  0.00  0.00    +0.001 A 
ATOM     18  C   UNL     1      -4.359  -2.327  24.146  0.00  0.00    +0.000 A 
ATOM     19  C   UNL     1      -3.619  -2.691  24.185  0.00  0.00    +0.002 A 
ATOM     20  C   UNL     1      -2.943  -2.237  24.320  0.00  0.00    +0.019 A 
ATOM     25  C   UNL     1      -2.814   2.057  24.872  0.00  0.00    +0.082 C 
ATOM     26  C   UNL     1      -2.009   2.193  24.982  0.00  0.00    +0.038 C 
ENDROOT
BRANCH  25  27
ATOM     27  C   UNL     1      -3.346   2.686  24.890  0.00  0.00    -0.008 A 
ATOM     28  C   UNL     1      -3.669   2.933  25.608  0.00  0.00    -0.003 A 
ATOM     29  C   UNL     1      -4.201   3.563  25.627  0.00  0.00    -0.000 A 
ATOM     30  C   UNL     1      -4.412   3.946  24.927  0.00  0.00    -0.000 A 
ATOM     31  C   UNL     1      -4.090   3.700  24.209  0.00  0.00    -0.000 A 
ATOM     32  C   UNL     1      -3.557   3.070  24.190  0.00  0.00    -0.003 A 
ENDBRANCH  25  27
BRANCH  10  21
ATOM     21  C   UNL     1      -4.427   1.782  24.652  0.00  0.00    +0.332 C 
ATOM     22  O   UNL     1      -4.719   2.528  24.452  0.00  0.00    -0.249 OA
BRANCH  21  23
ATOM     23  O   UNL     1      -5.105   1.738  25.120  0.00  0.00    -0.443 OA
ATOM     24  C   UNL     1      -5.844   1.641  24.764  0.00  0.00    +0.256 C 
ENDBRANCH  21  23
ENDBRANCH  10  21
BRANCH   6   5
ATOM      5  N   UNL     1      -0.671   1.700  25.075  0.00  0.00    -0.217 NA
BRANCH   5   4
ATOM      4  C   UNL     1      -0.168   1.751  24.423  0.00  0.00    +0.121 C 
BRANCH   4   3
ATOM      3  C   UNL     1       0.645   1.661  24.521  0.00  0.00    +0.161 C 
BRANCH   3   2
ATOM      1  C   UNL     1       1.635   1.235  23.583  0.00  0.00    +0.174 C 
ATOM      2  O   UNL     1       1.158   1.830  23.897  0.00  0.00    -0.350 OA
ENDBRANCH   3   2
ENDBRANCH   4   3
ENDBRANCH   5   4
ENDBRANCH   6   5
TORSDOF 7
ENDMDL
MODEL 3
REMARK VINA RESULT:     -11.7      1.745      3.821
REMARK  Name = 
REMARK  7 active torsions:
REMARK  status: ('A' for Active; 'I' for Inactive)
REMARK    1  A    between atoms: O_2  and  C_3
REMARK    2  A    between atoms: C_3  and  C_4
REMARK    3  A    between atoms: C_4  and  N_5
REMARK    4  A    between atoms: N_5  and  C_6
REMARK    5  A    between atoms: C_10  and  C_21
REMARK    6  A    between atoms: C_21  and  O_23
REMARK    7  A    between atoms: C_25  and  C_27
REMARK                            x       y       z     vdW  Elec       q    Type
REMARK                         _______ _______ _______ _____ _____    ______ ____
ROOT
ATOM      6  C   UNL     1      -4.300   0.996  24.740  0.00  0.00    +0.076 C 
ATOM      7  C   UNL     1      -3.581   1.396  24.678  0.00  0.00    +0.040 C 
ATOM      8  C   UNL     1      -2.875   0.972  24.634  0.00  0.00    +0.100 C 
ATOM      9  N   UNL     1      -2.888   0.147  24.653  0.00  0.00    -0.258 NA
ATOM     10  C   UNL     1      -2.182  -0.278  24.610  0.00  0.00    +0.162 C 
ATOM     11  C   UNL     1      -1.464   0.122  24.548  0.00  0.00    +0.055 C 
ATOM     12  C   UNL     1      -1.451   0.946  24.529  0.00  0.00    -0.004 A 
ATOM     13  C   UNL     1      -2.156   1.372  24.572  0.00  0.00    +0.070 A 
ATOM     14  N   UNL     1      -1.972   2.175  24.541  0.00  0.00    -0.249 NA
ATOM     15  C   UNL     1      -1.154   2.247  24.479  0.00  0.00    +0.081 A 
ATOM     16  C   UNL     1      -0.830   1.487  24.471  0.00  0.00    +0.015 A 
ATOM     17  C   UNL     1      -0.014   1.387  24.413  0.00  0.00    +0.001 A 
ATOM     18  C   UNL     1       0.481   2.046  24.362  0.00  0.00    +0.000 A 
ATOM     19  C   UNL     1       0.158   2.806  24.370  0.00  0.00    +0.002 A 
ATOM     20  C   UNL     1      -0.659   2.906  24.428  0.00  0.00    +0.019 A 
ATOM     25  C   UNL     1      -3.608  -0.253  24.715  0.00  0.00    +0.082 C 
ATOM     26  C   UNL     1      -4.313   0.171  24.758  0.00  0.00    +0.038 C 
ENDROOT
BRANCH  25  27
ATOM     27  C   UNL     1      -3.620  -1.077  24.734  0.00  0.00    -0.008 A 
ATOM     28  C   UNL     1      -3.745  -1.503  24.038  0.00  0.00    -0.003 A 
ATOM     29  C   UNL     1      -3.757  -2.328  24.055  0.00  0.00    -0.000 A 
ATOM     30  C   UNL     1      -3.644  -2.727  24.769  0.00  0.00    -0.000 A 
ATOM     31  C   UNL     1      -3.519  -2.302  25.464  0.00  0.00    -0.000 A 
ATOM     32  C   UNL     1      -3.507  -1.477  25.446  0.00  0.00    -0.003 A 
ENDBRANCH  25  27
BRANCH  10  21
ATOM     21  C   UNL     1      -2.195  -1.103  24.628  0.00  0.00    +0.332 C 
ATOM     22  O   UNL     1      -2.476  -1.856  24.444  0.00  0.00    -0.249 OA
BRANCH  21  23
ATOM     23  O   UNL     1      -1.630  -1.515  25.066  0.00  0.00    -0.443 OA
ATOM     24  C   UNL     1      -1.012  -1.902  24.679  0.00  0.00    +0.256 C 
ENDBRANCH  21  23
ENDBRANCH  10  21
BRANCH   6   5
ATOM      5  N   UNL     1      -5.006   1.421  24.783  0.00  0.00    -0.217 NA
BRANCH   5   4
ATOM      4  C   UNL     1      -5.137   1.940  25.410  0.00  0.00    +0.121 C 
BRANCH   4   3
ATOM      3  C   UNL     1      -5.738   2.503  25.361  0.00  0.00    +0.161 C 
BRANCH   3   2
ATOM      1  C   UNL     1      -5.786   3.891  25.698  0.00  0.00    +0.174 C 
ATOM      2  O   UNL     1      -5.793   3.099  25.929  0.00  0.00    -0.350 OA
ENDBRANCH   3   2
ENDBRANCH   4   3
ENDBRANCH   5   4
ENDBRANCH   6   5
TORSDOF 7
ENDMDL
MODEL 4
REMARK VINA RESULT:     -11.4      1.907      2.603
REMARK  Name = 
REMARK  7 active torsions:
REMARK  status: ('A' for Active; 'I' for Inactive)
REMARK    1  A    between atoms: O_2  and  C_3
REMARK    2  A    between atoms: C_3  and  C_4
REMARK    3  A    between atoms: C_4  and  N_5
REMARK    4  A    between atoms: N_5  and  C_6
REMARK    5  A    between atoms: C_10  and  C_21
REMARK    6  A    between atoms: C_21  and  O_23
REMARK    7  A    between atoms: C_25  and  C_27
REMARK                            x       y       z     vdW  Elec       q    Type
REMARK                         _______ _______ _______ _____ _____    ______ ____
ROOT
ATOM      6  C   UNL     1      -3.069   0.731  24.431  0.00  0.00    +0.076 C 
ATOM      7  C   UNL     1      -2.562   1.379  24.480  0.00  0.00    +0.040 C 
ATOM      8  C   UNL     1      -2.850   2.110  24.731  0.00  0.00    +0.100 C 
ATOM      9  N   UNL     1      -3.646   2.192  24.933  0.00  0.00    -0.258 NA
ATOM     10  C   UNL     1      -3.934   2.923  25.185  0.00  0.00    +0.162 C 
ATOM     11  C   UNL     1      -3.428   3.572  25.234  0.00  0.00    +0.055 C 
ATOM     12  C   UNL     1      -2.632   3.490  25.032  0.00  0.00    -0.004 A 
ATOM     13  C   UNL     1      -2.343   2.759  24.781  0.00  0.00    +0.070 A 
ATOM     14  N   UNL     1      -1.539   2.845  24.619  0.00  0.00    -0.249 NA
ATOM     15  C   UNL     1      -1.330   3.627  24.771  0.00  0.00    +0.081 A 
ATOM     16  C   UNL     1      -2.006   4.027  25.026  0.00  0.00    +0.015 A 
ATOM     17  C   UNL     1      -1.964   4.828  25.220  0.00  0.00    +0.001 A 
ATOM     18  C   UNL     1      -1.245   5.230  25.159  0.00  0.00    +0.000 A 
ATOM     19  C   UNL     1      -0.569   4.831  24.903  0.00  0.00    +0.002 A 
ATOM     20  C   UNL     1      -0.611   4.030  24.709  0.00  0.00    +0.019 A 
ATOM     25  C   UNL     1      -4.153   1.543  24.884  0.00  0.00    +0.082 C 
ATOM     26  C   UNL     1      -3.864   0.813  24.633  0.00  0.00    +0.038 C 
ENDROOT
BRANCH  25  27
ATOM     27  C   UNL     1      -4.948   1.626  25.086  0.00  0.00    -0.008 A 
ATOM     28  C   UNL     1      -5.502   1.820  24.506  0.00  0.00    -0.003 A 
ATOM     29  C   UNL     1      -6.298   1.903  24.707  0.00  0.00    -0.000 A 
ATOM     30  C   UNL     1      -6.540   1.792  25.488  0.00  0.00    -0.000 A 
ATOM     31  C   UNL     1      -5.986   1.598  26.068  0.00  0.00    -0.000 A 
ATOM     32  C   UNL     1      -5.190   1.515  25.866  0.00  0.00    -0.003 A 
ENDBRANCH  25  27
BRANCH  10  21
ATOM     21  C   UNL     1      -4.730   3.005  25.387  0.00  0.00    +0.332 C 
ATOM     22  O   UNL     1      -5.442   2.793  25.744  0.00  0.00    -0.249 OA
BRANCH  21  23
ATOM     23  O   UNL     1      -5.159   3.658  25.120  0.00  0.00    -0.443 OA
ATOM     24  C   UNL     1      -5.372   4.254  25.650  0.00  0.00    +0.256 C 
ENDBRANCH  21  23
ENDBRANCH  10  21
BRANCH   6   5
ATOM      5  N   UNL     1      -2.780  -0.001  24.179  0.00  0.00    -0.217 NA
BRANCH   5   4
ATOM      4  C   UNL     1      -2.503  -0.546  24.731  0.00  0.00    +0.121 C 
BRANCH   4   3
ATOM      3  C   UNL     1      -2.273  -1.300  24.487  0.00  0.00    +0.161 C 
BRANCH   3   2
ATOM      1  C   UNL     1      -1.586  -2.527  24.740  0.00  0.00    +0.174 C 
ATOM      2  O   UNL     1      -1.799  -1.766  24.977  0.00  0.00    -0.350 OA
ENDBRANCH   3   2
ENDBRANCH   4   3
ENDBRANCH   5   4
ENDBRANCH   6   5
TORSDOF 7
ENDMDL
MODEL 5
REMARK VINA RESULT:     -11.3      1.756      5.102
REMARK  Name = 
REMARK  7 active torsions:
REMARK  status: ('A' for Active; 'I' for Inactive)
REMARK    1  A    between atoms: O_2  and  C_3
REMARK    2  A    between atoms: C_3  and  C_4
REMARK    3  A    between atoms: C_4  and  N_5
REMARK    4  A    between atoms: N_5  and  C_6
REMARK    5  A    between atoms: C_10  and  C_21
REMARK    6  A    between atoms: C_21  and  O_23
REMARK    7  A    between atoms: C_25  and  C_27
REMARK                            x       y       z     vdW  Elec       q    Type
REMARK                         _______ _______ _______ _____ _____    ______ ____
ROOT
ATOM      6  C   UNL     1      -3.567   2.122  24.537  0.00  0.00    +0.076 C 
ATOM      7  C   UNL     1      -3.778   1.331  24.437  0.00  0.00    +0.040 C 
ATOM      8  C   UNL     1      -3.206   0.740  24.498  0.00  0.00    +0.100 C 
ATOM      9  N   UNL     1      -2.422   0.941  24.658  0.00  0.00    -0.258 NA
ATOM     10  C   UNL     1      -1.849   0.349  24.719  0.00  0.00    +0.162 C 
ATOM     11  C   UNL     1      -2.060  -0.441  24.619  0.00  0.00    +0.055 C 
ATOM     12  C   UNL     1      -2.844  -0.642  24.459  0.00  0.00    -0.004 A 
ATOM     13  C   UNL     1      -3.417  -0.051  24.398  0.00  0.00    +0.070 A 
ATOM     14  N   UNL     1      -4.140  -0.413  24.236  0.00  0.00    -0.249 NA
ATOM     15  C   UNL     1      -4.016  -1.227  24.197  0.00  0.00    +0.081 A 
ATOM     16  C   UNL     1      -3.214  -1.369  24.335  0.00  0.00    +0.015 A 
ATOM     17  C   UNL     1      -2.924  -2.141  24.329  0.00  0.00    +0.001 A 
ATOM     18  C   UNL     1      -3.436  -2.773  24.186  0.00  0.00    +0.000 A 
ATOM     19  C   UNL     1      -4.238  -2.631  24.048  0.00  0.00    +0.002 A 
ATOM     20  C   UNL     1      -4.527  -1.859  24.054  0.00  0.00    +0.019 A 
ATOM     25  C   UNL     1      -2.210   1.732  24.758  0.00  0.00    +0.082 C 
ATOM     26  C   UNL     1      -2.783   2.322  24.697  0.00  0.00    +0.038 C 
ENDROOT
BRANCH  25  27
ATOM     27  C   UNL     1      -1.427   1.932  24.919  0.00  0.00    -0.008 A 
ATOM     28  C   UNL     1      -0.911   2.106  24.298  0.00  0.00    -0.003 A 
ATOM     29  C   UNL     1      -0.126   2.306  24.458  0.00  0.00    -0.000 A 
ATOM     30  C   UNL     1       0.143   2.331  25.238  0.00  0.00    -0.000 A 
ATOM     31  C   UNL     1      -0.373   2.156  25.857  0.00  0.00    -0.000 A 
ATOM     32  C   UNL     1      -1.157   1.957  25.698  0.00  0.00    -0.003 A 
ENDBRANCH  25  27
BRANCH  10  21
ATOM     21  C   UNL     1      -1.065   0.550  24.880  0.00  0.00    +0.332 C 
ATOM     22  O   UNL     1      -0.451   0.932  25.277  0.00  0.00    -0.249 OA
BRANCH  21  23
ATOM     23  O   UNL     1      -0.455   0.227  24.427  0.00  0.00    -0.443 OA
ATOM     24  C   UNL     1      -0.053  -0.442  24.696  0.00  0.00    +0.256 C 
ENDBRANCH  21  23
ENDBRANCH  10  21
BRANCH   6   5
ATOM      5  N   UNL     1      -4.139   2.713  24.476  0.00  0.00    -0.217 NA
BRANCH   5   4
ATOM      4  C   UNL     1      -4.544   2.966  25.148  0.00  0.00    +0.121 C 
BRANCH   4   3
ATOM      3  C   UNL     1      -5.087   3.584  25.095  0.00  0.00    +0.161 C 
BRANCH   3   2
ATOM      1  C   UNL     1      -6.021   4.453  25.740  0.00  0.00    +0.174 C 
ATOM      2  O   UNL     1      -5.586   3.752  25.731  0.00  0.00    -0.350 OA
ENDBRANCH   3   2
ENDBRANCH   4   3
ENDBRANCH   5   4
ENDBRANCH   6   5
TORSDOF 7
ENDMDL
MODEL 6
REMARK VINA RESULT:     -10.5      1.834      3.763
REMARK  Name = 
REMARK  7 active torsions:
REMARK  status: ('A' for Active; 'I' for Inactive)
REMARK    1  A    between atoms: O_2  and  C_3
REMARK    2  A    between atoms: C_3  and  C_4
REMARK    3  A    between atoms: C_4  and  N_5
REMARK    4  A    between atoms: N_5  and  C_6
REMARK    5  A    between atoms: C_10  and  C_21
REMARK    6  A    between atoms: C_21  and  O_23
REMARK    7  A    between atoms: C_25  and  C_27
REMARK                            x       y       z     vdW  Elec       q    Type
REMARK                         _______ _______ _______ _____ _____    ______ ____
ROOT
ATOM      6  C   UNL     1      -2.245   0.088  24.585  0.00  0.00    +0.076 C 
ATOM      7  C   UNL     1      -2.996   0.414  24.682  0.00  0.00    +0.040 C 
ATOM      8  C   UNL     1      -3.078   1.209  24.884  0.00  0.00    +0.100 C 
ATOM      9  N   UNL     1      -2.407   1.679  24.989  0.00  0.00    -0.258 NA
ATOM     10  C   UNL     1      -2.489   2.475  25.191  0.00  0.00    +0.162 C 
ATOM     11  C   UNL     1      -3.240   2.801  25.289  0.00  0.00    +0.055 C 
ATOM     12  C   UNL     1      -3.910   2.331  25.184  0.00  0.00    -0.004 A 
ATOM     13  C   UNL     1      -3.829   1.535  24.982  0.00  0.00    +0.070 A 
ATOM     14  N   UNL     1      -4.585   1.211  24.916  0.00  0.00    -0.249 NA
ATOM     15  C   UNL     1      -5.133   1.805  25.077  0.00  0.00    +0.081 A 
ATOM     16  C   UNL     1      -4.716   2.498  25.243  0.00  0.00    +0.015 A 
ATOM     17  C   UNL     1      -5.124   3.191  25.426  0.00  0.00    +0.001 A 
ATOM     18  C   UNL     1      -5.950   3.192  25.443  0.00  0.00    +0.000 A 
ATOM     19  C   UNL     1      -6.366   2.499  25.277  0.00  0.00    +0.002 A 
ATOM     20  C   UNL     1      -5.958   1.806  25.094  0.00  0.00    +0.019 A 
ATOM     25  C   UNL     1      -1.656   1.353  24.891  0.00  0.00    +0.082 C 
ATOM     26  C   UNL     1      -1.574   0.558  24.689  0.00  0.00    +0.038 C 
ENDROOT
BRANCH  25  27
ATOM     27  C   UNL     1      -0.986   1.823  24.995  0.00  0.00    -0.008 A 
ATOM     28  C   UNL     1      -0.654   2.215  24.350  0.00  0.00    -0.003 A 
ATOM     29  C   UNL     1       0.016   2.685  24.454  0.00  0.00    -0.000 A 
ATOM     30  C   UNL     1       0.353   2.764  25.203  0.00  0.00    -0.000 A 
ATOM     31  C   UNL     1       0.021   2.373  25.848  0.00  0.00    -0.000 A 
ATOM     32  C   UNL     1      -0.649   1.902  25.744  0.00  0.00    -0.003 A 
ENDBRANCH  25  27
BRANCH  10  21
ATOM     21  C   UNL     1      -1.819   2.945  25.295  0.00  0.00    +0.332 C 
ATOM     22  O   UNL     1      -1.060   3.126  25.564  0.00  0.00    -0.249 OA
BRANCH  21  23
ATOM     23  O   UNL     1      -1.795   3.706  24.980  0.00  0.00    -0.443 OA
ATOM     24  C   UNL     1      -1.887   4.360  25.475  0.00  0.00    +0.256 C 
ENDBRANCH  21  23
ENDBRANCH  10  21
BRANCH   6   5
ATOM      5  N   UNL     1      -2.163  -0.708  24.382  0.00  0.00    -0.217 NA
BRANCH   5   4
ATOM      4  C   UNL     1      -2.552  -1.287  24.821  0.00  0.00    +0.121 C 
BRANCH   4   3
ATOM      3  C   UNL     1      -2.565  -2.068  24.556  0.00  0.00    +0.161 C 
BRANCH   3   2
ATOM      1  C   UNL     1      -3.462  -3.180  24.520  0.00  0.00    +0.174 C 
ATOM      2  O   UNL     1      -3.021  -2.631  24.951  0.00  0.00    -0.350 OA
ENDBRANCH   3   2
ENDBRANCH   4   3
ENDBRANCH   5   4
ENDBRANCH   6   5
TORSDOF 7
ENDMDL
MODEL 7
REMARK VINA RESULT:     -10.4      1.601      3.384
REMARK  Name = 
REMARK  7 active torsions:
REMARK  status: ('A' for Active; 'I' for Inactive)
REMARK    1  A    between atoms: O_2  and  C_3
REMARK    2  A    between atoms: C_3  and  C_4
REMARK    3  A    between atoms: C_4  and  N_5
REMARK    4  A    between atoms: N_5  and  C_6
REMARK    5  A    between atoms: C_10  and  C_21
REMARK    6  A    between atoms: C_21  and  O_23
REMARK    7  A    between atoms: C_25  and  C_27
REMARK                            x       y       z     vdW  Elec       q    Type
REMARK                         _______ _______ _______ _____ _____    ______ ____
ROOT
ATOM      6  C   UNL     1      -1.313   1.979  25.033  0.00  0.00    +0.076 C 
ATOM      7  C   UNL     1      -2.125   2.124  25.032  0.00  0.00    +0.040 C 
ATOM      8  C   UNL     1      -2.657   1.495  25.025  0.00  0.00    +0.100 C 
ATOM      9  N   UNL     1      -2.378   0.719  25.021  0.00  0.00    -0.258 NA
ATOM     10  C   UNL     1      -2.911   0.088  25.014  0.00  0.00    +0.162 C 
ATOM     11  C   UNL     1      -3.722   0.234  25.013  0.00  0.00    +0.055 C 
ATOM     12  C   UNL     1      -4.002   1.010  25.017  0.00  0.00    -0.004 A 
ATOM     13  C   UNL     1      -3.470   1.641  25.024  0.00  0.00    +0.070 A 
ATOM     14  N   UNL     1      -3.905   2.341  25.027  0.00  0.00    -0.249 NA
ATOM     15  C   UNL     1      -4.705   2.145  25.023  0.00  0.00    +0.081 A 
ATOM     16  C   UNL     1      -4.766   1.321  25.017  0.00  0.00    +0.015 A 
ATOM     17  C   UNL     1      -5.508   0.962  25.012  0.00  0.00    +0.001 A 
ATOM     18  C   UNL     1      -6.191   1.426  25.013  0.00  0.00    +0.000 A 
ATOM     19  C   UNL     1      -6.131   2.249  25.019  0.00  0.00    +0.002 A 
ATOM     20  C   UNL     1      -5.388   2.609  25.024  0.00  0.00    +0.019 A 
ATOM     25  C   UNL     1      -1.565   0.573  25.022  0.00  0.00    +0.082 C 
ATOM     26  C   UNL     1      -1.034   1.203  25.029  0.00  0.00    +0.038 C 
ENDROOT
BRANCH  25  27
ATOM     27  C   UNL     1      -1.287  -0.203  25.017  0.00  0.00    -0.008 A 
ATOM     28  C   UNL     1      -1.155  -0.598  25.730  0.00  0.00    -0.003 A 
ATOM     29  C   UNL     1      -0.877  -1.374  25.726  0.00  0.00    -0.000 A 
ATOM     30  C   UNL     1      -0.729  -1.756  25.010  0.00  0.00    -0.000 A 
ATOM     31  C   UNL     1      -0.861  -1.362  24.298  0.00  0.00    -0.000 A 
ATOM     32  C   UNL     1      -1.139  -0.586  24.302  0.00  0.00    -0.003 A 
ENDBRANCH  25  27
BRANCH  10  21
ATOM     21  C   UNL     1      -2.631  -0.688  25.009  0.00  0.00    +0.332 C 
ATOM     22  O   UNL     1      -2.134  -1.309  24.788  0.00  0.00    -0.249 OA
BRANCH  21  23
ATOM     23  O   UNL     1      -3.003  -1.264  25.468  0.00  0.00    -0.443 OA
ATOM     24  C   UNL     1      -3.478  -1.834  25.106  0.00  0.00    +0.256 C 
ENDBRANCH  21  23
ENDBRANCH  10  21
BRANCH   6   5
ATOM      5  N   UNL     1      -0.781   2.609  25.040  0.00  0.00    -0.217 NA
BRANCH   5   4
ATOM      4  C   UNL     1      -1.021   3.355  24.784  0.00  0.00    +0.121 C 
BRANCH   4   3
ATOM      3  C   UNL     1      -0.613   4.028  25.029  0.00  0.00    +0.161 C 
BRANCH   3   2
ATOM      1  C   UNL     1      -1.022   5.394  24.946  0.00  0.00    +0.174 C 
ATOM      2  O   UNL     1      -0.676   4.730  24.600  0.00  0.00    -0.350 OA
ENDBRANCH   3   2
ENDBRANCH   4   3
ENDBRANCH   5   4
ENDBRANCH   6   5
TORSDOF 7
ENDMDL
