MODEL 1
REMARK VINA RESULT:     -11.8      0.000      0.000
REMARK  Name = 
REMARK  8 active torsions:
REMARK  status: ('A' for Active; 'I' for Inactive)
REMARK    1  A    between atoms: C_2  and  C_4
REMARK    2  A    between atoms: C_4  and  C_5
REMARK    3  A    between atoms: C_4  and  N_12
REMARK    4  A    between atoms: C_5  and  C_6
REMARK    5  A    between atoms: C_13  and  C_15
REMARK    6  A    between atoms: N_20  and  S_21
REMARK    7  A    between atoms: S_21  and  C_24
REMARK    8  A    between atoms: C_30  and  C_32
REMARK                            x       y       z     vdW  Elec       q    Type
REMARK                         _______ _______ _______ _____ _____    ______ ____
ROOT
ATOM     15  C   UNL     1      -2.024   1.024  24.562  0.00  0.00    +0.177 C 
ATOM     16  C   UNL     1      -2.824   1.088  24.751  0.00  0.00    +0.121 C 
ATOM     17  N   UNL     1      -3.175   1.832  24.811  0.00  0.00    -0.273 N 
ATOM     18  C   UNL     1      -2.726   2.512  24.683  0.00  0.00    +0.113 C 
ATOM     19  C   UNL     1      -1.926   2.448  24.494  0.00  0.00    +0.118 C 
ATOM     20  N   UNL     1      -1.574   1.704  24.434  0.00  0.00    -0.145 NA
ATOM     30  C   UNL     1      -3.975   1.896  25.000  0.00  0.00    +0.251 C 
ATOM     31  O   UNL     1      -4.425   1.216  25.128  0.00  0.00    -0.270 OA
ENDROOT
BRANCH  30  32
ATOM     32  C   UNL     1      -4.327   2.641  25.060  0.00  0.00    +0.073 A 
ATOM     33  C   UNL     1      -4.572   3.037  24.379  0.00  0.00    +0.103 A 
ATOM     34  N   UNL     1      -4.923   3.781  24.439  0.00  0.00    -0.242 NA
ATOM     35  C   UNL     1      -5.030   4.128  25.181  0.00  0.00    +0.099 A 
ATOM     36  C   UNL     1      -4.786   3.731  25.861  0.00  0.00    +0.021 A 
ATOM     37  C   UNL     1      -4.434   2.987  25.801  0.00  0.00    +0.008 A 
ENDBRANCH  30  32
BRANCH  15  13
ATOM     12  N   UNL     1      -1.939  -0.342  24.975  0.00  0.00    -0.197 NA
ATOM     13  C   UNL     1      -1.672   0.281  24.502  0.00  0.00    +0.260 C 
ATOM     14  O   UNL     1      -1.055   0.158  23.969  0.00  0.00    -0.272 OA
BRANCH  12   4
ATOM      4  C   UNL     1      -1.587  -1.086  24.914  0.00  0.00    +0.174 C 
BRANCH   4   2
ATOM      1  N   UNL     1      -0.313  -1.674  25.183  0.00  0.00    -0.086 NA
ATOM      2  C   UNL     1      -1.002  -1.310  25.451  0.00  0.00    +0.281 C 
ATOM      3  O   UNL     1      -1.107  -1.168  26.258  0.00  0.00    -0.270 OA
ENDBRANCH   4   2
BRANCH   4   5
ATOM      5  C   UNL     1      -1.821  -1.604  24.318  0.00  0.00    +0.031 C 
BRANCH   5   6
ATOM      6  C   UNL     1      -2.532  -2.019  24.386  0.00  0.00    +0.002 C 
ATOM      7  C   UNL     1      -3.171  -1.824  23.901  0.00  0.00    +0.000 C 
ATOM      8  C   UNL     1      -3.881  -2.238  23.969  0.00  0.00    +0.000 C 
ATOM      9  C   UNL     1      -3.954  -2.846  24.523  0.00  0.00    +0.000 C 
ATOM     10  C   UNL     1      -3.315  -3.039  25.008  0.00  0.00    +0.000 C 
ATOM     11  C   UNL     1      -2.604  -2.626  24.939  0.00  0.00    +0.000 C 
ENDBRANCH   5   6
ENDBRANCH   4   5
ENDBRANCH  12   4
ENDBRANCH  15  13
BRANCH  20  21
ATOM     21  S   UNL     1      -0.774   1.640  24.245  0.00  0.00    +0.064 S 
ATOM     22  O   UNL     1       0.027   1.576  24.058  0.00  0.00    -0.153 OA
ATOM     23  O   UNL     1      -0.958   1.113  23.639  0.00  0.00    -0.153 OA
BRANCH  21  24
ATOM     24  C   UNL     1      -0.589   2.168  24.853  0.00  0.00    +0.122 A 
ATOM     25  C   UNL     1      -0.606   2.980  24.711  0.00  0.00    +0.020 A 
ATOM     26  C   UNL     1      -0.421   3.508  25.319  0.00  0.00    +0.001 A 
ATOM     27  C   UNL     1      -0.219   3.223  26.066  0.00  0.00    +0.000 A 
ATOM     28  C   UNL     1      -0.201   2.410  26.206  0.00  0.00    +0.001 A 
ATOM     29  C   UNL     1      -0.386   1.883  25.600  0.00  0.00    +0.020 A 
ENDBRANCH  21  24
ENDBRANCH  20  21
TORSDOF 8
ENDMDL
MODEL 2
REMARK VINA RESULT:     -11.1      1.678      4.859
REMARK  Name = 
REMARK  8 active torsions:
REMARK  status: ('A' for Active; 'I' for Inactive)
REMARK    1  A    between atoms: C_2  and  C_4
REMARK    2  A    between atoms: C_4  and  C_5
REMARK    3  A    between atoms: C_4  and  N_12
REMARK    4  A    between atoms: C_5  and  C_6
REMARK    5  A    between atoms: C_13  and  C_15
REMARK    6  A    between atoms: N_20  and  S_21
REMARK    7  A    between atoms: S_21  and  C_24
REMARK    8  A    between atoms: C_30  and  C_32
REMARK                            x       y       z     vdW  Elec       q    Type
REMARK                         _______ _______ _______ _____ _____    ______ ____
ROOT
ATOM     15  C   UNL     1      -3.361   1.879  24.646  0.00  0.00    +0.177 C 
ATOM     16  C   UNL     1      -2.935   1.186  24.779  0.00  0.00    +0.121 C 
ATOM     17  N   UNL     1      -3.311   0.453  24.728  0.00  0.00    -0.273 N 
ATOM     18  C   UNL     1      -4.113   0.414  24.542  0.00  0.00    +0.113 C 
ATOM     19  C   UNL     1      -4.541   1.106  24.408  0.00  0.00    +0.118 C 
ATOM     20  N   UNL     1      -4.165   1.839  24.460  0.00  0.00    -0.145 NA
ATOM     30  C   UNL     1      -2.884  -0.239  24.862  0.00  0.00    +0.251 C 
ATOM     31  O   UNL     1      -2.081  -0.201  25.047  0.00  0.00    -0.270 OA
ENDROOT
BRANCH  30  32
ATOM     32  C   UNL     1      -3.260  -0.973  24.810  0.00  0.00    +0.073 A 
ATOM     33  C   UNL     1      -3.435  -1.395  25.497  0.00  0.00    +0.103 A 
ATOM     34  N   UNL     1      -3.811  -2.128  25.445  0.00  0.00    -0.242 NA
ATOM     35  C   UNL     1      -4.012  -2.438  24.707  0.00  0.00    +0.099 A 
ATOM     36  C   UNL     1      -3.836  -2.015  24.021  0.00  0.00    +0.021 A 
ATOM     37  C   UNL     1      -3.460  -1.282  24.073  0.00  0.00    +0.008 A 
ENDBRANCH  30  32
BRANCH  15  13
ATOM     12  N   UNL     1      -2.439   2.752  25.299  0.00  0.00    -0.197 NA
ATOM     13  C   UNL     1      -2.986   2.610  24.697  0.00  0.00    +0.260 C 
ATOM     14  O   UNL     1      -3.156   3.202  24.148  0.00  0.00    -0.272 OA
BRANCH  12   4
ATOM      4  C   UNL     1      -2.063   3.485  25.351  0.00  0.00    +0.174 C 
BRANCH   4   2
ATOM      1  N   UNL     1      -2.427   4.851  25.561  0.00  0.00    -0.086 NA
ATOM      2  C   UNL     1      -2.376   4.075  25.836  0.00  0.00    +0.281 C 
ATOM      3  O   UNL     1      -2.637   3.888  26.596  0.00  0.00    -0.270 OA
ENDBRANCH   4   2
BRANCH   4   5
ATOM      5  C   UNL     1      -1.376   3.627  24.918  0.00  0.00    +0.031 C 
BRANCH   5   6
ATOM      6  C   UNL     1      -0.695   3.184  25.069  0.00  0.00    +0.002 C 
ATOM      7  C   UNL     1      -0.272   2.853  24.442  0.00  0.00    +0.000 C 
ATOM      8  C   UNL     1       0.408   2.411  24.592  0.00  0.00    +0.000 C 
ATOM      9  C   UNL     1       0.666   2.300  25.369  0.00  0.00    +0.000 C 
ATOM     10  C   UNL     1       0.242   2.632  25.994  0.00  0.00    +0.000 C 
ATOM     11  C   UNL     1      -0.438   3.074  25.844  0.00  0.00    +0.000 C 
ENDBRANCH   5   6
ENDBRANCH   4   5
ENDBRANCH  12   4
ENDBRANCH  15  13
BRANCH  20  21
ATOM     21  S   UNL     1      -4.591   2.532  24.326  0.00  0.00    +0.064 S 
ATOM     22  O   UNL     1      -5.019   3.226  24.193  0.00  0.00    -0.153 OA
ATOM     23  O   UNL     1      -4.020   2.780  23.785  0.00  0.00    -0.153 OA
BRANCH  21  24
ATOM     24  C   UNL     1      -5.163   2.285  24.868  0.00  0.00    +0.122 A 
ATOM     25  C   UNL     1      -5.770   1.782  24.624  0.00  0.00    +0.020 A 
ATOM     26  C   UNL     1      -6.342   1.534  25.166  0.00  0.00    +0.001 A 
ATOM     27  C   UNL     1      -6.306   1.789  25.950  0.00  0.00    +0.000 A 
ATOM     28  C   UNL     1      -5.698   2.292  26.192  0.00  0.00    +0.001 A 
ATOM     29  C   UNL     1      -5.127   2.540  25.651  0.00  0.00    +0.020 A 
ENDBRANCH  21  24
ENDBRANCH  20  21
TORSDOF 8
ENDMDL
MODEL 3
REMARK VINA RESULT:     -10.8      1.482      4.465
REMARK  Name = 
REMARK  8 active torsions:
REMARK  status: ('A' for Active; 'I' for Inactive)
REMARK    1  A    between atoms: C_2  and  C_4
REMARK    2  A    between atoms: C_4  and  C_5
REMARK    3  A    between atoms: C_4  and  N_12
REMARK    4  A    between atoms: C_5  and  C_6
REMARK    5  A    between atoms: C_13  and  C_15
REMARK    6  A    between atoms: N_20  and  S_21
REMARK    7  A    between atoms: S_21  and  C_24
REMARK    8  A    between atoms: C_30  and  C_32
REMARK                            x       y       z     vdW  Elec       q    Type
REMARK                         _______ _______ _______ _____ _____    ______ ____
ROOT
ATOM     15  C   UNL     1      -2.326   0.887  25.083  0.00  0.00    +0.177 C 
ATOM     16  C   UNL     1      -3.016   0.450  24.966  0.00  0.00    +0.121 C 
ATOM     17  N   UNL     1      -2.977  -0.371  24.893  0.00  0.00    -0.273 N 
ATOM     18  C   UNL     1      -2.248  -0.755  24.936  0.00  0.00    +0.113 C 
ATOM     19  C   UNL     1      -1.558  -0.318  25.053  0.00  0.00    +0.118 C 
ATOM     20  N   UNL     1      -1.597   0.503  25.126  0.00  0.00    -0.145 NA
ATOM     30  C   UNL     1      -3.666  -0.808  24.776  0.00  0.00    +0.251 C 
ATOM     31  O   UNL     1      -4.396  -0.424  24.732  0.00  0.00    -0.270 OA
ENDROOT
BRANCH  30  32
ATOM     32  C   UNL     1      -3.627  -1.630  24.703  0.00  0.00    +0.073 A 
ATOM     33  C   UNL     1      -3.499  -2.097  25.371  0.00  0.00    +0.103 A 
ATOM     34  N   UNL     1      -3.460  -2.918  25.297  0.00  0.00    -0.242 NA
ATOM     35  C   UNL     1      -3.549  -3.271  24.557  0.00  0.00    +0.099 A 
ATOM     36  C   UNL     1      -3.678  -2.803  23.890  0.00  0.00    +0.021 A 
ATOM     37  C   UNL     1      -3.717  -1.982  23.963  0.00  0.00    +0.008 A 
ENDBRANCH  30  32
BRANCH  15  13
ATOM     12  N   UNL     1      -2.983   2.124  24.800  0.00  0.00    -0.197 NA
ATOM     13  C   UNL     1      -2.365   1.707  25.156  0.00  0.00    +0.260 C 
ATOM     14  O   UNL     1      -1.788   2.111  25.584  0.00  0.00    -0.272 OA
BRANCH  12   4
ATOM      4  C   UNL     1      -3.022   2.945  24.873  0.00  0.00    +0.174 C 
BRANCH   4   2
ATOM      1  N   UNL     1      -2.206   4.052  24.483  0.00  0.00    -0.086 NA
ATOM      2  C   UNL     1      -2.705   3.427  24.283  0.00  0.00    +0.281 C 
ATOM      3  O   UNL     1      -2.889   3.282  23.491  0.00  0.00    -0.270 OA
ENDBRANCH   4   2
BRANCH   4   5
ATOM      5  C   UNL     1      -3.377   3.283  25.536  0.00  0.00    +0.031 C 
BRANCH   5   6
ATOM      6  C   UNL     1      -4.196   3.387  25.558  0.00  0.00    +0.002 C 
ATOM      7  C   UNL     1      -4.524   4.115  25.350  0.00  0.00    +0.000 C 
ATOM      8  C   UNL     1      -5.343   4.219  25.372  0.00  0.00    +0.000 C 
ATOM      9  C   UNL     1      -5.832   3.595  25.602  0.00  0.00    +0.000 C 
ATOM     10  C   UNL     1      -5.502   2.868  25.809  0.00  0.00    +0.000 C 
ATOM     11  C   UNL     1      -4.684   2.764  25.787  0.00  0.00    +0.000 C 
ENDBRANCH   5   6
ENDBRANCH   4   5
ENDBRANCH  12   4
ENDBRANCH  15  13
BRANCH  20  21
ATOM     21  S   UNL     1      -0.907   0.940  25.243  0.00  0.00    +0.064 S 
ATOM     22  O   UNL     1      -0.217   1.377  25.359  0.00  0.00    -0.153 OA
ATOM     23  O   UNL     1      -1.253   1.312  25.893  0.00  0.00    -0.153 OA
BRANCH  21  24
ATOM     24  C   UNL     1      -0.561   0.567  24.593  0.00  0.00    +0.122 A 
ATOM     25  C   UNL     1      -0.228  -0.182  24.677  0.00  0.00    +0.020 A 
ATOM     26  C   UNL     1       0.118  -0.555  24.026  0.00  0.00    +0.001 A 
ATOM     27  C   UNL     1       0.130  -0.178  23.293  0.00  0.00    +0.000 A 
ATOM     28  C   UNL     1      -0.204   0.572  23.210  0.00  0.00    +0.001 A 
ATOM     29  C   UNL     1      -0.549   0.945  23.859  0.00  0.00    +0.020 A 
ENDBRANCH  21  24
ENDBRANCH  20  21
TORSDOF 8
ENDMDL
MODEL 4
REMARK VINA RESULT:     -10.6      1.533      3.215
REMARK  Name = 
REMARK  8 active torsions:
REMARK  status: ('A' for Active; 'I' for Inactive)
REMARK    1  A    between atoms: C_2  and  C_4
REMARK    2  A    between atoms: C_4  and  C_5
REMARK    3  A    between atoms: C_4  and  N_12
REMARK    4  A    between atoms: C_5  and  C_6
REMARK    5  A    between atoms: C_13  and  C_15
REMARK    6  A    between atoms: N_20  and  S_21
REMARK    7  A    between atoms: S_21  and  C_24
REMARK    8  A    between atoms: C_30  and  C_32
REMARK                            x       y       z     vdW  Elec       q    Type
REMARK                         _______ _______ _______ _____ _____    ______ ____
ROOT
ATOM     15  C   UNL     1      -3.064   1.368  24.611  0.00  0.00    +0.177 C 
ATOM     16  C   UNL     1      -2.341   1.697  24.835  0.00  0.00    +0.121 C 
ATOM     17  N   UNL     1      -2.252   2.516  24.868  0.00  0.00    -0.273 N 
ATOM     18  C   UNL     1      -2.887   3.007  24.679  0.00  0.00    +0.113 C 
ATOM     19  C   UNL     1      -3.611   2.680  24.455  0.00  0.00    +0.118 C 
ATOM     20  N   UNL     1      -3.699   1.861  24.421  0.00  0.00    -0.145 NA
ATOM     30  C   UNL     1      -1.530   2.844  25.091  0.00  0.00    +0.251 C 
ATOM     31  O   UNL     1      -0.894   2.353  25.281  0.00  0.00    -0.270 OA
ENDROOT
BRANCH  30  32
ATOM     32  C   UNL     1      -1.441   3.664  25.125  0.00  0.00    +0.073 A 
ATOM     33  C   UNL     1      -1.839   4.098  25.703  0.00  0.00    +0.103 A 
ATOM     34  N   UNL     1      -1.751   4.918  25.737  0.00  0.00    -0.242 NA
ATOM     35  C   UNL     1      -1.264   5.303  25.192  0.00  0.00    +0.099 A 
ATOM     36  C   UNL     1      -0.866   4.868  24.615  0.00  0.00    +0.021 A 
ATOM     37  C   UNL     1      -0.955   4.049  24.582  0.00  0.00    +0.008 A 
ENDBRANCH  30  32
BRANCH  15  13
ATOM     12  N   UNL     1      -2.795   0.072  25.148  0.00  0.00    -0.197 NA
ATOM     13  C   UNL     1      -3.152   0.550  24.578  0.00  0.00    +0.260 C 
ATOM     14  O   UNL     1      -3.598   0.207  23.974  0.00  0.00    -0.272 OA
BRANCH  12   4
ATOM      4  C   UNL     1      -2.883  -0.748  25.114  0.00  0.00    +0.174 C 
BRANCH   4   2
ATOM      1  N   UNL     1      -3.938  -1.678  25.366  0.00  0.00    -0.086 NA
ATOM      2  C   UNL     1      -3.389  -1.129  25.643  0.00  0.00    +0.281 C 
ATOM      3  O   UNL     1      -3.345  -0.961  26.450  0.00  0.00    -0.270 OA
ENDBRANCH   4   2
BRANCH   4   5
ATOM      5  C   UNL     1      -2.466  -1.184  24.553  0.00  0.00    +0.031 C 
BRANCH   5   6
ATOM      6  C   UNL     1      -1.737  -1.518  24.749  0.00  0.00    +0.002 C 
ATOM      7  C   UNL     1      -1.631  -2.335  24.699  0.00  0.00    +0.000 C 
ATOM      8  C   UNL     1      -0.902  -2.669  24.894  0.00  0.00    +0.000 C 
ATOM      9  C   UNL     1      -0.279  -2.185  25.139  0.00  0.00    +0.000 C 
ATOM     10  C   UNL     1      -0.386  -1.369  25.188  0.00  0.00    +0.000 C 
ATOM     11  C   UNL     1      -1.115  -1.035  24.993  0.00  0.00    +0.000 C 
ENDBRANCH   5   6
ENDBRANCH   4   5
ENDBRANCH  12   4
ENDBRANCH  15  13
BRANCH  20  21
ATOM     21  S   UNL     1      -4.422   1.532  24.198  0.00  0.00    +0.064 S 
ATOM     22  O   UNL     1      -5.146   1.204  23.976  0.00  0.00    -0.153 OA
ATOM     23  O   UNL     1      -4.037   1.058  23.645  0.00  0.00    -0.153 OA
BRANCH  21  24
ATOM     24  C   UNL     1      -4.808   2.007  24.752  0.00  0.00    +0.122 A 
ATOM     25  C   UNL     1      -4.976   2.795  24.574  0.00  0.00    +0.020 A 
ATOM     26  C   UNL     1      -5.362   3.269  25.128  0.00  0.00    +0.001 A 
ATOM     27  C   UNL     1      -5.580   2.956  25.859  0.00  0.00    +0.000 A 
ATOM     28  C   UNL     1      -5.412   2.168  26.037  0.00  0.00    +0.001 A 
ATOM     29  C   UNL     1      -5.026   1.694  25.484  0.00  0.00    +0.020 A 
ENDBRANCH  21  24
ENDBRANCH  20  21
TORSDOF 8
ENDMDL
MODEL 5
REMARK VINA RESULT:     -10.5      1.329      4.181
REMARK  Name = 
REMARK  8 active torsions:
REMARK  status: ('A' for Active; 'I' for Inactive)
REMARK    1  A    between atoms: C_2  and  C_4
REMARK    2  A    between atoms: C_4  and  C_5
REMARK    3  A    between atoms: C_4  and  N_12
REMARK    4  A    between atoms: C_5  and  C_6
REMARK    5  A    between atoms: C_13  and  C_15
REMARK    6  A    between atoms: N_20  and  S_21
REMARK    7  A    between atoms: S_21  and  C_24
REMARK    8  A    between atoms: C_30  and  C_32
REMARK                            x       y       z     vdW  Elec       q    Type
REMARK                         _______ _______ _______ _____ _____    ______ ____
ROOT
ATOM     15  C   UNL     1      -2.515   1.607  24.460  0.00  0.00    +0.177 C 
ATOM     16  C   UNL     1      -2.786   0.878  24.736  0.00  0.00    +0.121 C 
ATOM     17  N   UNL     1      -2.296   0.216  24.704  0.00  0.00    -0.273 N 
ATOM     18  C   UNL     1      -1.535   0.281  24.395  0.00  0.00    +0.113 C 
ATOM     19  C   UNL     1      -1.262   1.009  24.117  0.00  0.00    +0.118 C 
ATOM     20  N   UNL     1      -1.753   1.672  24.150  0.00  0.00    -0.145 NA
ATOM     30  C   UNL     1      -2.568  -0.512  24.981  0.00  0.00    +0.251 C 
ATOM     31  O   UNL     1      -3.330  -0.578  25.291  0.00  0.00    -0.270 OA
ENDROOT
BRANCH  30  32
ATOM     32  C   UNL     1      -2.077  -1.175  24.948  0.00  0.00    +0.073 A 
ATOM     33  C   UNL     1      -2.204  -1.754  24.375  0.00  0.00    +0.103 A 
ATOM     34  N   UNL     1      -1.714  -2.417  24.342  0.00  0.00    -0.242 NA
ATOM     35  C   UNL     1      -1.096  -2.501  24.883  0.00  0.00    +0.099 A 
ATOM     36  C   UNL     1      -0.970  -1.921  25.457  0.00  0.00    +0.021 A 
ATOM     37  C   UNL     1      -1.460  -1.258  25.489  0.00  0.00    +0.008 A 
ENDBRANCH  30  32
BRANCH  15  13
ATOM     12  N   UNL     1      -3.470   2.406  25.160  0.00  0.00    -0.197 NA
ATOM     13  C   UNL     1      -3.005   2.268  24.492  0.00  0.00    +0.260 C 
ATOM     14  O   UNL     1      -3.031   2.795  23.857  0.00  0.00    -0.272 OA
BRANCH  12   4
ATOM      4  C   UNL     1      -3.961   3.068  25.193  0.00  0.00    +0.174 C 
BRANCH   4   2
ATOM      1  N   UNL     1      -3.767   4.484  25.227  0.00  0.00    -0.086 NA
ATOM      2  C   UNL     1      -3.711   3.746  25.591  0.00  0.00    +0.281 C 
ATOM      3  O   UNL     1      -3.405   3.686  26.356  0.00  0.00    -0.270 OA
ENDBRANCH   4   2
BRANCH   4   5
ATOM      5  C   UNL     1      -4.699   3.053  24.827  0.00  0.00    +0.031 C 
BRANCH   5   6
ATOM      6  C   UNL     1      -5.319   2.624  25.166  0.00  0.00    +0.002 C 
ATOM      7  C   UNL     1      -5.722   2.059  24.719  0.00  0.00    +0.000 C 
ATOM      8  C   UNL     1      -6.341   1.632  25.058  0.00  0.00    +0.000 C 
ATOM      9  C   UNL     1      -6.557   1.769  25.843  0.00  0.00    +0.000 C 
ATOM     10  C   UNL     1      -6.153   2.334  26.288  0.00  0.00    +0.000 C 
ATOM     11  C   UNL     1      -5.534   2.762  25.949  0.00  0.00    +0.000 C 
ENDBRANCH   5   6
ENDBRANCH   4   5
ENDBRANCH  12   4
ENDBRANCH  15  13
BRANCH  20  21
ATOM     21  S   UNL     1      -1.482   2.400  23.873  0.00  0.00    +0.064 S 
ATOM     22  O   UNL     1      -1.210   3.129  23.597  0.00  0.00    -0.153 OA
ATOM     23  O   UNL     1      -2.147   2.465  23.390  0.00  0.00    -0.153 OA
BRANCH  21  24
ATOM     24  C   UNL     1      -0.816   2.336  24.357  0.00  0.00    +0.122 A 
ATOM     25  C   UNL     1      -0.141   1.952  24.079  0.00  0.00    +0.020 A 
ATOM     26  C   UNL     1       0.525   1.888  24.563  0.00  0.00    +0.001 A 
ATOM     27  C   UNL     1       0.515   2.207  25.324  0.00  0.00    +0.000 A 
ATOM     28  C   UNL     1      -0.161   2.591  25.600  0.00  0.00    +0.001 A 
ATOM     29  C   UNL     1      -0.826   2.655  25.117  0.00  0.00    +0.020 A 
ENDBRANCH  21  24
ENDBRANCH  20  21
TORSDOF 8
ENDMDL
MODEL 6
REMARK VINA RESULT:     -10.3      1.371      4.041
REMARK  Name = 
REMARK  8 active torsions:
REMARK  status: ('A' for Active; 'I' for Inactive)
REMARK    1  A    between atoms: C_2  and  C_4
REMARK    2  A    between atoms: C_4  and  C_5
REMARK    3  A    between atoms: C_4  and  N_12
REMARK    4  A    between atoms: C_5  and  C_6
REMARK    5  A    between atoms: C_13  and  C_15
REMARK    6  A    between atoms: N_20  and  S_21
REMARK    7  A    between atoms: S_21  and  C_24
REMARK    8  A    between atoms: C_30  and  C_32
REMARK                            x       y       z     vdW  Elec       q    Type
REMARK                         _______ _______ _______ _____ _____    ______ ____
ROOT
ATOM     15  C   UNL     1      -2.604   0.569  25.064  0.00  0.00    +0.177 C 
ATOM     16  C   UNL     1      -3.048   1.261  24.996  0.00  0.00    +0.121 C 
ATOM     17  N   UNL     1      -3.863   1.243  25.121  0.00  0.00    -0.273 N 
ATOM     18  C   UNL     1      -4.235   0.533  25.313  0.00  0.00    +0.113 C 
ATOM     19  C   UNL     1      -3.792  -0.160  25.381  0.00  0.00    +0.118 C 
ATOM     20  N   UNL     1      -2.977  -0.142  25.256  0.00  0.00    -0.145 NA
ATOM     30  C   UNL     1      -4.306   1.935  25.053  0.00  0.00    +0.251 C 
ATOM     31  O   UNL     1      -3.934   2.646  24.861  0.00  0.00    -0.270 OA
ENDROOT
BRANCH  30  32
ATOM     32  C   UNL     1      -5.122   1.917  25.178  0.00  0.00    +0.073 A 
ATOM     33  C   UNL     1      -5.430   2.109  25.919  0.00  0.00    +0.103 A 
ATOM     34  N   UNL     1      -6.245   2.091  26.044  0.00  0.00    -0.242 NA
ATOM     35  C   UNL     1      -6.753   1.881  25.427  0.00  0.00    +0.099 A 
ATOM     36  C   UNL     1      -6.444   1.689  24.687  0.00  0.00    +0.021 A 
ATOM     37  C   UNL     1      -5.628   1.707  24.562  0.00  0.00    +0.008 A 
ENDBRANCH  30  32
BRANCH  15  13
ATOM     12  N   UNL     1      -1.461   1.154  24.438  0.00  0.00    -0.197 NA
ATOM     13  C   UNL     1      -1.790   0.587  24.940  0.00  0.00    +0.260 C 
ATOM     14  O   UNL     1      -1.302   0.039  25.316  0.00  0.00    -0.272 OA
BRANCH  12   4
ATOM      4  C   UNL     1      -0.646   1.173  24.313  0.00  0.00    +0.174 C 
BRANCH   4   2
ATOM      1  N   UNL     1       0.355   0.295  23.792  0.00  0.00    -0.086 NA
ATOM      2  C   UNL     1      -0.317   0.760  23.679  0.00  0.00    +0.281 C 
ATOM      3  O   UNL     1      -0.661   0.813  22.929  0.00  0.00    -0.270 OA
ENDBRANCH   4   2
BRANCH   4   5
ATOM      5  C   UNL     1      -0.161   1.602  24.822  0.00  0.00    +0.031 C 
BRANCH   5   6
ATOM      6  C   UNL     1      -0.233   2.424  24.866  0.00  0.00    +0.002 C 
ATOM      7  C   UNL     1      -0.327   2.791  25.599  0.00  0.00    +0.000 C 
ATOM      8  C   UNL     1      -0.399   3.612  25.643  0.00  0.00    +0.000 C 
ATOM      9  C   UNL     1      -0.378   4.065  24.953  0.00  0.00    +0.000 C 
ATOM     10  C   UNL     1      -0.285   3.697  24.221  0.00  0.00    +0.000 C 
ATOM     11  C   UNL     1      -0.212   2.877  24.177  0.00  0.00    +0.000 C 
ENDBRANCH   5   6
ENDBRANCH   4   5
ENDBRANCH  12   4
ENDBRANCH  15  13
BRANCH  20  21
ATOM     21  S   UNL     1      -2.533  -0.834  25.324  0.00  0.00    +0.064 S 
ATOM     22  O   UNL     1      -2.090  -1.528  25.391  0.00  0.00    -0.153 OA
ATOM     23  O   UNL     1      -1.997  -0.444  25.813  0.00  0.00    -0.153 OA
BRANCH  21  24
ATOM     24  C   UNL     1      -3.071  -1.226  24.834  0.00  0.00    +0.122 A 
ATOM     25  C   UNL     1      -3.661  -1.698  25.165  0.00  0.00    +0.020 A 
ATOM     26  C   UNL     1      -4.198  -2.089  24.675  0.00  0.00    +0.001 A 
ATOM     27  C   UNL     1      -4.145  -2.009  23.856  0.00  0.00    +0.000 A 
ATOM     28  C   UNL     1      -3.554  -1.537  23.526  0.00  0.00    +0.001 A 
ATOM     29  C   UNL     1      -3.017  -1.145  24.015  0.00  0.00    +0.020 A 
ENDBRANCH  21  24
ENDBRANCH  20  21
TORSDOF 8
ENDMDL
MODEL 7
REMARK VINA RESULT:      -9.9      1.790      3.606
REMARK  Name = 
REMARK  8 active torsions:
REMARK  status: ('A' for Active; 'I' for Inactive)
REMARK    1  A    between atoms: C_2  and  C_4
REMARK    2  A    between atoms: C_4  and  C_5
REMARK    3  A    between atoms: C_4  and  N_12
REMARK    4  A    between atoms: C_5  and  C_6
REMARK    5  A    between atoms: C_13  and  C_15
REMARK    6  A    between atoms: N_20  and  S_21
REMARK    7  A    between atoms: S_21  and  C_24
REMARK    8  A    between atoms: C_30  and  C_32
REMARK                            x       y       z     vdW  Elec       q    Type
REMARK                         _______ _______ _______ _____ _____    ______ ____
ROOT
ATOM     15  C   UNL     1      -2.059   1.006  23.882  0.00  0.00    +0.177 C 
ATOM     16  C   UNL     1      -1.468   0.433  23.839  0.00  0.00    +0.121 C 
ATOM     17  N   UNL     1      -0.691   0.652  23.667  0.00  0.00    -0.273 N 
ATOM     18  C   UNL     1      -0.506   1.445  23.538  0.00  0.00    +0.113 C 
ATOM     19  C   UNL     1      -1.097   2.020  23.581  0.00  0.00    +0.118 C 
ATOM     20  N   UNL     1      -1.873   1.800  23.753  0.00  0.00    -0.145 NA
ATOM     30  C   UNL     1      -0.101   0.078  23.623  0.00  0.00    +0.251 C 
ATOM     31  O   UNL     1      -0.286  -0.715  23.752  0.00  0.00    -0.270 OA
ENDROOT
BRANCH  30  32
ATOM     32  C   UNL     1       0.676   0.298  23.451  0.00  0.00    +0.073 A 
ATOM     33  C   UNL     1       1.079   0.816  23.952  0.00  0.00    +0.103 A 
ATOM     34  N   UNL     1       1.855   1.035  23.779  0.00  0.00    -0.242 NA
ATOM     35  C   UNL     1       2.229   0.737  23.106  0.00  0.00    +0.099 A 
ATOM     36  C   UNL     1       1.826   0.220  22.606  0.00  0.00    +0.021 A 
ATOM     37  C   UNL     1       1.049   0.000  22.778  0.00  0.00    +0.008 A 
ENDBRANCH  30  32
BRANCH  15  13
ATOM     12  N   UNL     1      -2.982   0.169  24.582  0.00  0.00    -0.197 NA
ATOM     13  C   UNL     1      -2.834   0.787  24.055  0.00  0.00    +0.260 C 
ATOM     14  O   UNL     1      -3.464   1.184  23.700  0.00  0.00    -0.272 OA
BRANCH  12   4
ATOM      4  C   UNL     1      -3.758  -0.050  24.755  0.00  0.00    +0.174 C 
BRANCH   4   2
ATOM      1  N   UNL     1      -4.879   0.599  25.356  0.00  0.00    -0.086 NA
ATOM      2  C   UNL     1      -4.134   0.255  25.423  0.00  0.00    +0.281 C 
ATOM      3  O   UNL     1      -3.762   0.214  26.160  0.00  0.00    -0.270 OA
ENDBRANCH   4   2
BRANCH   4   5
ATOM      5  C   UNL     1      -4.158  -0.574  24.259  0.00  0.00    +0.031 C 
BRANCH   5   6
ATOM      6  C   UNL     1      -4.007  -1.385  24.307  0.00  0.00    +0.002 C 
ATOM      7  C   UNL     1      -4.227  -1.883  23.687  0.00  0.00    +0.000 C 
ATOM      8  C   UNL     1      -4.077  -2.692  23.736  0.00  0.00    +0.000 C 
ATOM      9  C   UNL     1      -3.705  -3.004  24.404  0.00  0.00    +0.000 C 
ATOM     10  C   UNL     1      -3.485  -2.506  25.023  0.00  0.00    +0.000 C 
ATOM     11  C   UNL     1      -3.636  -1.696  24.975  0.00  0.00    +0.000 C 
ENDBRANCH   5   6
ENDBRANCH   4   5
ENDBRANCH  12   4
ENDBRANCH  15  13
BRANCH  20  21
ATOM     21  S   UNL     1      -2.465   2.374  23.797  0.00  0.00    +0.064 S 
ATOM     22  O   UNL     1      -3.055   2.948  23.842  0.00  0.00    -0.153 OA
ATOM     23  O   UNL     1      -2.919   1.947  23.258  0.00  0.00    -0.153 OA
BRANCH  21  24
ATOM     24  C   UNL     1      -2.009   2.801  24.337  0.00  0.00    +0.122 A 
ATOM     25  C   UNL     1      -1.464   3.358  24.066  0.00  0.00    +0.020 A 
ATOM     26  C   UNL     1      -1.009   3.786  24.607  0.00  0.00    +0.001 A 
ATOM     27  C   UNL     1      -1.100   3.656  25.416  0.00  0.00    +0.000 A 
ATOM     28  C   UNL     1      -1.645   3.099  25.686  0.00  0.00    +0.001 A 
ATOM     29  C   UNL     1      -2.100   2.672  25.147  0.00  0.00    +0.020 A 
ENDBRANCH  21  24
ENDBRANCH  20  21
TORSDOF 8
ENDMDL
