MODEL 1
REMARK VINA RESULT:      -9.4      0.000      0.000
REMARK  Name = 
REMARK  4 active torsions:
REMARK  status: ('A' for Active; 'I' for Inactive)
REMARK    1  A    between atoms: C_4  and  C_5
REMARK    2  A    between atoms: C_5  and  N_6
REMARK    3  A    between atoms: N_6  and  C_7
REMARK    4  A    between atoms: C_13  and  C_14
REMARK                            x       y       z     vdW  Elec       q    Type
REMARK                         _______ _______ _______ _____ _____    ______ ____
ROOT
ATOM      7  C   UNL     1      -3.948   1.181  24.644  0.00  0.00    +0.110 C 
ATOM      8  C   UNL     1      -4.436   1.844  24.678  0.00  0.00    +0.198 C 
ATOM      9  O   UNL     1      -4.210   2.621  24.519  0.00  0.00    -0.219 OA
ATOM     10  C   UNL     1      -5.191   1.594  24.898  0.00  0.00    +0.184 C 
ATOM     11  O   UNL     1      -5.852   2.077  24.999  0.00  0.00    -0.220 OA
ATOM     12  C   UNL     1      -5.169   0.776  25.001  0.00  0.00    +0.041 C 
ATOM     13  C   UNL     1      -4.400   0.520  24.844  0.00  0.00    +0.045 C 
ENDROOT
BRANCH  13  14
ATOM     14  C   UNL     1      -4.132  -0.259  24.880  0.00  0.00    -0.002 A 
ATOM     15  C   UNL     1      -4.176  -0.743  24.213  0.00  0.00    -0.001 A 
ATOM     16  C   UNL     1      -3.908  -1.522  24.249  0.00  0.00    +0.020 A 
ATOM     17  C   UNL     1      -3.594  -1.817  24.953  0.00  0.00    +0.099 A 
ATOM     18  N   UNL     1      -3.550  -1.335  25.620  0.00  0.00    -0.243 NA
ATOM     19  C   UNL     1      -3.818  -0.555  25.584  0.00  0.00    +0.095 A 
ENDBRANCH  13  14
BRANCH   7   6
ATOM      6  N   UNL     1      -3.147   1.177  24.446  0.00  0.00    -0.212 NA
BRANCH   6   5
ATOM      5  C   UNL     1      -2.698   1.864  24.530  0.00  0.00    +0.118 C 
BRANCH   5   4
ATOM      1  C   UNL     1       0.156   1.969  25.059  0.00  0.00    +0.154 C 
ATOM      2  N   UNL     1      -0.568   1.886  24.672  0.00  0.00    -0.248 N 
ATOM      3  C   UNL     1      -1.314   1.966  25.015  0.00  0.00    +0.094 A 
ATOM      4  C   UNL     1      -1.879   1.837  24.429  0.00  0.00    +0.035 A 
ATOM     20  C   UNL     1      -1.483   1.678  23.723  0.00  0.00    +0.119 A 
ATOM     21  N   UNL     1      -0.673   1.708  23.873  0.00  0.00    -0.168 NA
ENDBRANCH   5   4
ENDBRANCH   6   5
ENDBRANCH   7   6
TORSDOF 4
ENDMDL
MODEL 2
REMARK VINA RESULT:      -9.3      1.025      3.343
REMARK  Name = 
REMARK  4 active torsions:
REMARK  status: ('A' for Active; 'I' for Inactive)
REMARK    1  A    between atoms: C_4  and  C_5
REMARK    2  A    between atoms: C_5  and  N_6
REMARK    3  A    between atoms: N_6  and  C_7
REMARK    4  A    between atoms: C_13  and  C_14
REMARK                            x       y       z     vdW  Elec       q    Type
REMARK                         _______ _______ _______ _____ _____    ______ ____
ROOT
ATOM      7  C   UNL     1      -4.302   1.456  24.669  0.00  0.00    +0.110 C 
ATOM      8  C   UNL     1      -4.988   1.717  25.045  0.00  0.00    +0.198 C 
ATOM      9  O   UNL     1      -5.560   1.239  25.396  0.00  0.00    -0.219 OA
ATOM     10  C   UNL     1      -5.000   2.541  25.008  0.00  0.00    +0.184 C 
ATOM     11  O   UNL     1      -5.588   3.032  25.316  0.00  0.00    -0.220 OA
ATOM     12  C   UNL     1      -4.322   2.790  24.610  0.00  0.00    +0.041 C 
ATOM     13  C   UNL     1      -3.890   2.119  24.400  0.00  0.00    +0.045 C 
ENDROOT
BRANCH  13  14
ATOM     14  C   UNL     1      -3.172   2.112  23.992  0.00  0.00    -0.002 A 
ATOM     15  C   UNL     1      -3.164   2.014  23.173  0.00  0.00    -0.001 A 
ATOM     16  C   UNL     1      -2.447   2.006  22.766  0.00  0.00    +0.020 A 
ATOM     17  C   UNL     1      -1.738   2.097  23.179  0.00  0.00    +0.099 A 
ATOM     18  N   UNL     1      -1.746   2.195  23.997  0.00  0.00    -0.243 NA
ATOM     19  C   UNL     1      -2.463   2.203  24.404  0.00  0.00    +0.095 A 
ENDBRANCH  13  14
BRANCH   7   6
ATOM      6  N   UNL     1      -4.068   0.670  24.578  0.00  0.00    -0.212 NA
BRANCH   6   5
ATOM      5  C   UNL     1      -4.305   0.103  25.128  0.00  0.00    +0.118 C 
BRANCH   5   4
ATOM      1  C   UNL     1      -3.723  -2.582  24.185  0.00  0.00    +0.154 C 
ATOM      2  N   UNL     1      -3.741  -1.900  24.649  0.00  0.00    -0.248 N 
ATOM      3  C   UNL     1      -4.139  -1.200  24.468  0.00  0.00    +0.094 A 
ATOM      4  C   UNL     1      -4.008  -0.666  25.082  0.00  0.00    +0.035 A 
ATOM     20  C   UNL     1      -3.529  -1.036  25.643  0.00  0.00    +0.119 A 
ATOM     21  N   UNL     1      -3.364  -1.798  25.376  0.00  0.00    -0.168 NA
ENDBRANCH   5   4
ENDBRANCH   6   5
ENDBRANCH   7   6
TORSDOF 4
ENDMDL
MODEL 3
REMARK VINA RESULT:      -8.8      1.752      2.048
REMARK  Name = 
REMARK  4 active torsions:
REMARK  status: ('A' for Active; 'I' for Inactive)
REMARK    1  A    between atoms: C_4  and  C_5
REMARK    2  A    between atoms: C_5  and  N_6
REMARK    3  A    between atoms: N_6  and  C_7
REMARK    4  A    between atoms: C_13  and  C_14
REMARK                            x       y       z     vdW  Elec       q    Type
REMARK                         _______ _______ _______ _____ _____    ______ ____
ROOT
ATOM      7  C   UNL     1      -4.537   2.125  25.111  0.00  0.00    +0.110 C 
ATOM      8  C   UNL     1      -5.281   2.474  25.179  0.00  0.00    +0.198 C 
ATOM      9  O   UNL     1      -5.433   3.251  25.410  0.00  0.00    -0.219 OA
ATOM     10  C   UNL     1      -5.846   1.909  24.975  0.00  0.00    +0.184 C 
ATOM     11  O   UNL     1      -6.664   2.022  24.966  0.00  0.00    -0.220 OA
ATOM     12  C   UNL     1      -5.452   1.211  24.781  0.00  0.00    +0.041 C 
ATOM     13  C   UNL     1      -4.642   1.345  24.865  0.00  0.00    +0.045 C 
ENDROOT
BRANCH  13  14
ATOM     14  C   UNL     1      -4.043   0.794  24.727  0.00  0.00    -0.002 A 
ATOM     15  C   UNL     1      -3.830   0.259  25.317  0.00  0.00    -0.001 A 
ATOM     16  C   UNL     1      -3.232  -0.291  25.180  0.00  0.00    +0.020 A 
ATOM     17  C   UNL     1      -2.845  -0.306  24.451  0.00  0.00    +0.099 A 
ATOM     18  N   UNL     1      -3.057   0.229  23.860  0.00  0.00    -0.243 NA
ATOM     19  C   UNL     1      -3.656   0.779  23.998  0.00  0.00    +0.095 A 
ENDBRANCH  13  14
BRANCH   7   6
ATOM      6  N   UNL     1      -3.814   2.492  25.262  0.00  0.00    -0.212 NA
BRANCH   6   5
ATOM      5  C   UNL     1      -3.764   3.315  25.279  0.00  0.00    +0.118 C 
BRANCH   5   4
ATOM      1  C   UNL     1      -1.277   4.781  24.957  0.00  0.00    +0.154 C 
ATOM      2  N   UNL     1      -1.900   4.356  25.292  0.00  0.00    -0.248 N 
ATOM      3  C   UNL     1      -2.565   4.074  24.894  0.00  0.00    +0.094 A 
ATOM      4  C   UNL     1      -3.042   3.683  25.441  0.00  0.00    +0.035 A 
ATOM     20  C   UNL     1      -2.673   3.723  26.177  0.00  0.00    +0.119 A 
ATOM     21  N   UNL     1      -1.967   4.139  26.086  0.00  0.00    -0.168 NA
ENDBRANCH   5   4
ENDBRANCH   6   5
ENDBRANCH   7   6
TORSDOF 4
ENDMDL
MODEL 4
REMARK VINA RESULT:      -8.8      2.561      3.464
REMARK  Name = 
REMARK  4 active torsions:
REMARK  status: ('A' for Active; 'I' for Inactive)
REMARK    1  A    between atoms: C_4  and  C_5
REMARK    2  A    between atoms: C_5  and  N_6
REMARK    3  A    between atoms: N_6  and  C_7
REMARK    4  A    between atoms: C_13  and  C_14
REMARK                            x       y       z     vdW  Elec       q    Type
REMARK                         _______ _______ _______ _____ _____    ______ ____
ROOT
ATOM      7  C   UNL     1      -1.857   3.170  25.150  0.00  0.00    +0.110 C 
ATOM      8  C   UNL     1      -1.272   3.739  25.271  0.00  0.00    +0.198 C 
ATOM      9  O   UNL     1      -0.479   3.590  25.439  0.00  0.00    -0.219 OA
ATOM     10  C   UNL     1      -1.621   4.483  25.193  0.00  0.00    +0.184 C 
ATOM     11  O   UNL     1      -1.236   5.209  25.270  0.00  0.00    -0.220 OA
ATOM     12  C   UNL     1      -2.420   4.374  25.024  0.00  0.00    +0.041 C 
ATOM     13  C   UNL     1      -2.567   3.563  24.998  0.00  0.00    +0.045 C 
ENDROOT
BRANCH  13  14
ATOM     14  C   UNL     1      -3.295   3.206  24.846  0.00  0.00    -0.002 A 
ATOM     15  C   UNL     1      -3.514   3.029  24.070  0.00  0.00    -0.001 A 
ATOM     16  C   UNL     1      -4.242   2.673  23.918  0.00  0.00    +0.020 A 
ATOM     17  C   UNL     1      -4.752   2.493  24.542  0.00  0.00    +0.099 A 
ATOM     18  N   UNL     1      -4.534   2.670  25.317  0.00  0.00    -0.243 NA
ATOM     19  C   UNL     1      -3.805   3.027  25.469  0.00  0.00    +0.095 A 
ENDBRANCH  13  14
BRANCH   7   6
ATOM      6  N   UNL     1      -1.751   2.353  25.177  0.00  0.00    -0.212 NA
BRANCH   6   5
ATOM      5  C   UNL     1      -0.993   2.032  25.120  0.00  0.00    +0.118 C 
BRANCH   5   4
ATOM      1  C   UNL     1      -0.308  -0.615  24.144  0.00  0.00    +0.154 C 
ATOM      2  N   UNL     1      -0.577  -0.002  24.626  0.00  0.00    -0.248 N 
ATOM      3  C   UNL     1      -0.574   0.801  24.436  0.00  0.00    +0.094 A 
ATOM      4  C   UNL     1      -0.893   1.214  25.074  0.00  0.00    +0.035 A 
ATOM     20  C   UNL     1      -1.093   0.668  25.658  0.00  0.00    +0.119 A 
ATOM     21  N   UNL     1      -0.898  -0.084  25.382  0.00  0.00    -0.168 NA
ENDBRANCH   5   4
ENDBRANCH   6   5
ENDBRANCH   7   6
TORSDOF 4
ENDMDL
MODEL 5
REMARK VINA RESULT:      -8.8      2.039      3.485
REMARK  Name = 
REMARK  4 active torsions:
REMARK  status: ('A' for Active; 'I' for Inactive)
REMARK    1  A    between atoms: C_4  and  C_5
REMARK    2  A    between atoms: C_5  and  N_6
REMARK    3  A    between atoms: N_6  and  C_7
REMARK    4  A    between atoms: C_13  and  C_14
REMARK                            x       y       z     vdW  Elec       q    Type
REMARK                         _______ _______ _______ _____ _____    ______ ____
ROOT
ATOM      7  C   UNL     1      -3.465  -0.884  24.474  0.00  0.00    +0.110 C 
ATOM      8  C   UNL     1      -3.993  -1.476  24.247  0.00  0.00    +0.198 C 
ATOM      9  O   UNL     1      -4.770  -1.361  23.998  0.00  0.00    -0.219 OA
ATOM     10  C   UNL     1      -3.606  -2.202  24.313  0.00  0.00    +0.184 C 
ATOM     11  O   UNL     1      -3.930  -2.941  24.141  0.00  0.00    -0.220 OA
ATOM     12  C   UNL     1      -2.839  -2.059  24.581  0.00  0.00    +0.041 C 
ATOM     13  C   UNL     1      -2.752  -1.245  24.681  0.00  0.00    +0.045 C 
ENDROOT
BRANCH  13  14
ATOM     14  C   UNL     1      -2.070  -0.859  24.941  0.00  0.00    -0.002 A 
ATOM     15  C   UNL     1      -1.927  -0.775  25.749  0.00  0.00    -0.001 A 
ATOM     16  C   UNL     1      -1.246  -0.389  26.010  0.00  0.00    +0.020 A 
ATOM     17  C   UNL     1      -0.709  -0.087  25.461  0.00  0.00    +0.099 A 
ATOM     18  N   UNL     1      -0.851  -0.170  24.654  0.00  0.00    -0.243 NA
ATOM     19  C   UNL     1      -1.533  -0.557  24.393  0.00  0.00    +0.095 A 
ENDBRANCH  13  14
BRANCH   7   6
ATOM      6  N   UNL     1      -3.621  -0.075  24.492  0.00  0.00    -0.212 NA
BRANCH   6   5
ATOM      5  C   UNL     1      -4.397   0.194  24.581  0.00  0.00    +0.118 C 
BRANCH   5   4
ATOM      1  C   UNL     1      -5.404   2.703  25.639  0.00  0.00    +0.154 C 
ATOM      2  N   UNL     1      -5.009   2.152  25.169  0.00  0.00    -0.248 N 
ATOM      3  C   UNL     1      -5.011   1.334  25.276  0.00  0.00    +0.094 A 
ATOM      4  C   UNL     1      -4.546   0.999  24.683  0.00  0.00    +0.035 A 
ATOM     20  C   UNL     1      -4.256   1.610  24.210  0.00  0.00    +0.119 A 
ATOM     21  N   UNL     1      -4.542   2.322  24.510  0.00  0.00    -0.168 NA
ENDBRANCH   5   4
ENDBRANCH   6   5
ENDBRANCH   7   6
TORSDOF 4
ENDMDL
MODEL 6
REMARK VINA RESULT:      -8.7      1.701      2.619
REMARK  Name = 
REMARK  4 active torsions:
REMARK  status: ('A' for Active; 'I' for Inactive)
REMARK    1  A    between atoms: C_4  and  C_5
REMARK    2  A    between atoms: C_5  and  N_6
REMARK    3  A    between atoms: N_6  and  C_7
REMARK    4  A    between atoms: C_13  and  C_14
REMARK                            x       y       z     vdW  Elec       q    Type
REMARK                         _______ _______ _______ _____ _____    ______ ____
ROOT
ATOM      7  C   UNL     1      -3.215  -0.249  24.625  0.00  0.00    +0.110 C 
ATOM      8  C   UNL     1      -3.149  -1.052  24.448  0.00  0.00    +0.198 C 
ATOM      9  O   UNL     1      -2.466  -1.507  24.514  0.00  0.00    -0.219 OA
ATOM     10  C   UNL     1      -3.888  -1.317  24.195  0.00  0.00    +0.184 C 
ATOM     11  O   UNL     1      -4.072  -2.087  23.962  0.00  0.00    -0.220 OA
ATOM     12  C   UNL     1      -4.410  -0.679  24.214  0.00  0.00    +0.041 C 
ATOM     13  C   UNL     1      -3.994  -0.019  24.480  0.00  0.00    +0.045 C 
ENDROOT
BRANCH  13  14
ATOM     14  C   UNL     1      -4.303   0.740  24.583  0.00  0.00    -0.002 A 
ATOM     15  C   UNL     1      -4.742   0.918  25.259  0.00  0.00    -0.001 A 
ATOM     16  C   UNL     1      -5.051   1.676  25.363  0.00  0.00    +0.020 A 
ATOM     17  C   UNL     1      -4.921   2.255  24.789  0.00  0.00    +0.099 A 
ATOM     18  N   UNL     1      -4.483   2.078  24.114  0.00  0.00    -0.243 NA
ATOM     19  C   UNL     1      -4.174   1.319  24.011  0.00  0.00    +0.095 A 
ENDBRANCH  13  14
BRANCH   7   6
ATOM      6  N   UNL     1      -2.609   0.239  24.898  0.00  0.00    -0.212 NA
BRANCH   6   5
ATOM      5  C   UNL     1      -1.822   0.050  24.736  0.00  0.00    +0.118 C 
BRANCH   5   4
ATOM      1  C   UNL     1       0.364   1.934  24.412  0.00  0.00    +0.154 C 
ATOM      2  N   UNL     1      -0.219   1.460  24.752  0.00  0.00    -0.248 N 
ATOM      3  C   UNL     1      -0.735   0.961  24.346  0.00  0.00    +0.094 A 
ATOM      4  C   UNL     1      -1.224   0.594  24.901  0.00  0.00    +0.035 A 
ATOM     20  C   UNL     1      -1.009   0.867  25.649  0.00  0.00    +0.119 A 
ATOM     21  N   UNL     1      -0.388   1.402  25.558  0.00  0.00    -0.168 NA
ENDBRANCH   5   4
ENDBRANCH   6   5
ENDBRANCH   7   6
TORSDOF 4
ENDMDL
MODEL 7
REMARK VINA RESULT:      -8.7      1.780      3.149
REMARK  Name = 
REMARK  4 active torsions:
REMARK  status: ('A' for Active; 'I' for Inactive)
REMARK    1  A    between atoms: C_4  and  C_5
REMARK    2  A    between atoms: C_5  and  N_6
REMARK    3  A    between atoms: N_6  and  C_7
REMARK    4  A    between atoms: C_13  and  C_14
REMARK                            x       y       z     vdW  Elec       q    Type
REMARK                         _______ _______ _______ _____ _____    ______ ____
ROOT
ATOM      7  C   UNL     1      -4.060   1.903  24.914  0.00  0.00    +0.110 C 
ATOM      8  C   UNL     1      -4.802   1.546  24.857  0.00  0.00    +0.198 C 
ATOM      9  O   UNL     1      -4.945   0.753  24.688  0.00  0.00    -0.219 OA
ATOM     10  C   UNL     1      -5.373   2.124  25.000  0.00  0.00    +0.184 C 
ATOM     11  O   UNL     1      -6.190   2.008  24.997  0.00  0.00    -0.220 OA
ATOM     12  C   UNL     1      -4.985   2.837  25.145  0.00  0.00    +0.041 C 
ATOM     13  C   UNL     1      -4.174   2.701  25.092  0.00  0.00    +0.045 C 
ENDROOT
BRANCH  13  14
ATOM     14  C   UNL     1      -3.579   3.264  25.199  0.00  0.00    -0.002 A 
ATOM     15  C   UNL     1      -3.321   3.453  25.959  0.00  0.00    -0.001 A 
ATOM     16  C   UNL     1      -2.728   4.015  26.066  0.00  0.00    +0.020 A 
ATOM     17  C   UNL     1      -2.392   4.388  25.411  0.00  0.00    +0.099 A 
ATOM     18  N   UNL     1      -2.649   4.200  24.651  0.00  0.00    -0.243 NA
ATOM     19  C   UNL     1      -3.243   3.637  24.545  0.00  0.00    +0.095 A 
ENDBRANCH  13  14
BRANCH   7   6
ATOM      6  N   UNL     1      -3.332   1.528  24.812  0.00  0.00    -0.212 NA
BRANCH   6   5
ATOM      5  C   UNL     1      -3.284   0.705  24.844  0.00  0.00    +0.118 C 
BRANCH   5   4
ATOM      1  C   UNL     1      -0.973  -0.914  25.529  0.00  0.00    +0.154 C 
ATOM      2  N   UNL     1      -1.486  -0.411  25.124  0.00  0.00    -0.248 N 
ATOM      3  C   UNL     1      -2.228  -0.164  25.385  0.00  0.00    +0.094 A 
ATOM      4  C   UNL     1      -2.548   0.333  24.809  0.00  0.00    +0.035 A 
ATOM     20  C   UNL     1      -2.003   0.392  24.192  0.00  0.00    +0.119 A 
ATOM     21  N   UNL     1      -1.347  -0.068  24.387  0.00  0.00    -0.168 NA
ENDBRANCH   5   4
ENDBRANCH   6   5
ENDBRANCH   7   6
TORSDOF 4
ENDMDL
