MODEL 1
REMARK VINA RESULT:     -12.1      0.000      0.000
REMARK  Name = 
REMARK  8 active torsions:
REMARK  status: ('A' for Active; 'I' for Inactive)
REMARK    1  A    between atoms: N_2  and  C_3
REMARK    2  A    between atoms: C_3  and  C_4
REMARK    3  A    between atoms: C_10  and  C_12
REMARK    4  A    between atoms: C_12  and  C_13
REMARK    5  A    between atoms: C_15  and  C_16
REMARK    6  A    between atoms: C_16  and  N_17
REMARK    7  A    between atoms: N_17  and  S_18
REMARK    8  A    between atoms: S_18  and  C_21
REMARK                            x       y       z     vdW  Elec       q    Type
REMARK                         _______ _______ _______ _____ _____    ______ ____
ROOT
ATOM     13  C   UNL     1      -4.830   2.800  25.200  0.00  0.00    +0.157 C 
ATOM     14  O   UNL     1      -4.458   2.075  25.075  0.00  0.00    -0.351 OA
ATOM     15  C   UNL     1      -5.028   1.483  25.136  0.00  0.00    +0.167 C 
ATOM     27  C   UNL     1      -5.753   1.842  25.298  0.00  0.00    +0.213 C 
ATOM     28  O   UNL     1      -6.474   1.455  25.403  0.00  0.00    -0.218 OA
ATOM     29  C   UNL     1      -5.630   2.656  25.337  0.00  0.00    +0.212 C 
ATOM     30  O   UNL     1      -6.207   3.227  25.488  0.00  0.00    -0.218 OA
ENDROOT
BRANCH  13  12
ATOM     12  C   UNL     1      -4.465   3.541  25.188  0.00  0.00    +0.117 C 
BRANCH  12  10
ATOM      1  C   UNL     1      -3.168   4.330  24.542  0.00  0.00    +0.115 C 
ATOM      2  N   UNL     1      -3.145   4.071  25.325  0.00  0.00    -0.274 N 
ATOM     10  C   UNL     1      -3.794   3.677  25.648  0.00  0.00    +0.228 C 
ATOM     11  O   UNL     1      -3.772   3.418  26.431  0.00  0.00    -0.275 OA
BRANCH   2   3
ATOM      3  C   UNL     1      -2.475   4.207  25.785  0.00  0.00    +0.120 C 
BRANCH   3   4
ATOM      4  C   UNL     1      -1.741   4.318  25.422  0.00  0.00    -0.002 A 
ATOM      5  C   UNL     1      -1.512   5.073  25.180  0.00  0.00    -0.003 A 
ATOM      6  C   UNL     1      -0.779   5.184  24.817  0.00  0.00    -0.000 A 
ATOM      7  C   UNL     1      -0.276   4.541  24.697  0.00  0.00    -0.000 A 
ATOM      8  C   UNL     1      -0.507   3.786  24.939  0.00  0.00    -0.000 A 
ATOM      9  C   UNL     1      -1.239   3.675  25.302  0.00  0.00    -0.003 A 
ENDBRANCH   3   4
ENDBRANCH   2   3
ENDBRANCH  12  10
ENDBRANCH  13  12
BRANCH  15  16
ATOM     16  C   UNL     1      -4.897   0.672  25.050  0.00  0.00    +0.148 C 
BRANCH  16  17
ATOM     17  N   UNL     1      -4.138   0.393  24.888  0.00  0.00    -0.075 NA
BRANCH  17  18
ATOM     18  S   UNL     1      -4.014  -0.414  24.762  0.00  0.00    +0.077 S 
ATOM     19  O   UNL     1      -4.037  -0.545  25.576  0.00  0.00    -0.152 OA
ATOM     20  O   UNL     1      -3.991  -0.283  23.948  0.00  0.00    -0.152 OA
BRANCH  18  21
ATOM     21  C   UNL     1      -3.890  -1.219  24.636  0.00  0.00    +0.124 A 
ATOM     22  C   UNL     1      -4.242  -1.595  23.991  0.00  0.00    +0.020 A 
ATOM     23  C   UNL     1      -4.118  -2.400  23.865  0.00  0.00    +0.001 A 
ATOM     24  C   UNL     1      -3.643  -2.831  24.383  0.00  0.00    +0.000 A 
ATOM     25  C   UNL     1      -3.292  -2.456  25.029  0.00  0.00    +0.001 A 
ATOM     26  C   UNL     1      -3.416  -1.650  25.155  0.00  0.00    +0.020 A 
ENDBRANCH  18  21
ENDBRANCH  17  18
ENDBRANCH  16  17
ENDBRANCH  15  16
TORSDOF 8
ENDMDL
MODEL 2
REMARK VINA RESULT:     -11.3      1.142      5.370
REMARK  Name = 
REMARK  8 active torsions:
REMARK  status: ('A' for Active; 'I' for Inactive)
REMARK    1  A    between atoms: N_2  and  C_3
REMARK    2  A    between atoms: C_3  and  C_4
REMARK    3  A    between atoms: C_10  and  C_12
REMARK    4  A    between atoms: C_12  and  C_13
REMARK    5  A    between atoms: C_15  and  C_16
REMARK    6  A    between atoms: C_16  and  N_17
REMARK    7  A    between atoms: N_17  and  S_18
REMARK    8  A    between atoms: S_18  and  C_21
REMARK                            x       y       z     vdW  Elec       q    Type
REMARK                         _______ _______ _______ _____ _____    ______ ____
ROOT
ATOM     13  C   UNL     1      -4.868   1.698  25.230  0.00  0.00    +0.157 C 
ATOM     14  O   UNL     1      -4.156   2.113  25.220  0.00  0.00    -0.351 OA
ATOM     15  C   UNL     1      -4.326   2.912  25.336  0.00  0.00    +0.167 C 
ATOM     27  C   UNL     1      -5.144   2.990  25.417  0.00  0.00    +0.213 C 
ATOM     28  O   UNL     1      -5.554   3.694  25.541  0.00  0.00    -0.218 OA
ATOM     29  C   UNL     1      -5.478   2.238  25.351  0.00  0.00    +0.212 C 
ATOM     30  O   UNL     1      -6.282   2.060  25.399  0.00  0.00    -0.218 OA
ENDROOT
BRANCH  13  12
ATOM     12  C   UNL     1      -4.954   0.882  25.135  0.00  0.00    +0.117 C 
BRANCH  12  10
ATOM      1  C   UNL     1      -4.321  -0.594  25.514  0.00  0.00    +0.115 C 
ATOM      2  N   UNL     1      -4.172  -0.259  24.775  0.00  0.00    -0.274 N 
ATOM     10  C   UNL     1      -4.488   0.480  24.585  0.00  0.00    +0.228 C 
ATOM     11  O   UNL     1      -4.339   0.816  23.846  0.00  0.00    -0.275 OA
BRANCH   2   3
ATOM      3  C   UNL     1      -3.706  -0.660  24.225  0.00  0.00    +0.120 C 
BRANCH   3   4
ATOM      4  C   UNL     1      -3.587  -1.474  24.302  0.00  0.00    -0.002 A 
ATOM      5  C   UNL     1      -2.928  -1.757  24.709  0.00  0.00    -0.003 A 
ATOM      6  C   UNL     1      -2.809  -2.570  24.786  0.00  0.00    -0.000 A 
ATOM      7  C   UNL     1      -3.349  -3.099  24.456  0.00  0.00    -0.000 A 
ATOM      8  C   UNL     1      -4.009  -2.815  24.050  0.00  0.00    -0.000 A 
ATOM      9  C   UNL     1      -4.128  -2.003  23.973  0.00  0.00    -0.003 A 
ENDBRANCH   3   4
ENDBRANCH   2   3
ENDBRANCH  12  10
ENDBRANCH  13  12
BRANCH  15  16
ATOM     16  C   UNL     1      -3.776   3.527  25.365  0.00  0.00    +0.148 C 
BRANCH  16  17
ATOM     17  N   UNL     1      -3.002   3.375  25.606  0.00  0.00    -0.075 NA
BRANCH  17  18
ATOM     18  S   UNL     1      -2.396   3.896  25.399  0.00  0.00    +0.077 S 
ATOM     19  O   UNL     1      -2.469   4.272  26.129  0.00  0.00    -0.152 OA
ATOM     20  O   UNL     1      -2.323   3.520  24.668  0.00  0.00    -0.152 OA
BRANCH  18  21
ATOM     21  C   UNL     1      -1.791   4.417  25.192  0.00  0.00    +0.124 A 
ATOM     22  C   UNL     1      -1.937   5.229  25.163  0.00  0.00    +0.020 A 
ATOM     23  C   UNL     1      -1.332   5.749  24.956  0.00  0.00    +0.001 A 
ATOM     24  C   UNL     1      -0.581   5.459  24.778  0.00  0.00    +0.000 A 
ATOM     25  C   UNL     1      -0.434   4.647  24.806  0.00  0.00    +0.001 A 
ATOM     26  C   UNL     1      -1.040   4.126  25.013  0.00  0.00    +0.020 A 
ENDBRANCH  18  21
ENDBRANCH  17  18
ENDBRANCH  16  17
ENDBRANCH  15  16
TORSDOF 8
ENDMDL
MODEL 3
REMARK VINA RESULT:     -10.6      2.597      6.383
REMARK  Name = 
REMARK  8 active torsions:
REMARK  status: ('A' for Active; 'I' for Inactive)
REMARK    1  A    between atoms: N_2  and  C_3
REMARK    2  A    between atoms: C_3  and  C_4
REMARK    3  A    between atoms: C_10  and  C_12
REMARK    4  A    between atoms: C_12  and  C_13
REMARK    5  A    between atoms: C_15  and  C_16
REMARK    6  A    between atoms: C_16  and  N_17
REMARK    7  A    between atoms: N_17  and  S_18
REMARK    8  A    between atoms: S_18  and  C_21
REMARK                            x       y       z     vdW  Elec       q    Type
REMARK                         _______ _______ _______ _____ _____    ______ ____
ROOT
ATOM     13  C   UNL     1      -0.254  -0.141  24.313  0.00  0.00    +0.157 C 
ATOM     14  O   UNL     1      -0.620   0.551  24.571  0.00  0.00    -0.351 OA
ATOM     15  C   UNL     1      -0.180   1.191  24.293  0.00  0.00    +0.167 C 
ATOM     27  C   UNL     1       0.458   0.894  23.862  0.00  0.00    +0.213 C 
ATOM     28  O   UNL     1       1.039   1.340  23.485  0.00  0.00    -0.218 OA
ATOM     29  C   UNL     1       0.411   0.070  23.875  0.00  0.00    +0.212 C 
ATOM     30  O   UNL     1       0.939  -0.451  23.512  0.00  0.00    -0.218 OA
ENDROOT
BRANCH  13  12
ATOM     12  C   UNL     1      -0.510  -0.911  24.466  0.00  0.00    +0.117 C 
BRANCH  12  10
ATOM      1  C   UNL     1      -1.611  -2.026  23.949  0.00  0.00    +0.115 C 
ATOM      2  N   UNL     1      -1.754  -1.594  24.637  0.00  0.00    -0.274 N 
ATOM     10  C   UNL     1      -1.203  -1.036  24.896  0.00  0.00    +0.228 C 
ATOM     11  O   UNL     1      -1.346  -0.604  25.585  0.00  0.00    -0.275 OA
BRANCH   2   3
ATOM      3  C   UNL     1      -2.446  -1.720  25.067  0.00  0.00    +0.120 C 
BRANCH   3   4
ATOM      4  C   UNL     1      -3.140  -1.938  24.676  0.00  0.00    -0.002 A 
ATOM      5  C   UNL     1      -3.343  -2.735  24.611  0.00  0.00    -0.003 A 
ATOM      6  C   UNL     1      -4.037  -2.953  24.220  0.00  0.00    -0.000 A 
ATOM      7  C   UNL     1      -4.527  -2.374  23.895  0.00  0.00    -0.000 A 
ATOM      8  C   UNL     1      -4.323  -1.577  23.961  0.00  0.00    -0.000 A 
ATOM      9  C   UNL     1      -3.630  -1.359  24.351  0.00  0.00    -0.003 A 
ENDBRANCH   3   4
ENDBRANCH   2   3
ENDBRANCH  12  10
ENDBRANCH  13  12
BRANCH  15  16
ATOM     16  C   UNL     1      -0.348   1.989  24.422  0.00  0.00    +0.148 C 
BRANCH  16  17
ATOM     17  N   UNL     1      -0.926   2.205  24.969  0.00  0.00    -0.075 NA
BRANCH  17  18
ATOM     18  S   UNL     1      -1.139   2.998  25.052  0.00  0.00    +0.077 S 
ATOM     19  O   UNL     1      -1.653   2.927  24.411  0.00  0.00    -0.152 OA
ATOM     20  O   UNL     1      -0.625   3.069  25.693  0.00  0.00    -0.152 OA
BRANCH  18  21
ATOM     21  C   UNL     1      -1.352   3.790  25.135  0.00  0.00    +0.124 A 
ATOM     22  C   UNL     1      -2.064   3.990  25.501  0.00  0.00    +0.020 A 
ATOM     23  C   UNL     1      -2.277   4.782  25.584  0.00  0.00    +0.001 A 
ATOM     24  C   UNL     1      -1.779   5.375  25.301  0.00  0.00    +0.000 A 
ATOM     25  C   UNL     1      -1.067   5.176  24.934  0.00  0.00    +0.001 A 
ATOM     26  C   UNL     1      -0.854   4.383  24.851  0.00  0.00    +0.020 A 
ENDBRANCH  18  21
ENDBRANCH  17  18
ENDBRANCH  16  17
ENDBRANCH  15  16
TORSDOF 8
ENDMDL
MODEL 4
REMARK VINA RESULT:     -10.4      2.455      3.804
REMARK  Name = 
REMARK  8 active torsions:
REMARK  status: ('A' for Active; 'I' for Inactive)
REMARK    1  A    between atoms: N_2  and  C_3
REMARK    2  A    between atoms: C_3  and  C_4
REMARK    3  A    between atoms: C_10  and  C_12
REMARK    4  A    between atoms: C_12  and  C_13
REMARK    5  A    between atoms: C_15  and  C_16
REMARK    6  A    between atoms: C_16  and  N_17
REMARK    7  A    between atoms: N_17  and  S_18
REMARK    8  A    between atoms: S_18  and  C_21
REMARK                            x       y       z     vdW  Elec       q    Type
REMARK                         _______ _______ _______ _____ _____    ______ ____
ROOT
ATOM     13  C   UNL     1       0.131   1.110  24.114  0.00  0.00    +0.157 C 
ATOM     14  O   UNL     1      -0.525   0.685  24.377  0.00  0.00    -0.351 OA
ATOM     15  C   UNL     1      -0.434  -0.098  24.135  0.00  0.00    +0.167 C 
ATOM     27  C   UNL     1       0.278  -0.157  23.721  0.00  0.00    +0.213 C 
ATOM     28  O   UNL     1       0.586  -0.841  23.381  0.00  0.00    -0.218 OA
ATOM     29  C   UNL     1       0.627   0.591  23.709  0.00  0.00    +0.212 C 
ATOM     30  O   UNL     1       1.345   0.784  23.353  0.00  0.00    -0.218 OA
ENDROOT
BRANCH  13  12
ATOM     12  C   UNL     1       0.266   1.916  24.235  0.00  0.00    +0.117 C 
BRANCH  12  10
ATOM      1  C   UNL     1      -0.513   3.368  24.154  0.00  0.00    +0.115 C 
ATOM      2  N   UNL     1      -0.390   3.006  24.885  0.00  0.00    -0.274 N 
ATOM     10  C   UNL     1      -0.000   2.279  24.926  0.00  0.00    +0.228 C 
ATOM     11  O   UNL     1       0.123   1.917  25.657  0.00  0.00    -0.275 OA
BRANCH   2   3
ATOM      3  C   UNL     1      -0.657   3.369  25.576  0.00  0.00    +0.120 C 
BRANCH   3   4
ATOM      4  C   UNL     1      -1.298   3.888  25.548  0.00  0.00    -0.002 A 
ATOM      5  C   UNL     1      -2.041   3.639  25.806  0.00  0.00    -0.003 A 
ATOM      6  C   UNL     1      -2.682   4.159  25.778  0.00  0.00    -0.000 A 
ATOM      7  C   UNL     1      -2.580   4.926  25.491  0.00  0.00    -0.000 A 
ATOM      8  C   UNL     1      -1.836   5.173  25.233  0.00  0.00    -0.000 A 
ATOM      9  C   UNL     1      -1.196   4.655  25.261  0.00  0.00    -0.003 A 
ENDBRANCH   3   4
ENDBRANCH   2   3
ENDBRANCH  12  10
ENDBRANCH  13  12
BRANCH  15  16
ATOM     16  C   UNL     1      -0.962  -0.716  24.280  0.00  0.00    +0.148 C 
BRANCH  16  17
ATOM     17  N   UNL     1      -1.684  -0.562  24.648  0.00  0.00    -0.075 NA
BRANCH  17  18
ATOM     18  S   UNL     1      -2.318  -1.080  24.545  0.00  0.00    +0.077 S 
ATOM     19  O   UNL     1      -1.882  -1.684  24.897  0.00  0.00    -0.152 OA
ATOM     20  O   UNL     1      -2.755  -0.475  24.192  0.00  0.00    -0.152 OA
BRANCH  18  21
ATOM     21  C   UNL     1      -2.952  -1.597  24.441  0.00  0.00    +0.124 A 
ATOM     22  C   UNL     1      -2.910  -2.366  24.740  0.00  0.00    +0.020 A 
ATOM     23  C   UNL     1      -3.544  -2.883  24.636  0.00  0.00    +0.001 A 
ATOM     24  C   UNL     1      -4.219  -2.634  24.234  0.00  0.00    +0.000 A 
ATOM     25  C   UNL     1      -4.262  -1.866  23.936  0.00  0.00    +0.001 A 
ATOM     26  C   UNL     1      -3.627  -1.348  24.039  0.00  0.00    +0.020 A 
ENDBRANCH  18  21
ENDBRANCH  17  18
ENDBRANCH  16  17
ENDBRANCH  15  16
TORSDOF 8
ENDMDL
MODEL 5
REMARK VINA RESULT:     -10.1      1.938      3.478
REMARK  Name = 
REMARK  8 active torsions:
REMARK  status: ('A' for Active; 'I' for Inactive)
REMARK    1  A    between atoms: N_2  and  C_3
REMARK    2  A    between atoms: C_3  and  C_4
REMARK    3  A    between atoms: C_10  and  C_12
REMARK    4  A    between atoms: C_12  and  C_13
REMARK    5  A    between atoms: C_15  and  C_16
REMARK    6  A    between atoms: C_16  and  N_17
REMARK    7  A    between atoms: N_17  and  S_18
REMARK    8  A    between atoms: S_18  and  C_21
REMARK                            x       y       z     vdW  Elec       q    Type
REMARK                         _______ _______ _______ _____ _____    ______ ____
ROOT
ATOM     13  C   UNL     1      -1.269   1.976  24.568  0.00  0.00    +0.157 C 
ATOM     14  O   UNL     1      -1.714   1.284  24.627  0.00  0.00    -0.351 OA
ATOM     15  C   UNL     1      -1.204   0.644  24.526  0.00  0.00    +0.167 C 
ATOM     27  C   UNL     1      -0.443   0.940  24.404  0.00  0.00    +0.213 C 
ATOM     28  O   UNL     1       0.237   0.492  24.278  0.00  0.00    -0.218 OA
ATOM     29  C   UNL     1      -0.484   1.764  24.430  0.00  0.00    +0.212 C 
ATOM     30  O   UNL     1       0.149   2.283  24.335  0.00  0.00    -0.218 OA
ENDROOT
BRANCH  13  12
ATOM     12  C   UNL     1      -1.559   2.746  24.635  0.00  0.00    +0.117 C 
BRANCH  12  10
ATOM      1  C   UNL     1      -2.710   3.512  25.535  0.00  0.00    +0.115 C 
ATOM      2  N   UNL     1      -2.860   3.328  24.745  0.00  0.00    -0.274 N 
ATOM     10  C   UNL     1      -2.284   2.944  24.295  0.00  0.00    +0.228 C 
ATOM     11  O   UNL     1      -2.433   2.760  23.505  0.00  0.00    -0.275 OA
BRANCH   2   3
ATOM      3  C   UNL     1      -3.584   3.526  24.405  0.00  0.00    +0.120 C 
BRANCH   3   4
ATOM      4  C   UNL     1      -4.288   3.319  24.784  0.00  0.00    -0.002 A 
ATOM      5  C   UNL     1      -4.613   3.822  25.352  0.00  0.00    -0.003 A 
ATOM      6  C   UNL     1      -5.316   3.616  25.731  0.00  0.00    -0.000 A 
ATOM      7  C   UNL     1      -5.694   2.907  25.543  0.00  0.00    -0.000 A 
ATOM      8  C   UNL     1      -5.369   2.405  24.975  0.00  0.00    -0.000 A 
ATOM      9  C   UNL     1      -4.666   2.611  24.596  0.00  0.00    -0.003 A 
ENDBRANCH   3   4
ENDBRANCH   2   3
ENDBRANCH  12  10
ENDBRANCH  13  12
BRANCH  15  16
ATOM     16  C   UNL     1      -1.416  -0.154  24.543  0.00  0.00    +0.148 C 
BRANCH  16  17
ATOM     17  N   UNL     1      -2.011  -0.410  25.054  0.00  0.00    -0.075 NA
BRANCH  17  18
ATOM     18  S   UNL     1      -2.518  -1.020  24.823  0.00  0.00    +0.077 S 
ATOM     19  O   UNL     1      -3.167  -0.566  25.051  0.00  0.00    -0.152 OA
ATOM     20  O   UNL     1      -1.867  -1.474  24.596  0.00  0.00    -0.152 OA
BRANCH  18  21
ATOM     21  C   UNL     1      -3.023  -1.629  24.593  0.00  0.00    +0.124 A 
ATOM     22  C   UNL     1      -3.683  -1.463  24.125  0.00  0.00    +0.020 A 
ATOM     23  C   UNL     1      -4.189  -2.072  23.895  0.00  0.00    +0.001 A 
ATOM     24  C   UNL     1      -4.036  -2.847  24.132  0.00  0.00    +0.000 A 
ATOM     25  C   UNL     1      -3.377  -3.014  24.599  0.00  0.00    +0.001 A 
ATOM     26  C   UNL     1      -2.871  -2.404  24.830  0.00  0.00    +0.020 A 
ENDBRANCH  18  21
ENDBRANCH  17  18
ENDBRANCH  16  17
ENDBRANCH  15  16
TORSDOF 8
ENDMDL
MODEL 6
REMARK VINA RESULT:      -9.9      2.219      5.417
REMARK  Name = 
REMARK  8 active torsions:
REMARK  status: ('A' for Active; 'I' for Inactive)
REMARK    1  A    between atoms: N_2  and  C_3
REMARK    2  A    between atoms: C_3  and  C_4
REMARK    3  A    between atoms: C_10  and  C_12
REMARK    4  A    between atoms: C_12  and  C_13
REMARK    5  A    between atoms: C_15  and  C_16
REMARK    6  A    between atoms: C_16  and  N_17
REMARK    7  A    between atoms: N_17  and  S_18
REMARK    8  A    between atoms: S_18  and  C_21
REMARK                            x       y       z     vdW  Elec       q    Type
REMARK                         _______ _______ _______ _____ _____    ______ ____
ROOT
ATOM     13  C   UNL     1      -0.728   1.160  24.475  0.00  0.00    +0.157 C 
ATOM     14  O   UNL     1      -1.518   1.384  24.550  0.00  0.00    -0.351 OA
ATOM     15  C   UNL     1      -1.556   2.205  24.485  0.00  0.00    +0.167 C 
ATOM     27  C   UNL     1      -0.790   2.489  24.369  0.00  0.00    +0.213 C 
ATOM     28  O   UNL     1      -0.574   3.279  24.276  0.00  0.00    -0.218 OA
ATOM     29  C   UNL     1      -0.278   1.842  24.363  0.00  0.00    +0.212 C 
ATOM     30  O   UNL     1       0.540   1.873  24.262  0.00  0.00    -0.218 OA
ENDROOT
BRANCH  13  12
ATOM     12  C   UNL     1      -0.438   0.387  24.506  0.00  0.00    +0.117 C 
BRANCH  12  10
ATOM      1  C   UNL     1      -0.889  -1.090  23.926  0.00  0.00    +0.115 C 
ATOM      2  N   UNL     1      -1.013  -0.903  24.720  0.00  0.00    -0.274 N 
ATOM     10  C   UNL     1      -0.788  -0.164  25.010  0.00  0.00    +0.228 C 
ATOM     11  O   UNL     1      -0.912   0.024  25.804  0.00  0.00    -0.275 OA
BRANCH   2   3
ATOM      3  C   UNL     1      -1.363  -1.454  25.224  0.00  0.00    +0.120 C 
BRANCH   3   4
ATOM      4  C   UNL     1      -2.050  -1.849  24.990  0.00  0.00    -0.002 A 
ATOM      5  C   UNL     1      -1.995  -2.530  24.529  0.00  0.00    -0.003 A 
ATOM      6  C   UNL     1      -2.681  -2.926  24.295  0.00  0.00    -0.000 A 
ATOM      7  C   UNL     1      -3.421  -2.639  24.523  0.00  0.00    -0.000 A 
ATOM      8  C   UNL     1      -3.474  -1.958  24.985  0.00  0.00    -0.000 A 
ATOM      9  C   UNL     1      -2.789  -1.563  25.219  0.00  0.00    -0.003 A 
ENDBRANCH   3   4
ENDBRANCH   2   3
ENDBRANCH  12  10
ENDBRANCH  13  12
BRANCH  15  16
ATOM     16  C   UNL     1      -2.241   2.664  24.528  0.00  0.00    +0.148 C 
BRANCH  16  17
ATOM     17  N   UNL     1      -2.955   2.366  24.241  0.00  0.00    -0.075 NA
BRANCH  17  18
ATOM     18  S   UNL     1      -3.668   2.603  24.583  0.00  0.00    +0.077 S 
ATOM     19  O   UNL     1      -3.713   1.885  24.986  0.00  0.00    -0.152 OA
ATOM     20  O   UNL     1      -3.623   3.322  24.179  0.00  0.00    -0.152 OA
BRANCH  18  21
ATOM     21  C   UNL     1      -4.380   2.839  24.925  0.00  0.00    +0.124 A 
ATOM     22  C   UNL     1      -5.011   2.309  24.974  0.00  0.00    +0.020 A 
ATOM     23  C   UNL     1      -5.723   2.545  25.315  0.00  0.00    +0.001 A 
ATOM     24  C   UNL     1      -5.805   3.312  25.608  0.00  0.00    +0.000 A 
ATOM     25  C   UNL     1      -5.176   3.843  25.560  0.00  0.00    +0.001 A 
ATOM     26  C   UNL     1      -4.463   3.606  25.218  0.00  0.00    +0.020 A 
ENDBRANCH  18  21
ENDBRANCH  17  18
ENDBRANCH  16  17
ENDBRANCH  15  16
TORSDOF 8
ENDMDL
