MODEL 1
REMARK VINA RESULT:     -13.4      0.000      0.000
REMARK  Name = 
REMARK  6 active torsions:
REMARK  status: ('A' for Active; 'I' for Inactive)
REMARK    1  A    between atoms: S_2  and  C_3
REMARK    2  A    between atoms: C_6  and  C_9
REMARK    3  A    between atoms: C_19  and  C_21
REMARK    4  A    between atoms: C_21  and  S_22
REMARK    5  A    between atoms: S_22  and  C_23
REMARK    6  A    between atoms: C_23  and  C_24
REMARK                            x       y       z     vdW  Elec       q    Type
REMARK                         _______ _______ _______ _____ _____    ______ ____
ROOT
ATOM      9  C   UNL     1      -4.394   0.709  24.994  0.00  0.00    +0.056 A 
ATOM     10  C   UNL     1      -5.180   0.846  25.202  0.00  0.00    +0.006 A 
ATOM     11  C   UNL     1      -5.446   1.617  25.325  0.00  0.00    +0.013 A 
ATOM     12  C   UNL     1      -4.926   2.251  25.239  0.00  0.00    +0.041 A 
ATOM     13  C   UNL     1      -4.902   3.168  25.299  0.00  0.00    +0.058 C 
ATOM     14  C   UNL     1      -5.310   3.721  25.442  0.00  0.00    +0.011 C 
ATOM     15  C   UNL     1      -4.534   3.582  25.236  0.00  0.00    +0.043 C 
ATOM     16  C   UNL     1      -3.576   3.619  24.997  0.00  0.00    +0.095 C 
ATOM     17  N   UNL     1      -3.425   2.803  24.900  0.00  0.00    -0.278 N 
ATOM     18  C   UNL     1      -3.977   3.220  25.069  0.00  0.00    +0.099 C 
ATOM     19  C   UNL     1      -3.001   2.113  24.743  0.00  0.00    +0.237 C 
ATOM     20  O   UNL     1      -3.378   1.379  24.786  0.00  0.00    -0.274 OA
ATOM     27  C   UNL     1      -4.549   2.625  25.171  0.00  0.00    +0.110 C 
ATOM     28  N   UNL     1      -4.139   2.114  25.031  0.00  0.00    -0.299 N 
ATOM     29  C   UNL     1      -3.873   1.343  24.908  0.00  0.00    +0.261 A 
ATOM     30  O   UNL     1      -3.171   0.963  24.703  0.00  0.00    -0.267 OA
ENDROOT
BRANCH   9   6
ATOM      3  C   UNL     1      -3.597  -1.605  24.628  0.00  0.00    +0.025 A 
ATOM      4  C   UNL     1      -3.901  -1.169  23.996  0.00  0.00    +0.006 A 
ATOM      5  C   UNL     1      -4.167  -0.397  24.119  0.00  0.00    +0.001 A 
ATOM      6  C   UNL     1      -4.128  -0.062  24.871  0.00  0.00    +0.005 A 
ATOM      7  C   UNL     1      -3.824  -0.498  25.502  0.00  0.00    +0.001 A 
ATOM      8  C   UNL     1      -3.559  -1.270  25.380  0.00  0.00    +0.006 A 
BRANCH   3   2
ATOM      1  C   UNL     1      -2.523  -2.537  24.494  0.00  0.00    +0.074 C 
ATOM      2  S   UNL     1      -3.331  -2.377  24.506  0.00  0.00    -0.113 S 
ENDBRANCH   3   2
ENDBRANCH   9   6
BRANCH  19  21
ATOM     21  C   UNL     1      -2.202   2.155  24.545  0.00  0.00    +0.143 C 
BRANCH  21  22
ATOM     22  S   UNL     1      -1.631   2.210  25.139  0.00  0.00    -0.119 S 
BRANCH  22  23
ATOM     23  C   UNL     1      -0.837   2.310  24.940  0.00  0.00    +0.172 C 
BRANCH  23  24
ATOM     24  C   UNL     1      -0.259   2.287  25.528  0.00  0.00    +0.376 C 
ATOM     25  O   UNL     1       0.499   2.012  25.350  0.00  0.00    -0.245 OA
ATOM     26  O   UNL     1      -0.438   2.538  26.294  0.00  0.00    -0.245 OA
ENDBRANCH  23  24
ENDBRANCH  22  23
ENDBRANCH  21  22
ENDBRANCH  19  21
TORSDOF 6
ENDMDL
MODEL 2
REMARK VINA RESULT:     -12.8      0.803      1.106
REMARK  Name = 
REMARK  6 active torsions:
REMARK  status: ('A' for Active; 'I' for Inactive)
REMARK    1  A    between atoms: S_2  and  C_3
REMARK    2  A    between atoms: C_6  and  C_9
REMARK    3  A    between atoms: C_19  and  C_21
REMARK    4  A    between atoms: C_21  and  S_22
REMARK    5  A    between atoms: S_22  and  C_23
REMARK    6  A    between atoms: C_23  and  C_24
REMARK                            x       y       z     vdW  Elec       q    Type
REMARK                         _______ _______ _______ _____ _____    ______ ____
ROOT
ATOM      9  C   UNL     1      -4.042   0.723  24.762  0.00  0.00    +0.056 A 
ATOM     10  C   UNL     1      -4.793   1.045  24.647  0.00  0.00    +0.006 A 
ATOM     11  C   UNL     1      -4.904   1.861  24.693  0.00  0.00    +0.013 A 
ATOM     12  C   UNL     1      -4.263   2.356  24.854  0.00  0.00    +0.041 A 
ATOM     13  C   UNL     1      -4.058   3.245  24.965  0.00  0.00    +0.058 C 
ATOM     14  C   UNL     1      -4.353   3.882  24.961  0.00  0.00    +0.011 C 
ATOM     15  C   UNL     1      -3.612   3.561  25.074  0.00  0.00    +0.043 C 
ATOM     16  C   UNL     1      -2.657   3.368  25.237  0.00  0.00    +0.095 C 
ATOM     17  N   UNL     1      -2.669   2.536  25.167  0.00  0.00    -0.278 N 
ATOM     18  C   UNL     1      -3.132   3.074  25.124  0.00  0.00    +0.099 C 
ATOM     19  C   UNL     1      -2.386   1.760  25.157  0.00  0.00    +0.237 C 
ATOM     20  O   UNL     1      -2.904   1.134  25.009  0.00  0.00    -0.274 OA
ATOM     27  C   UNL     1      -3.817   2.630  24.960  0.00  0.00    +0.110 C 
ATOM     28  N   UNL     1      -3.512   2.034  24.968  0.00  0.00    -0.299 N 
ATOM     29  C   UNL     1      -3.401   1.218  24.922  0.00  0.00    +0.261 A 
ATOM     30  O   UNL     1      -2.782   0.679  24.995  0.00  0.00    -0.267 OA
ENDROOT
BRANCH   9   6
ATOM      3  C   UNL     1      -3.712  -1.725  24.622  0.00  0.00    +0.025 A 
ATOM      4  C   UNL     1      -3.793  -1.362  25.358  0.00  0.00    +0.006 A 
ATOM      5  C   UNL     1      -3.903  -0.545  25.405  0.00  0.00    +0.001 A 
ATOM      6  C   UNL     1      -3.932  -0.092  24.716  0.00  0.00    +0.005 A 
ATOM      7  C   UNL     1      -3.850  -0.456  23.980  0.00  0.00    +0.001 A 
ATOM      8  C   UNL     1      -3.740  -1.273  23.933  0.00  0.00    +0.006 A 
BRANCH   3   2
ATOM      1  C   UNL     1      -2.839  -2.854  24.551  0.00  0.00    +0.074 C 
ATOM      2  S   UNL     1      -3.602  -2.542  24.575  0.00  0.00    -0.113 S 
ENDBRANCH   3   2
ENDBRANCH   9   6
BRANCH  19  21
ATOM     21  C   UNL     1      -1.587   1.611  25.295  0.00  0.00    +0.143 C 
BRANCH  21  22
ATOM     22  S   UNL     1      -1.053   1.613  24.666  0.00  0.00    -0.119 S 
BRANCH  22  23
ATOM     23  C   UNL     1      -0.264   1.405  24.793  0.00  0.00    +0.172 C 
BRANCH  23  24
ATOM     24  C   UNL     1       0.279   1.450  24.174  0.00  0.00    +0.376 C 
ATOM     25  O   UNL     1       0.844   2.052  24.165  0.00  0.00    -0.245 OA
ATOM     26  O   UNL     1       0.258   0.893  23.565  0.00  0.00    -0.245 OA
ENDBRANCH  23  24
ENDBRANCH  22  23
ENDBRANCH  21  22
ENDBRANCH  19  21
TORSDOF 6
ENDMDL
MODEL 3
REMARK VINA RESULT:     -12.7      1.811      3.951
REMARK  Name = 
REMARK  6 active torsions:
REMARK  status: ('A' for Active; 'I' for Inactive)
REMARK    1  A    between atoms: S_2  and  C_3
REMARK    2  A    between atoms: C_6  and  C_9
REMARK    3  A    between atoms: C_19  and  C_21
REMARK    4  A    between atoms: C_21  and  S_22
REMARK    5  A    between atoms: S_22  and  C_23
REMARK    6  A    between atoms: C_23  and  C_24
REMARK                            x       y       z     vdW  Elec       q    Type
REMARK                         _______ _______ _______ _____ _____    ______ ____
ROOT
ATOM      9  C   UNL     1      -3.807   0.169  24.356  0.00  0.00    +0.056 A 
ATOM     10  C   UNL     1      -4.508  -0.249  24.236  0.00  0.00    +0.006 A 
ATOM     11  C   UNL     1      -4.504  -1.073  24.239  0.00  0.00    +0.013 A 
ATOM     12  C   UNL     1      -3.798  -1.481  24.363  0.00  0.00    +0.041 A 
ATOM     13  C   UNL     1      -3.469  -2.338  24.422  0.00  0.00    +0.058 C 
ATOM     14  C   UNL     1      -3.672  -3.009  24.389  0.00  0.00    +0.011 C 
ATOM     15  C   UNL     1      -2.981  -2.594  24.507  0.00  0.00    +0.043 C 
ATOM     16  C   UNL     1      -2.059  -2.278  24.666  0.00  0.00    +0.095 C 
ATOM     17  N   UNL     1      -2.187  -1.453  24.641  0.00  0.00    -0.278 N 
ATOM     18  C   UNL     1      -2.572  -2.048  24.576  0.00  0.00    +0.099 C 
ATOM     19  C   UNL     1      -2.015  -0.646  24.668  0.00  0.00    +0.237 C 
ATOM     20  O   UNL     1      -2.618  -0.092  24.563  0.00  0.00    -0.274 OA
ATOM     27  C   UNL     1      -3.315  -1.696  24.447  0.00  0.00    +0.110 C 
ATOM     28  N   UNL     1      -3.096  -1.064  24.483  0.00  0.00    -0.299 N 
ATOM     29  C   UNL     1      -3.100  -0.239  24.480  0.00  0.00    +0.261 A 
ATOM     30  O   UNL     1      -2.560   0.377  24.571  0.00  0.00    -0.267 OA
ENDROOT
BRANCH   9   6
ATOM      3  C   UNL     1      -3.823   2.643  24.348  0.00  0.00    +0.025 A 
ATOM      4  C   UNL     1      -3.636   2.230  23.659  0.00  0.00    +0.006 A 
ATOM      5  C   UNL     1      -3.631   1.404  23.661  0.00  0.00    +0.001 A 
ATOM      6  C   UNL     1      -3.812   0.993  24.353  0.00  0.00    +0.005 A 
ATOM      7  C   UNL     1      -3.999   1.407  25.042  0.00  0.00    +0.001 A 
ATOM      8  C   UNL     1      -4.004   2.232  25.040  0.00  0.00    +0.006 A 
BRANCH   3   2
ATOM      1  C   UNL     1      -3.258   3.885  24.770  0.00  0.00    +0.074 C 
ATOM      2  S   UNL     1      -3.828   3.469  24.345  0.00  0.00    -0.113 S 
ENDBRANCH   3   2
ENDBRANCH   9   6
BRANCH  19  21
ATOM     21  C   UNL     1      -1.241  -0.394  24.801  0.00  0.00    +0.143 C 
BRANCH  21  22
ATOM     22  S   UNL     1      -0.732  -0.270  24.163  0.00  0.00    -0.119 S 
BRANCH  22  23
ATOM     23  C   UNL     1       0.040  -0.009  24.296  0.00  0.00    +0.172 C 
BRANCH  23  24
ATOM     24  C   UNL     1       0.497   0.261  23.665  0.00  0.00    +0.376 C 
ATOM     25  O   UNL     1       0.681   1.063  23.603  0.00  0.00    -0.245 OA
ATOM     26  O   UNL     1       0.770  -0.271  23.095  0.00  0.00    -0.245 OA
ENDBRANCH  23  24
ENDBRANCH  22  23
ENDBRANCH  21  22
ENDBRANCH  19  21
TORSDOF 6
ENDMDL
MODEL 4
REMARK VINA RESULT:     -12.5      1.840      4.435
REMARK  Name = 
REMARK  6 active torsions:
REMARK  status: ('A' for Active; 'I' for Inactive)
REMARK    1  A    between atoms: S_2  and  C_3
REMARK    2  A    between atoms: C_6  and  C_9
REMARK    3  A    between atoms: C_19  and  C_21
REMARK    4  A    between atoms: C_21  and  S_22
REMARK    5  A    between atoms: S_22  and  C_23
REMARK    6  A    between atoms: C_23  and  C_24
REMARK                            x       y       z     vdW  Elec       q    Type
REMARK                         _______ _______ _______ _____ _____    ______ ____
ROOT
ATOM      9  C   UNL     1      -1.699  -0.366  24.830  0.00  0.00    +0.056 A 
ATOM     10  C   UNL     1      -1.368  -1.114  24.941  0.00  0.00    +0.006 A 
ATOM     11  C   UNL     1      -1.829  -1.790  24.831  0.00  0.00    +0.013 A 
ATOM     12  C   UNL     1      -2.620  -1.717  24.609  0.00  0.00    +0.041 A 
ATOM     13  C   UNL     1      -3.358  -2.231  24.417  0.00  0.00    +0.058 C 
ATOM     14  C   UNL     1      -3.567  -2.899  24.376  0.00  0.00    +0.011 C 
ATOM     15  C   UNL     1      -3.890  -2.159  24.267  0.00  0.00    +0.043 C 
ATOM     16  C   UNL     1      -4.453  -1.367  24.090  0.00  0.00    +0.095 C 
ATOM     17  N   UNL     1      -3.893  -0.763  24.230  0.00  0.00    -0.278 N 
ATOM     18  C   UNL     1      -3.915  -1.475  24.242  0.00  0.00    +0.099 C 
ATOM     19  C   UNL     1      -3.584  -0.001  24.296  0.00  0.00    +0.237 C 
ATOM     20  O   UNL     1      -2.794   0.106  24.513  0.00  0.00    -0.274 OA
ATOM     27  C   UNL     1      -3.125  -1.614  24.466  0.00  0.00    +0.110 C 
ATOM     28  N   UNL     1      -2.951  -0.969  24.497  0.00  0.00    -0.299 N 
ATOM     29  C   UNL     1      -2.490  -0.294  24.608  0.00  0.00    +0.261 A 
ATOM     30  O   UNL     1      -2.581   0.525  24.561  0.00  0.00    -0.267 OA
ENDROOT
BRANCH   9   6
ATOM      3  C   UNL     1      -0.314   1.658  25.161  0.00  0.00    +0.025 A 
ATOM      4  C   UNL     1      -0.727   1.332  25.797  0.00  0.00    +0.006 A 
ATOM      5  C   UNL     1      -1.189   0.657  25.686  0.00  0.00    +0.001 A 
ATOM      6  C   UNL     1      -1.237   0.308  24.941  0.00  0.00    +0.005 A 
ATOM      7  C   UNL     1      -0.825   0.634  24.305  0.00  0.00    +0.001 A 
ATOM      8  C   UNL     1      -0.363   1.309  24.415  0.00  0.00    +0.006 A 
BRANCH   3   2
ATOM      1  C   UNL     1      -0.210   3.050  25.463  0.00  0.00    +0.074 C 
ATOM      2  S   UNL     1       0.148   2.333  25.271  0.00  0.00    -0.113 S 
ENDBRANCH   3   2
ENDBRANCH   9   6
BRANCH  19  21
ATOM     21  C   UNL     1      -4.063   0.653  24.146  0.00  0.00    +0.143 C 
BRANCH  21  22
ATOM     22  S   UNL     1      -4.533   0.967  24.747  0.00  0.00    -0.119 S 
BRANCH  22  23
ATOM     23  C   UNL     1      -4.931   1.681  24.630  0.00  0.00    +0.172 C 
BRANCH  23  24
ATOM     24  C   UNL     1      -5.511   1.921  25.165  0.00  0.00    +0.376 C 
ATOM     25  O   UNL     1      -6.307   1.771  25.004  0.00  0.00    -0.245 OA
ATOM     26  O   UNL     1      -5.297   2.311  25.860  0.00  0.00    -0.245 OA
ENDBRANCH  23  24
ENDBRANCH  22  23
ENDBRANCH  21  22
ENDBRANCH  19  21
TORSDOF 6
ENDMDL
MODEL 5
REMARK VINA RESULT:     -12.0      1.716      3.356
REMARK  Name = 
REMARK  6 active torsions:
REMARK  status: ('A' for Active; 'I' for Inactive)
REMARK    1  A    between atoms: S_2  and  C_3
REMARK    2  A    between atoms: C_6  and  C_9
REMARK    3  A    between atoms: C_19  and  C_21
REMARK    4  A    between atoms: C_21  and  S_22
REMARK    5  A    between atoms: S_22  and  C_23
REMARK    6  A    between atoms: C_23  and  C_24
REMARK                            x       y       z     vdW  Elec       q    Type
REMARK                         _______ _______ _______ _____ _____    ______ ____
ROOT
ATOM      9  C   UNL     1      -1.034   1.752  25.195  0.00  0.00    +0.056 A 
ATOM     10  C   UNL     1      -0.384   2.183  25.465  0.00  0.00    +0.006 A 
ATOM     11  C   UNL     1      -0.429   3.005  25.523  0.00  0.00    +0.013 A 
ATOM     12  C   UNL     1      -1.124   3.396  25.311  0.00  0.00    +0.041 A 
ATOM     13  C   UNL     1      -1.480   4.241  25.261  0.00  0.00    +0.058 C 
ATOM     14  C   UNL     1      -1.319   4.914  25.378  0.00  0.00    +0.011 C 
ATOM     15  C   UNL     1      -1.959   4.486  25.112  0.00  0.00    +0.043 C 
ATOM     16  C   UNL     1      -2.825   4.151  24.774  0.00  0.00    +0.095 C 
ATOM     17  N   UNL     1      -2.662   3.332  24.759  0.00  0.00    -0.278 N 
ATOM     18  C   UNL     1      -2.323   3.933  24.933  0.00  0.00    +0.099 C 
ATOM     19  C   UNL     1      -2.786   2.524  24.642  0.00  0.00    +0.237 C 
ATOM     20  O   UNL     1      -2.183   1.985  24.808  0.00  0.00    -0.274 OA
ATOM     27  C   UNL     1      -1.595   3.599  25.162  0.00  0.00    +0.110 C 
ATOM     28  N   UNL     1      -1.774   2.965  25.041  0.00  0.00    -0.299 N 
ATOM     29  C   UNL     1      -1.729   2.143  24.983  0.00  0.00    +0.261 A 
ATOM     30  O   UNL     1      -2.215   1.517  24.754  0.00  0.00    -0.267 OA
ENDROOT
BRANCH   9   6
ATOM      3  C   UNL     1      -0.897  -0.712  25.024  0.00  0.00    +0.025 A 
ATOM      4  C   UNL     1      -0.669  -0.242  24.385  0.00  0.00    +0.006 A 
ATOM      5  C   UNL     1      -0.715   0.581  24.443  0.00  0.00    +0.001 A 
ATOM      6  C   UNL     1      -0.988   0.931  25.137  0.00  0.00    +0.005 A 
ATOM      7  C   UNL     1      -1.216   0.460  25.776  0.00  0.00    +0.001 A 
ATOM      8  C   UNL     1      -1.170  -0.362  25.719  0.00  0.00    +0.006 A 
BRANCH   3   2
ATOM      1  C   UNL     1      -1.498  -1.965  24.692  0.00  0.00    +0.074 C 
ATOM      2  S   UNL     1      -0.851  -1.535  24.967  0.00  0.00    -0.113 S 
ENDBRANCH   3   2
ENDBRANCH   9   6
BRANCH  19  21
ATOM     21  C   UNL     1      -3.513   2.255  24.359  0.00  0.00    +0.143 C 
BRANCH  21  22
ATOM     22  S   UNL     1      -4.146   2.155  24.879  0.00  0.00    -0.119 S 
BRANCH  22  23
ATOM     23  C   UNL     1      -4.858   1.839  24.606  0.00  0.00    +0.172 C 
BRANCH  23  24
ATOM     24  C   UNL     1      -5.507   1.788  25.112  0.00  0.00    +0.376 C 
ATOM     25  O   UNL     1      -5.487   1.274  25.758  0.00  0.00    -0.245 OA
ATOM     26  O   UNL     1      -6.176   2.252  24.974  0.00  0.00    -0.245 OA
ENDBRANCH  23  24
ENDBRANCH  22  23
ENDBRANCH  21  22
ENDBRANCH  19  21
TORSDOF 6
ENDMDL
MODEL 6
REMARK VINA RESULT:     -12.0      1.354      1.644
REMARK  Name = 
REMARK  6 active torsions:
REMARK  status: ('A' for Active; 'I' for Inactive)
REMARK    1  A    between atoms: S_2  and  C_3
REMARK    2  A    between atoms: C_6  and  C_9
REMARK    3  A    between atoms: C_19  and  C_21
REMARK    4  A    between atoms: C_21  and  S_22
REMARK    5  A    between atoms: S_22  and  C_23
REMARK    6  A    between atoms: C_23  and  C_24
REMARK                            x       y       z     vdW  Elec       q    Type
REMARK                         _______ _______ _______ _____ _____    ______ ____
ROOT
ATOM      9  C   UNL     1      -3.435   0.214  25.055  0.00  0.00    +0.056 A 
ATOM     10  C   UNL     1      -4.145  -0.150  25.267  0.00  0.00    +0.006 A 
ATOM     11  C   UNL     1      -4.846   0.284  25.270  0.00  0.00    +0.013 A 
ATOM     12  C   UNL     1      -4.838   1.082  25.060  0.00  0.00    +0.041 A 
ATOM     13  C   UNL     1      -5.403   1.801  24.965  0.00  0.00    +0.058 C 
ATOM     14  C   UNL     1      -6.077   1.983  25.029  0.00  0.00    +0.011 C 
ATOM     15  C   UNL     1      -5.375   2.339  24.820  0.00  0.00    +0.043 C 
ATOM     16  C   UNL     1      -4.640   2.938  24.542  0.00  0.00    +0.095 C 
ATOM     17  N   UNL     1      -4.001   2.401  24.577  0.00  0.00    -0.278 N 
ATOM     18  C   UNL     1      -4.703   2.393  24.695  0.00  0.00    +0.099 C 
ATOM     19  C   UNL     1      -3.226   2.122  24.522  0.00  0.00    +0.237 C 
ATOM     20  O   UNL     1      -3.057   1.334  24.700  0.00  0.00    -0.274 OA
ATOM     27  C   UNL     1      -4.778   1.593  24.916  0.00  0.00    +0.110 C 
ATOM     28  N   UNL     1      -4.128   1.446  24.848  0.00  0.00    -0.299 N 
ATOM     29  C   UNL     1      -3.427   1.011  24.845  0.00  0.00    +0.261 A 
ATOM     30  O   UNL     1      -2.629   1.137  24.680  0.00  0.00    -0.267 OA
ENDROOT
BRANCH   9   6
ATOM      3  C   UNL     1      -1.332  -1.090  25.050  0.00  0.00    +0.025 A 
ATOM      4  C   UNL     1      -1.795  -1.053  24.368  0.00  0.00    +0.006 A 
ATOM      5  C   UNL     1      -2.497  -0.618  24.370  0.00  0.00    +0.001 A 
ATOM      6  C   UNL     1      -2.735  -0.221  25.053  0.00  0.00    +0.005 A 
ATOM      7  C   UNL     1      -2.271  -0.259  25.734  0.00  0.00    +0.001 A 
ATOM      8  C   UNL     1      -1.570  -0.694  25.733  0.00  0.00    +0.006 A 
BRANCH   3   2
ATOM      1  C   UNL     1      -0.014  -1.310  24.546  0.00  0.00    +0.074 C 
ATOM      2  S   UNL     1      -0.630  -1.526  25.049  0.00  0.00    -0.113 S 
ENDBRANCH   3   2
ENDBRANCH   9   6
BRANCH  19  21
ATOM     21  C   UNL     1      -2.621   2.631  24.289  0.00  0.00    +0.143 C 
BRANCH  21  22
ATOM     22  S   UNL     1      -2.234   3.097  24.850  0.00  0.00    -0.119 S 
BRANCH  22  23
ATOM     23  C   UNL     1      -1.605   3.581  24.622  0.00  0.00    +0.172 C 
BRANCH  23  24
ATOM     24  C   UNL     1      -1.207   4.031  25.187  0.00  0.00    +0.376 C 
ATOM     25  O   UNL     1      -1.428   4.815  25.320  0.00  0.00    -0.245 OA
ATOM     26  O   UNL     1      -0.587   3.698  25.619  0.00  0.00    -0.245 OA
ENDBRANCH  23  24
ENDBRANCH  22  23
ENDBRANCH  21  22
ENDBRANCH  19  21
TORSDOF 6
ENDMDL
MODEL 7
REMARK VINA RESULT:     -11.8      1.206      3.370
REMARK  Name = 
REMARK  6 active torsions:
REMARK  status: ('A' for Active; 'I' for Inactive)
REMARK    1  A    between atoms: S_2  and  C_3
REMARK    2  A    between atoms: C_6  and  C_9
REMARK    3  A    between atoms: C_19  and  C_21
REMARK    4  A    between atoms: C_21  and  S_22
REMARK    5  A    between atoms: S_22  and  C_23
REMARK    6  A    between atoms: C_23  and  C_24
REMARK                            x       y       z     vdW  Elec       q    Type
REMARK                         _______ _______ _______ _____ _____    ______ ____
ROOT
ATOM      9  C   UNL     1      -2.784   2.766  25.065  0.00  0.00    +0.056 A 
ATOM     10  C   UNL     1      -2.998   3.510  25.350  0.00  0.00    +0.006 A 
ATOM     11  C   UNL     1      -3.790   3.679  25.510  0.00  0.00    +0.013 A 
ATOM     12  C   UNL     1      -4.367   3.103  25.384  0.00  0.00    +0.041 A 
ATOM     13  C   UNL     1      -5.274   2.975  25.456  0.00  0.00    +0.058 C 
ATOM     14  C   UNL     1      -5.863   3.306  25.645  0.00  0.00    +0.011 C 
ATOM     15  C   UNL     1      -5.648   2.572  25.364  0.00  0.00    +0.043 C 
ATOM     16  C   UNL     1      -5.590   1.642  25.035  0.00  0.00    +0.095 C 
ATOM     17  N   UNL     1      -4.765   1.589  24.911  0.00  0.00    -0.278 N 
ATOM     18  C   UNL     1      -5.234   2.075  25.139  0.00  0.00    +0.099 C 
ATOM     19  C   UNL     1      -4.037   1.259  24.704  0.00  0.00    +0.237 C 
ATOM     20  O   UNL     1      -3.347   1.708  24.771  0.00  0.00    -0.274 OA
ATOM     27  C   UNL     1      -4.700   2.697  25.286  0.00  0.00    +0.110 C 
ATOM     28  N   UNL     1      -4.153   2.359  25.099  0.00  0.00    -0.299 N 
ATOM     29  C   UNL     1      -3.361   2.190  24.940  0.00  0.00    +0.261 A 
ATOM     30  O   UNL     1      -2.913   1.555  24.663  0.00  0.00    -0.267 OA
ENDROOT
BRANCH   9   6
ATOM      3  C   UNL     1      -0.408   2.262  24.590  0.00  0.00    +0.025 A 
ATOM      4  C   UNL     1      -0.895   2.552  23.991  0.00  0.00    +0.006 A 
ATOM      5  C   UNL     1      -1.688   2.720  24.150  0.00  0.00    +0.001 A 
ATOM      6  C   UNL     1      -1.992   2.598  24.906  0.00  0.00    +0.005 A 
ATOM      7  C   UNL     1      -1.504   2.307  25.505  0.00  0.00    +0.001 A 
ATOM      8  C   UNL     1      -0.712   2.139  25.347  0.00  0.00    +0.006 A 
BRANCH   3   2
ATOM      1  C   UNL     1       0.589   1.384  24.066  0.00  0.00    +0.074 C 
ATOM      2  S   UNL     1       0.385   2.094  24.431  0.00  0.00    -0.113 S 
ENDBRANCH   3   2
ENDBRANCH   9   6
BRANCH  19  21
ATOM     21  C   UNL     1      -4.000   0.482  24.431  0.00  0.00    +0.143 C 
BRANCH  21  22
ATOM     22  S   UNL     1      -3.907  -0.139  24.966  0.00  0.00    -0.119 S 
BRANCH  22  23
ATOM     23  C   UNL     1      -3.924  -0.920  24.698  0.00  0.00    +0.172 C 
BRANCH  23  24
ATOM     24  C   UNL     1      -3.654  -1.528  25.186  0.00  0.00    +0.376 C 
ATOM     25  O   UNL     1      -3.574  -1.401  25.998  0.00  0.00    -0.245 OA
ATOM     26  O   UNL     1      -3.464  -2.264  24.862  0.00  0.00    -0.245 OA
ENDBRANCH  23  24
ENDBRANCH  22  23
ENDBRANCH  21  22
ENDBRANCH  19  21
TORSDOF 6
ENDMDL
