MODEL 1
REMARK VINA RESULT:     -13.9      0.000      0.000
REMARK  Name = 
REMARK  4 active torsions:
REMARK  status: ('A' for Active; 'I' for Inactive)
REMARK    1  A    between atoms: N_2  and  C_4
REMARK    2  A    between atoms: C_4  and  C_5
REMARK    3  A    between atoms: C_10  and  C_11
REMARK    4  A    between atoms: C_21  and  C_23
REMARK                            x       y       z     vdW  Elec       q    Type
REMARK                         _______ _______ _______ _____ _____    ______ ____
ROOT
ATOM     11  C   UNL     1      -3.714   1.163  24.408  0.00  0.00    +0.056 A 
ATOM     12  C   UNL     1      -4.373   0.671  24.473  0.00  0.00    +0.006 A 
ATOM     13  C   UNL     1      -4.299  -0.075  24.817  0.00  0.00    +0.013 A 
ATOM     14  C   UNL     1      -3.566  -0.330  25.095  0.00  0.00    +0.041 A 
ATOM     15  C   UNL     1      -3.169  -1.052  25.502  0.00  0.00    +0.058 C 
ATOM     16  C   UNL     1      -3.313  -1.693  25.749  0.00  0.00    +0.011 C 
ATOM     17  C   UNL     1      -2.664  -1.205  25.683  0.00  0.00    +0.043 C 
ATOM     18  C   UNL     1      -1.777  -0.769  25.694  0.00  0.00    +0.096 C 
ATOM     19  N   UNL     1      -1.974  -0.043  25.332  0.00  0.00    -0.275 N 
ATOM     20  C   UNL     1      -2.305  -0.644  25.520  0.00  0.00    +0.100 C 
ATOM     21  C   UNL     1      -1.872   0.716  25.023  0.00  0.00    +0.255 C 
ATOM     22  O   UNL     1      -2.515   1.120  24.700  0.00  0.00    -0.269 OA
ATOM     28  C   UNL     1      -3.070  -0.446  25.259  0.00  0.00    +0.110 C 
ATOM     29  N   UNL     1      -2.907   0.162  25.030  0.00  0.00    -0.299 N 
ATOM     30  C   UNL     1      -2.980   0.908  24.687  0.00  0.00    +0.261 A 
ATOM     31  O   UNL     1      -2.497   1.554  24.514  0.00  0.00    -0.267 OA
ENDROOT
BRANCH  11  10
ATOM      5  C   UNL     1      -4.193   2.508  24.462  0.00  0.00    -0.006 A 
ATOM      6  C   UNL     1      -4.268   3.255  24.117  0.00  0.00    -0.003 A 
ATOM      7  C   UNL     1      -3.937   3.401  23.376  0.00  0.00    -0.000 A 
ATOM      8  C   UNL     1      -3.532   2.802  22.979  0.00  0.00    -0.000 A 
ATOM      9  C   UNL     1      -3.458   2.056  23.323  0.00  0.00    -0.000 A 
ATOM     10  C   UNL     1      -3.788   1.909  24.065  0.00  0.00    +0.002 A 
BRANCH   5   4
ATOM      4  C   UNL     1      -4.524   2.360  25.203  0.00  0.00    +0.099 C 
BRANCH   4   2
ATOM      1  C   UNL     1      -5.741   3.016  25.568  0.00  0.00    +0.090 C 
ATOM      2  N   UNL     1      -4.918   2.964  25.606  0.00  0.00    -0.267 NA
ATOM      3  C   UNL     1      -4.490   3.514  26.046  0.00  0.00    +0.090 C 
ENDBRANCH   4   2
ENDBRANCH   5   4
ENDBRANCH  11  10
BRANCH  21  23
ATOM     23  C   UNL     1      -1.127   1.070  25.037  0.00  0.00    +0.083 A 
ATOM     24  C   UNL     1      -0.843   1.578  25.622  0.00  0.00    +0.012 A 
ATOM     25  C   UNL     1      -0.075   1.800  25.415  0.00  0.00    +0.008 A 
ATOM     26  C   UNL     1       0.115   1.430  24.703  0.00  0.00    +0.036 A 
ATOM     27  S   UNL     1      -0.535   0.978  24.469  0.00  0.00    -0.082 S 
ENDBRANCH  21  23
TORSDOF 4
ENDMDL
MODEL 2
REMARK VINA RESULT:     -13.6      1.495      3.320
REMARK  Name = 
REMARK  4 active torsions:
REMARK  status: ('A' for Active; 'I' for Inactive)
REMARK    1  A    between atoms: N_2  and  C_4
REMARK    2  A    between atoms: C_4  and  C_5
REMARK    3  A    between atoms: C_10  and  C_11
REMARK    4  A    between atoms: C_21  and  C_23
REMARK                            x       y       z     vdW  Elec       q    Type
REMARK                         _______ _______ _______ _____ _____    ______ ____
ROOT
ATOM     11  C   UNL     1      -3.296   2.418  24.192  0.00  0.00    +0.056 A 
ATOM     12  C   UNL     1      -3.607   3.178  24.273  0.00  0.00    +0.006 A 
ATOM     13  C   UNL     1      -4.345   3.287  24.624  0.00  0.00    +0.013 A 
ATOM     14  C   UNL     1      -4.773   2.635  24.894  0.00  0.00    +0.041 A 
ATOM     15  C   UNL     1      -5.568   2.423  25.303  0.00  0.00    +0.058 C 
ATOM     16  C   UNL     1      -6.151   2.718  25.560  0.00  0.00    +0.011 C 
ATOM     17  C   UNL     1      -5.840   1.969  25.479  0.00  0.00    +0.043 C 
ATOM     18  C   UNL     1      -5.639   1.002  25.471  0.00  0.00    +0.096 C 
ATOM     19  N   UNL     1      -4.889   1.017  25.103  0.00  0.00    -0.275 N 
ATOM     20  C   UNL     1      -5.388   1.485  25.303  0.00  0.00    +0.100 C 
ATOM     21  C   UNL     1      -4.183   0.735  24.784  0.00  0.00    +0.255 C 
ATOM     22  O   UNL     1      -3.633   1.263  24.465  0.00  0.00    -0.269 OA
ATOM     28  C   UNL     1      -5.007   2.181  25.051  0.00  0.00    +0.110 C 
ATOM     29  N   UNL     1      -4.462   1.875  24.813  0.00  0.00    -0.299 N 
ATOM     30  C   UNL     1      -3.723   1.767  24.462  0.00  0.00    +0.261 A 
ATOM     31  O   UNL     1      -3.219   1.141  24.274  0.00  0.00    -0.267 OA
ENDROOT
BRANCH  11  10
ATOM      5  C   UNL     1      -1.875   2.564  24.229  0.00  0.00    -0.006 A 
ATOM      6  C   UNL     1      -1.136   2.456  23.877  0.00  0.00    -0.003 A 
ATOM      7  C   UNL     1      -1.081   2.096  23.137  0.00  0.00    -0.000 A 
ATOM      8  C   UNL     1      -1.763   1.843  22.749  0.00  0.00    -0.000 A 
ATOM      9  C   UNL     1      -2.501   1.951  23.101  0.00  0.00    -0.000 A 
ATOM     10  C   UNL     1      -2.557   2.311  23.841  0.00  0.00    +0.002 A 
BRANCH   5   4
ATOM      4  C   UNL     1      -1.931   2.924  24.969  0.00  0.00    +0.099 C 
BRANCH   4   2
ATOM      1  C   UNL     1      -0.848   2.711  25.878  0.00  0.00    +0.090 C 
ATOM      2  N   UNL     1      -1.250   3.199  25.346  0.00  0.00    -0.267 NA
ATOM      3  C   UNL     1      -0.971   3.960  25.192  0.00  0.00    +0.090 C 
ENDBRANCH   4   2
ENDBRANCH   5   4
ENDBRANCH  11  10
BRANCH  21  23
ATOM     23  C   UNL     1      -4.025  -0.074  24.782  0.00  0.00    +0.083 A 
ATOM     24  C   UNL     1      -4.237  -0.609  24.191  0.00  0.00    +0.012 A 
ATOM     25  C   UNL     1      -3.970  -1.357  24.417  0.00  0.00    +0.008 A 
ATOM     26  C   UNL     1      -3.594  -1.285  25.147  0.00  0.00    +0.036 A 
ATOM     27  S   UNL     1      -3.628  -0.492  25.374  0.00  0.00    -0.082 S 
ENDBRANCH  21  23
TORSDOF 4
ENDMDL
MODEL 3
REMARK VINA RESULT:     -13.1      1.393      3.410
REMARK  Name = 
REMARK  4 active torsions:
REMARK  status: ('A' for Active; 'I' for Inactive)
REMARK    1  A    between atoms: N_2  and  C_4
REMARK    2  A    between atoms: C_4  and  C_5
REMARK    3  A    between atoms: C_10  and  C_11
REMARK    4  A    between atoms: C_21  and  C_23
REMARK                            x       y       z     vdW  Elec       q    Type
REMARK                         _______ _______ _______ _____ _____    ______ ____
ROOT
ATOM     11  C   UNL     1      -3.020   1.030  24.310  0.00  0.00    +0.056 A 
ATOM     12  C   UNL     1      -3.601   0.462  24.164  0.00  0.00    +0.006 A 
ATOM     13  C   UNL     1      -4.388   0.617  24.355  0.00  0.00    +0.013 A 
ATOM     14  C   UNL     1      -4.595   1.341  24.692  0.00  0.00    +0.041 A 
ATOM     15  C   UNL     1      -5.328   1.800  25.002  0.00  0.00    +0.058 C 
ATOM     16  C   UNL     1      -6.022   1.737  25.087  0.00  0.00    +0.011 C 
ATOM     17  C   UNL     1      -5.446   2.296  25.229  0.00  0.00    +0.043 C 
ATOM     18  C   UNL     1      -4.906   3.085  25.475  0.00  0.00    +0.096 C 
ATOM     19  N   UNL     1      -4.150   2.816  25.241  0.00  0.00    -0.275 N 
ATOM     20  C   UNL     1      -4.819   2.571  25.245  0.00  0.00    +0.100 C 
ATOM     21  C   UNL     1      -3.335   2.826  25.114  0.00  0.00    +0.255 C 
ATOM     22  O   UNL     1      -2.961   2.170  24.779  0.00  0.00    -0.269 OA
ATOM     28  C   UNL     1      -4.675   1.824  24.908  0.00  0.00    +0.110 C 
ATOM     29  N   UNL     1      -4.014   1.909  24.838  0.00  0.00    -0.299 N 
ATOM     30  C   UNL     1      -3.227   1.754  24.647  0.00  0.00    +0.261 A 
ATOM     31  O   UNL     1      -2.498   2.137  24.691  0.00  0.00    -0.267 OA
ENDROOT
BRANCH  11  10
ATOM      5  C   UNL     1      -1.822   0.279  24.516  0.00  0.00    -0.006 A 
ATOM      6  C   UNL     1      -1.034   0.123  24.324  0.00  0.00    -0.003 A 
ATOM      7  C   UNL     1      -0.660   0.562  23.734  0.00  0.00    -0.000 A 
ATOM      8  C   UNL     1      -1.071   1.156  23.337  0.00  0.00    -0.000 A 
ATOM      9  C   UNL     1      -1.858   1.312  23.529  0.00  0.00    -0.000 A 
ATOM     10  C   UNL     1      -2.234   0.873  24.118  0.00  0.00    +0.002 A 
BRANCH   5   4
ATOM      4  C   UNL     1      -2.198  -0.160  25.105  0.00  0.00    +0.099 C 
BRANCH   4   2
ATOM      1  C   UNL     1      -1.370  -0.635  26.168  0.00  0.00    +0.090 C 
ATOM      2  N   UNL     1      -1.797  -0.778  25.477  0.00  0.00    -0.267 NA
ATOM      3  C   UNL     1      -1.825  -1.538  25.159  0.00  0.00    +0.090 C 
ENDBRANCH   4   2
ENDBRANCH   5   4
ENDBRANCH  11  10
BRANCH  21  23
ATOM     23  C   UNL     1      -2.893   3.490  25.323  0.00  0.00    +0.083 A 
ATOM     24  C   UNL     1      -2.519   3.616  26.047  0.00  0.00    +0.012 A 
ATOM     25  C   UNL     1      -2.142   4.350  26.015  0.00  0.00    +0.008 A 
ATOM     26  C   UNL     1      -2.284   4.677  25.271  0.00  0.00    +0.036 A 
ATOM     27  S   UNL     1      -2.748   4.147  24.843  0.00  0.00    -0.082 S 
ENDBRANCH  21  23
TORSDOF 4
ENDMDL
MODEL 4
REMARK VINA RESULT:     -13.0      1.409      3.568
REMARK  Name = 
REMARK  4 active torsions:
REMARK  status: ('A' for Active; 'I' for Inactive)
REMARK    1  A    between atoms: N_2  and  C_4
REMARK    2  A    between atoms: C_4  and  C_5
REMARK    3  A    between atoms: C_10  and  C_11
REMARK    4  A    between atoms: C_21  and  C_23
REMARK                            x       y       z     vdW  Elec       q    Type
REMARK                         _______ _______ _______ _____ _____    ______ ____
ROOT
ATOM     11  C   UNL     1      -4.392   0.257  24.749  0.00  0.00    +0.056 A 
ATOM     12  C   UNL     1      -4.973   0.336  25.330  0.00  0.00    +0.006 A 
ATOM     13  C   UNL     1      -5.222   1.087  25.565  0.00  0.00    +0.013 A 
ATOM     14  C   UNL     1      -4.891   1.758  25.218  0.00  0.00    +0.041 A 
ATOM     15  C   UNL     1      -4.940   2.675  25.249  0.00  0.00    +0.058 C 
ATOM     16  C   UNL     1      -5.276   3.198  25.575  0.00  0.00    +0.011 C 
ATOM     17  C   UNL     1      -4.703   3.116  25.002  0.00  0.00    +0.043 C 
ATOM     18  C   UNL     1      -4.011   3.222  24.305  0.00  0.00    +0.096 C 
ATOM     19  N   UNL     1      -3.842   2.418  24.152  0.00  0.00    -0.275 N 
ATOM     20  C   UNL     1      -4.273   2.795  24.576  0.00  0.00    +0.100 C 
ATOM     21  C   UNL     1      -3.484   1.759  23.807  0.00  0.00    +0.255 C 
ATOM     22  O   UNL     1      -3.704   0.999  24.043  0.00  0.00    -0.269 OA
ATOM     28  C   UNL     1      -4.645   2.158  24.963  0.00  0.00    +0.110 C 
ATOM     29  N   UNL     1      -4.310   1.678  24.637  0.00  0.00    -0.299 N 
ATOM     30  C   UNL     1      -4.061   0.928  24.403  0.00  0.00    +0.261 A 
ATOM     31  O   UNL     1      -3.524   0.599  23.871  0.00  0.00    -0.267 OA
ENDROOT
BRANCH  11  10
ATOM      5  C   UNL     1      -3.640  -0.932  25.000  0.00  0.00    -0.006 A 
ATOM      6  C   UNL     1      -3.391  -1.683  24.766  0.00  0.00    -0.003 A 
ATOM      7  C   UNL     1      -3.648  -1.996  24.047  0.00  0.00    -0.000 A 
ATOM      8  C   UNL     1      -4.152  -1.558  23.562  0.00  0.00    -0.000 A 
ATOM      9  C   UNL     1      -4.400  -0.807  23.797  0.00  0.00    -0.000 A 
ATOM     10  C   UNL     1      -4.144  -0.494  24.516  0.00  0.00    +0.002 A 
BRANCH   5   4
ATOM      4  C   UNL     1      -3.384  -0.618  25.720  0.00  0.00    +0.099 C 
BRANCH   4   2
ATOM      1  C   UNL     1      -3.096  -1.604  26.714  0.00  0.00    +0.090 C 
ATOM      2  N   UNL     1      -2.837  -1.032  26.178  0.00  0.00    -0.267 NA
ATOM      3  C   UNL     1      -2.031  -0.874  26.101  0.00  0.00    +0.090 C 
ENDBRANCH   4   2
ENDBRANCH   5   4
ENDBRANCH  11  10
BRANCH  21  23
ATOM     23  C   UNL     1      -2.908   1.860  23.226  0.00  0.00    +0.083 A 
ATOM     24  C   UNL     1      -3.043   1.930  22.415  0.00  0.00    +0.012 A 
ATOM     25  C   UNL     1      -2.312   2.021  22.043  0.00  0.00    +0.008 A 
ATOM     26  C   UNL     1      -1.726   2.008  22.622  0.00  0.00    +0.036 A 
ATOM     27  S   UNL     1      -2.093   1.908  23.354  0.00  0.00    -0.082 S 
ENDBRANCH  21  23
TORSDOF 4
ENDMDL
MODEL 5
REMARK VINA RESULT:     -12.5      1.131      3.522
REMARK  Name = 
REMARK  4 active torsions:
REMARK  status: ('A' for Active; 'I' for Inactive)
REMARK    1  A    between atoms: N_2  and  C_4
REMARK    2  A    between atoms: C_4  and  C_5
REMARK    3  A    between atoms: C_10  and  C_11
REMARK    4  A    between atoms: C_21  and  C_23
REMARK                            x       y       z     vdW  Elec       q    Type
REMARK                         _______ _______ _______ _____ _____    ______ ____
ROOT
ATOM     11  C   UNL     1      -1.505   0.315  25.252  0.00  0.00    +0.056 A 
ATOM     12  C   UNL     1      -1.271  -0.454  25.441  0.00  0.00    +0.006 A 
ATOM     13  C   UNL     1      -1.821  -1.069  25.422  0.00  0.00    +0.013 A 
ATOM     14  C   UNL     1      -2.604  -0.915  25.213  0.00  0.00    +0.041 A 
ATOM     15  C   UNL     1      -3.409  -1.343  25.102  0.00  0.00    +0.058 C 
ATOM     16  C   UNL     1      -3.706  -1.977  25.145  0.00  0.00    +0.011 C 
ATOM     17  C   UNL     1      -3.934  -1.218  24.958  0.00  0.00    +0.043 C 
ATOM     18  C   UNL     1      -4.395  -0.381  24.704  0.00  0.00    +0.096 C 
ATOM     19  N   UNL     1      -3.755   0.153  24.759  0.00  0.00    -0.275 N 
ATOM     20  C   UNL     1      -3.869  -0.543  24.855  0.00  0.00    +0.100 C 
ATOM     21  C   UNL     1      -3.345   0.869  24.728  0.00  0.00    +0.255 C 
ATOM     22  O   UNL     1      -2.541   0.892  24.910  0.00  0.00    -0.269 OA
ATOM     28  C   UNL     1      -3.096  -0.762  25.072  0.00  0.00    +0.110 C 
ATOM     29  N   UNL     1      -2.837  -0.147  25.024  0.00  0.00    -0.299 N 
ATOM     30  C   UNL     1      -2.288   0.468  25.043  0.00  0.00    +0.261 A 
ATOM     31  O   UNL     1      -2.272   1.281  24.904  0.00  0.00    -0.267 OA
ENDROOT
BRANCH  11  10
ATOM      5  C   UNL     1      -0.360   0.969  24.700  0.00  0.00    -0.006 A 
ATOM      6  C   UNL     1       0.190   1.584  24.720  0.00  0.00    -0.003 A 
ATOM      7  C   UNL     1       0.145   2.158  25.311  0.00  0.00    -0.000 A 
ATOM      8  C   UNL     1      -0.449   2.118  25.882  0.00  0.00    -0.000 A 
ATOM      9  C   UNL     1      -0.999   1.503  25.862  0.00  0.00    -0.000 A 
ATOM     10  C   UNL     1      -0.955   0.929  25.271  0.00  0.00    +0.002 A 
BRANCH   5   4
ATOM      4  C   UNL     1      -0.316   0.395  24.110  0.00  0.00    +0.099 C 
BRANCH   4   2
ATOM      1  C   UNL     1       0.202   0.919  22.885  0.00  0.00    +0.090 C 
ATOM      2  N   UNL     1       0.285   0.430  23.545  0.00  0.00    -0.267 NA
ATOM      3  C   UNL     1       0.967  -0.023  23.639  0.00  0.00    +0.090 C 
ENDBRANCH   4   2
ENDBRANCH   5   4
ENDBRANCH  11  10
BRANCH  21  23
ATOM     23  C   UNL     1      -3.740   1.561  24.514  0.00  0.00    +0.083 A 
ATOM     24  C   UNL     1      -3.734   1.913  23.768  0.00  0.00    +0.012 A 
ATOM     25  C   UNL     1      -4.201   2.592  23.804  0.00  0.00    +0.008 A 
ATOM     26  C   UNL     1      -4.496   2.660  24.571  0.00  0.00    +0.036 A 
ATOM     27  S   UNL     1      -4.212   2.023  25.010  0.00  0.00    -0.082 S 
ENDBRANCH  21  23
TORSDOF 4
ENDMDL
MODEL 6
REMARK VINA RESULT:     -12.5      1.802      4.107
REMARK  Name = 
REMARK  4 active torsions:
REMARK  status: ('A' for Active; 'I' for Inactive)
REMARK    1  A    between atoms: N_2  and  C_4
REMARK    2  A    between atoms: C_4  and  C_5
REMARK    3  A    between atoms: C_10  and  C_11
REMARK    4  A    between atoms: C_21  and  C_23
REMARK                            x       y       z     vdW  Elec       q    Type
REMARK                         _______ _______ _______ _____ _____    ______ ____
ROOT
ATOM     11  C   UNL     1      -2.158   1.696  24.382  0.00  0.00    +0.056 A 
ATOM     12  C   UNL     1      -1.352   1.762  24.217  0.00  0.00    +0.006 A 
ATOM     13  C   UNL     1      -0.954   2.467  24.380  0.00  0.00    +0.013 A 
ATOM     14  C   UNL     1      -1.362   3.104  24.708  0.00  0.00    +0.041 A 
ATOM     15  C   UNL     1      -1.228   3.968  24.990  0.00  0.00    +0.058 C 
ATOM     16  C   UNL     1      -0.727   4.456  25.050  0.00  0.00    +0.011 C 
ATOM     17  C   UNL     1      -1.522   4.387  25.212  0.00  0.00    +0.043 C 
ATOM     18  C   UNL     1      -2.468   4.497  25.474  0.00  0.00    +0.096 C 
ATOM     19  N   UNL     1      -2.760   3.741  25.268  0.00  0.00    -0.275 N 
ATOM     20  C   UNL     1      -2.139   4.090  25.249  0.00  0.00    +0.100 C 
ATOM     21  C   UNL     1      -3.300   3.125  25.171  0.00  0.00    +0.255 C 
ATOM     22  O   UNL     1      -3.052   2.406  24.851  0.00  0.00    -0.269 OA
ATOM     28  C   UNL     1      -1.672   3.485  24.919  0.00  0.00    +0.110 C 
ATOM     29  N   UNL     1      -2.168   3.037  24.873  0.00  0.00    -0.299 N 
ATOM     30  C   UNL     1      -2.566   2.333  24.710  0.00  0.00    +0.261 A 
ATOM     31  O   UNL     1      -3.330   2.030  24.780  0.00  0.00    -0.267 OA
ENDROOT
BRANCH  11  10
ATOM      5  C   UNL     1      -2.347   0.299  24.617  0.00  0.00    -0.006 A 
ATOM      6  C   UNL     1      -2.744  -0.406  24.454  0.00  0.00    -0.003 A 
ATOM      7  C   UNL     1      -3.349  -0.417  23.893  0.00  0.00    -0.000 A 
ATOM      8  C   UNL     1      -3.556   0.275  23.495  0.00  0.00    -0.000 A 
ATOM      9  C   UNL     1      -3.159   0.979  23.658  0.00  0.00    -0.000 A 
ATOM     10  C   UNL     1      -2.554   0.991  24.220  0.00  0.00    +0.002 A 
BRANCH   5   4
ATOM      4  C   UNL     1      -1.742   0.311  25.179  0.00  0.00    +0.099 C 
BRANCH   4   2
ATOM      1  C   UNL     1      -1.862  -0.654  26.226  0.00  0.00    +0.090 C 
ATOM      2  N   UNL     1      -1.496  -0.392  25.534  0.00  0.00    -0.267 NA
ATOM      3  C   UNL     1      -0.884  -0.832  25.199  0.00  0.00    +0.090 C 
ENDBRANCH   4   2
ENDBRANCH   5   4
ENDBRANCH  11  10
BRANCH  21  23
ATOM     23  C   UNL     1      -4.087   3.228  25.394  0.00  0.00    +0.083 A 
ATOM     24  C   UNL     1      -4.425   2.988  26.107  0.00  0.00    +0.012 A 
ATOM     25  C   UNL     1      -5.222   3.201  26.096  0.00  0.00    +0.008 A 
ATOM     26  C   UNL     1      -5.377   3.573  25.376  0.00  0.00    +0.036 A 
ATOM     27  S   UNL     1      -4.676   3.590  24.942  0.00  0.00    -0.082 S 
ENDBRANCH  21  23
TORSDOF 4
ENDMDL
MODEL 7
REMARK VINA RESULT:     -12.3      1.485      2.695
REMARK  Name = 
REMARK  4 active torsions:
REMARK  status: ('A' for Active; 'I' for Inactive)
REMARK    1  A    between atoms: N_2  and  C_4
REMARK    2  A    between atoms: C_4  and  C_5
REMARK    3  A    between atoms: C_10  and  C_11
REMARK    4  A    between atoms: C_21  and  C_23
REMARK                            x       y       z     vdW  Elec       q    Type
REMARK                         _______ _______ _______ _____ _____    ______ ____
ROOT
ATOM     11  C   UNL     1      -2.173   1.885  24.052  0.00  0.00    +0.056 A 
ATOM     12  C   UNL     1      -1.516   2.267  23.731  0.00  0.00    +0.006 A 
ATOM     13  C   UNL     1      -0.808   1.855  23.627  0.00  0.00    +0.013 A 
ATOM     14  C   UNL     1      -0.758   1.062  23.845  0.00  0.00    +0.041 A 
ATOM     15  C   UNL     1      -0.161   0.363  23.862  0.00  0.00    +0.058 C 
ATOM     16  C   UNL     1       0.502   0.201  23.699  0.00  0.00    +0.011 C 
ATOM     17  C   UNL     1      -0.148  -0.173  24.016  0.00  0.00    +0.043 C 
ATOM     18  C   UNL     1      -0.812  -0.791  24.409  0.00  0.00    +0.096 C 
ATOM     19  N   UNL     1      -1.467  -0.275  24.465  0.00  0.00    -0.275 N 
ATOM     20  C   UNL     1      -0.791  -0.246  24.242  0.00  0.00    +0.100 C 
ATOM     21  C   UNL     1      -2.234  -0.020  24.634  0.00  0.00    +0.255 C 
ATOM     22  O   UNL     1      -2.454   0.759  24.474  0.00  0.00    -0.269 OA
ATOM     28  C   UNL     1      -0.778   0.551  24.003  0.00  0.00    +0.110 C 
ATOM     29  N   UNL     1      -1.414   0.679  24.167  0.00  0.00    -0.299 N 
ATOM     30  C   UNL     1      -2.122   1.091  24.271  0.00  0.00    +0.261 A 
ATOM     31  O   UNL     1      -2.881   0.942  24.556  0.00  0.00    -0.267 OA
ENDROOT
BRANCH  11  10
ATOM      5  C   UNL     1      -2.921   2.914  24.700  0.00  0.00    -0.006 A 
ATOM      6  C   UNL     1      -3.630   3.327  24.803  0.00  0.00    -0.003 A 
ATOM      7  C   UNL     1      -4.294   3.120  24.360  0.00  0.00    -0.000 A 
ATOM      8  C   UNL     1      -4.252   2.503  23.815  0.00  0.00    -0.000 A 
ATOM      9  C   UNL     1      -3.545   2.091  23.713  0.00  0.00    -0.000 A 
ATOM     10  C   UNL     1      -2.879   2.297  24.155  0.00  0.00    +0.002 A 
BRANCH   5   4
ATOM      4  C   UNL     1      -2.256   3.120  25.143  0.00  0.00    +0.099 C 
BRANCH   4   2
ATOM      1  C   UNL     1      -2.015   4.508  25.386  0.00  0.00    +0.090 C 
ATOM      2  N   UNL     1      -2.283   3.773  25.648  0.00  0.00    -0.267 NA
ATOM      3  C   UNL     1      -2.577   3.690  26.414  0.00  0.00    +0.090 C 
ENDBRANCH   4   2
ENDBRANCH   5   4
ENDBRANCH  11  10
BRANCH  21  23
ATOM     23  C   UNL     1      -2.779  -0.544  24.962  0.00  0.00    +0.083 A 
ATOM     24  C   UNL     1      -3.314  -1.013  24.544  0.00  0.00    +0.012 A 
ATOM     25  C   UNL     1      -3.751  -1.450  25.091  0.00  0.00    +0.008 A 
ATOM     26  C   UNL     1      -3.487  -1.251  25.846  0.00  0.00    +0.036 A 
ATOM     27  S   UNL     1      -2.887  -0.692  25.768  0.00  0.00    -0.082 S 
ENDBRANCH  21  23
TORSDOF 4
ENDMDL
