MODEL 1
REMARK VINA RESULT:     -10.4      0.000      0.000
REMARK  Name = 
REMARK  6 active torsions:
REMARK  status: ('A' for Active; 'I' for Inactive)
REMARK    1  A    between atoms: C_7  and  N_10
REMARK    2  A    between atoms: N_10  and  C_11
REMARK    3  A    between atoms: C_14  and  C_15
REMARK    4  A    between atoms: C_15  and  N_16
REMARK    5  A    between atoms: C_17  and  C_19
REMARK    6  A    between atoms: C_19  and  C_20
REMARK                            x       y       z     vdW  Elec       q    Type
REMARK                         _______ _______ _______ _____ _____    ______ ____
ROOT
ATOM     11  C   UNL     1      -4.075   1.038  24.486  0.00  0.00    +0.135 C 
ATOM     12  C   UNL     1      -3.403   1.011  24.007  0.00  0.00    +0.162 C 
ATOM     13  O   UNL     1      -3.046   1.755  24.027  0.00  0.00    -0.350 OA
ATOM     14  C   UNL     1      -3.497   2.241  24.517  0.00  0.00    +0.169 C 
ATOM     24  C   UNL     1      -4.133   1.798  24.801  0.00  0.00    +0.199 C 
ATOM     25  O   UNL     1      -4.723   2.069  25.310  0.00  0.00    -0.219 OA
ENDROOT
BRANCH  11  10
ATOM     10  N   UNL     1      -4.597   0.415  24.625  0.00  0.00    -0.216 NA
BRANCH  10   7
ATOM      1  C   UNL     1      -3.520  -3.181  24.176  0.00  0.00    +0.095 C 
ATOM      2  C   UNL     1      -3.457  -2.676  24.825  0.00  0.00    +0.226 C 
ATOM      3  O   UNL     1      -3.109  -2.943  25.524  0.00  0.00    -0.275 OA
ATOM      4  N   UNL     1      -3.742  -1.903  24.776  0.00  0.00    -0.279 N 
ATOM      5  C   UNL     1      -3.679  -1.397  25.424  0.00  0.00    +0.095 C 
ATOM      6  C   UNL     1      -3.964  -0.625  25.374  0.00  0.00    +0.039 C 
ATOM      7  C   UNL     1      -4.312  -0.358  24.675  0.00  0.00    +0.076 C 
ATOM      8  C   UNL     1      -4.375  -0.864  24.027  0.00  0.00    +0.039 C 
ATOM      9  C   UNL     1      -4.090  -1.636  24.076  0.00  0.00    +0.095 C 
ENDBRANCH  10   7
ENDBRANCH  11  10
BRANCH  14  15
ATOM     15  C   UNL     1      -3.340   3.032  24.693  0.00  0.00    +0.147 C 
BRANCH  15  16
ATOM     16  N   UNL     1      -2.626   3.241  25.050  0.00  0.00    -0.203 NA
ATOM     17  C   UNL     1      -2.402   4.034  25.092  0.00  0.00    +0.241 C 
ATOM     18  O   UNL     1      -2.894   4.618  24.777  0.00  0.00    -0.273 OA
BRANCH  17  19
ATOM     19  C   UNL     1      -1.689   4.244  25.448  0.00  0.00    +0.087 C 
BRANCH  19  20
ATOM     20  C   UNL     1      -1.174   4.764  25.067  0.00  0.00    +0.009 C 
ATOM     21  C   UNL     1      -0.660   5.284  24.686  0.00  0.00    +0.000 C 
ATOM     22  C   UNL     1      -0.667   4.137  24.896  0.00  0.00    +0.000 C 
ATOM     23  C   UNL     1      -1.682   5.392  25.237  0.00  0.00    +0.000 C 
ENDBRANCH  19  20
ENDBRANCH  17  19
ENDBRANCH  15  16
ENDBRANCH  14  15
TORSDOF 6
ENDMDL
MODEL 2
REMARK VINA RESULT:      -9.8      1.800      5.969
REMARK  Name = 
REMARK  6 active torsions:
REMARK  status: ('A' for Active; 'I' for Inactive)
REMARK    1  A    between atoms: C_7  and  N_10
REMARK    2  A    between atoms: N_10  and  C_11
REMARK    3  A    between atoms: C_14  and  C_15
REMARK    4  A    between atoms: C_15  and  N_16
REMARK    5  A    between atoms: C_17  and  C_19
REMARK    6  A    between atoms: C_19  and  C_20
REMARK                            x       y       z     vdW  Elec       q    Type
REMARK                         _______ _______ _______ _____ _____    ______ ____
ROOT
ATOM     11  C   UNL     1      -0.702   1.176  24.972  0.00  0.00    +0.135 C 
ATOM     12  C   UNL     1      -0.966   1.212  24.191  0.00  0.00    +0.162 C 
ATOM     13  O   UNL     1      -1.309   0.485  24.004  0.00  0.00    -0.350 OA
ATOM     14  C   UNL     1      -1.257   0.000  24.669  0.00  0.00    +0.169 C 
ATOM     24  C   UNL     1      -0.881   0.428  25.267  0.00  0.00    +0.199 C 
ATOM     25  O   UNL     1      -0.715   0.154  26.028  0.00  0.00    -0.219 OA
ENDROOT
BRANCH  11  10
ATOM     10  N   UNL     1      -0.324   1.783  25.384  0.00  0.00    -0.216 NA
BRANCH  10   7
ATOM      1  C   UNL     1      -1.187   5.413  24.777  0.00  0.00    +0.095 C 
ATOM      2  C   UNL     1      -1.532   4.852  25.273  0.00  0.00    +0.226 C 
ATOM      3  O   UNL     1      -2.179   5.058  25.743  0.00  0.00    -0.275 OA
ATOM      4  N   UNL     1      -1.230   4.085  25.302  0.00  0.00    -0.279 N 
ATOM      5  C   UNL     1      -1.575   3.524  25.798  0.00  0.00    +0.095 C 
ATOM      6  C   UNL     1      -1.272   2.756  25.826  0.00  0.00    +0.039 C 
ATOM      7  C   UNL     1      -0.626   2.550  25.357  0.00  0.00    +0.076 C 
ATOM      8  C   UNL     1      -0.282   3.111  24.860  0.00  0.00    +0.039 C 
ATOM      9  C   UNL     1      -0.583   3.879  24.832  0.00  0.00    +0.095 C 
ENDBRANCH  10   7
ENDBRANCH  11  10
BRANCH  14  15
ATOM     15  C   UNL     1      -1.532  -0.775  24.727  0.00  0.00    +0.147 C 
BRANCH  15  16
ATOM     16  N   UNL     1      -2.338  -0.922  24.826  0.00  0.00    -0.203 NA
ATOM     17  C   UNL     1      -2.637  -1.682  24.710  0.00  0.00    +0.241 C 
ATOM     18  O   UNL     1      -2.129  -2.296  24.495  0.00  0.00    -0.273 OA
BRANCH  17  19
ATOM     19  C   UNL     1      -3.442  -1.828  24.809  0.00  0.00    +0.087 C 
BRANCH  19  20
ATOM     20  C   UNL     1      -3.840  -2.319  24.278  0.00  0.00    +0.009 C 
ATOM     21  C   UNL     1      -4.238  -2.811  23.748  0.00  0.00    +0.000 C 
ATOM     22  C   UNL     1      -3.531  -2.981  24.660  0.00  0.00    +0.000 C 
ATOM     23  C   UNL     1      -4.150  -1.657  23.896  0.00  0.00    +0.000 C 
ENDBRANCH  19  20
ENDBRANCH  17  19
ENDBRANCH  15  16
ENDBRANCH  14  15
TORSDOF 6
ENDMDL
MODEL 3
REMARK VINA RESULT:      -9.3      1.077      5.619
REMARK  Name = 
REMARK  6 active torsions:
REMARK  status: ('A' for Active; 'I' for Inactive)
REMARK    1  A    between atoms: C_7  and  N_10
REMARK    2  A    between atoms: N_10  and  C_11
REMARK    3  A    between atoms: C_14  and  C_15
REMARK    4  A    between atoms: C_15  and  N_16
REMARK    5  A    between atoms: C_17  and  C_19
REMARK    6  A    between atoms: C_19  and  C_20
REMARK                            x       y       z     vdW  Elec       q    Type
REMARK                         _______ _______ _______ _____ _____    ______ ____
ROOT
ATOM     11  C   UNL     1      -3.843   2.133  24.602  0.00  0.00    +0.135 C 
ATOM     12  C   UNL     1      -3.487   2.033  23.864  0.00  0.00    +0.162 C 
ATOM     13  O   UNL     1      -3.612   1.253  23.625  0.00  0.00    -0.350 OA
ATOM     14  C   UNL     1      -4.045   0.871  24.214  0.00  0.00    +0.169 C 
ATOM     24  C   UNL     1      -4.188   1.416  24.818  0.00  0.00    +0.199 C 
ATOM     25  O   UNL     1      -4.604   1.268  25.515  0.00  0.00    -0.219 OA
ENDROOT
BRANCH  11  10
ATOM     10  N   UNL     1      -3.853   2.829  25.045  0.00  0.00    -0.216 NA
BRANCH  10   7
ATOM      1  C   UNL     1      -1.191   5.504  24.817  0.00  0.00    +0.095 C 
ATOM      2  C   UNL     1      -1.172   4.751  25.153  0.00  0.00    +0.226 C 
ATOM      3  O   UNL     1      -0.483   4.478  25.517  0.00  0.00    -0.275 OA
ATOM      4  N   UNL     1      -1.842   4.270  25.127  0.00  0.00    -0.279 N 
ATOM      5  C   UNL     1      -1.823   3.517  25.463  0.00  0.00    +0.095 C 
ATOM      6  C   UNL     1      -2.494   3.037  25.436  0.00  0.00    +0.039 C 
ATOM      7  C   UNL     1      -3.182   3.309  25.073  0.00  0.00    +0.076 C 
ATOM      8  C   UNL     1      -3.201   4.062  24.736  0.00  0.00    +0.039 C 
ATOM      9  C   UNL     1      -2.531   4.543  24.763  0.00  0.00    +0.095 C 
ENDBRANCH  10   7
ENDBRANCH  11  10
BRANCH  14  15
ATOM     15  C   UNL     1      -4.293   0.085  24.202  0.00  0.00    +0.147 C 
BRANCH  15  16
ATOM     16  N   UNL     1      -3.743  -0.519  24.082  0.00  0.00    -0.203 NA
ATOM     17  C   UNL     1      -3.989  -1.307  24.083  0.00  0.00    +0.241 C 
ATOM     18  O   UNL     1      -4.785  -1.490  24.203  0.00  0.00    -0.273 OA
BRANCH  17  19
ATOM     19  C   UNL     1      -3.440  -1.910  23.963  0.00  0.00    +0.087 C 
BRANCH  19  20
ATOM     20  C   UNL     1      -3.465  -2.589  24.432  0.00  0.00    +0.009 C 
ATOM     21  C   UNL     1      -3.490  -3.268  24.900  0.00  0.00    +0.000 C 
ATOM     22  C   UNL     1      -4.032  -2.915  23.929  0.00  0.00    +0.000 C 
ATOM     23  C   UNL     1      -2.897  -2.264  24.934  0.00  0.00    +0.000 C 
ENDBRANCH  19  20
ENDBRANCH  17  19
ENDBRANCH  15  16
ENDBRANCH  14  15
TORSDOF 6
ENDMDL
MODEL 4
REMARK VINA RESULT:      -9.2      1.991      2.468
REMARK  Name = 
REMARK  6 active torsions:
REMARK  status: ('A' for Active; 'I' for Inactive)
REMARK    1  A    between atoms: C_7  and  N_10
REMARK    2  A    between atoms: N_10  and  C_11
REMARK    3  A    between atoms: C_14  and  C_15
REMARK    4  A    between atoms: C_15  and  N_16
REMARK    5  A    between atoms: C_17  and  C_19
REMARK    6  A    between atoms: C_19  and  C_20
REMARK                            x       y       z     vdW  Elec       q    Type
REMARK                         _______ _______ _______ _____ _____    ______ ____
ROOT
ATOM     11  C   UNL     1      -0.748   0.019  24.794  0.00  0.00    +0.135 C 
ATOM     12  C   UNL     1      -1.015   0.223  25.548  0.00  0.00    +0.162 C 
ATOM     13  O   UNL     1      -0.926   1.039  25.637  0.00  0.00    -0.350 OA
ATOM     14  C   UNL     1      -0.604   1.338  24.939  0.00  0.00    +0.169 C 
ATOM     24  C   UNL     1      -0.494   0.707  24.418  0.00  0.00    +0.199 C 
ATOM     25  O   UNL     1      -0.184   0.757  23.655  0.00  0.00    -0.219 OA
ENDROOT
BRANCH  11  10
ATOM     10  N   UNL     1      -0.737  -0.741  24.473  0.00  0.00    -0.216 NA
BRANCH  10   7
ATOM      1  C   UNL     1      -4.126  -2.377  24.114  0.00  0.00    +0.095 C 
ATOM      2  C   UNL     1      -3.462  -2.600  24.550  0.00  0.00    +0.226 C 
ATOM      3  O   UNL     1      -3.480  -3.289  25.006  0.00  0.00    -0.275 OA
ATOM      4  N   UNL     1      -2.781  -2.136  24.532  0.00  0.00    -0.279 N 
ATOM      5  C   UNL     1      -2.117  -2.359  24.968  0.00  0.00    +0.095 C 
ATOM      6  C   UNL     1      -1.436  -1.894  24.948  0.00  0.00    +0.039 C 
ATOM      7  C   UNL     1      -1.418  -1.207  24.493  0.00  0.00    +0.076 C 
ATOM      8  C   UNL     1      -2.082  -0.984  24.057  0.00  0.00    +0.039 C 
ATOM      9  C   UNL     1      -2.763  -1.448  24.076  0.00  0.00    +0.095 C 
ENDBRANCH  10   7
ENDBRANCH  11  10
BRANCH  14  15
ATOM     15  C   UNL     1      -0.423   2.128  24.788  0.00  0.00    +0.147 C 
BRANCH  15  16
ATOM     16  N   UNL     1      -0.706   2.720  25.289  0.00  0.00    -0.203 NA
ATOM     17  C   UNL     1      -0.721   3.505  25.035  0.00  0.00    +0.241 C 
ATOM     18  O   UNL     1      -0.451   3.698  24.279  0.00  0.00    -0.273 OA
BRANCH  17  19
ATOM     19  C   UNL     1      -1.004   4.095  25.536  0.00  0.00    +0.087 C 
BRANCH  19  20
ATOM     20  C   UNL     1      -1.445   4.721  25.227  0.00  0.00    +0.009 C 
ATOM     21  C   UNL     1      -1.886   5.346  24.919  0.00  0.00    +0.000 C 
ATOM     22  C   UNL     1      -0.753   5.069  24.944  0.00  0.00    +0.000 C 
ATOM     23  C   UNL     1      -2.137   4.373  25.510  0.00  0.00    +0.000 C 
ENDBRANCH  19  20
ENDBRANCH  17  19
ENDBRANCH  15  16
ENDBRANCH  14  15
TORSDOF 6
ENDMDL
