MODEL 1
REMARK VINA RESULT:     -11.7      0.000      0.000
REMARK  Name = 
REMARK  6 active torsions:
REMARK  status: ('A' for Active; 'I' for Inactive)
REMARK    1  A    between atoms: C_5  and  C_6
REMARK    2  A    between atoms: C_6  and  N_7
REMARK    3  A    between atoms: N_7  and  C_8
REMARK    4  A    between atoms: C_8  and  C_9
REMARK    5  A    between atoms: C_9  and  C_10
REMARK    6  A    between atoms: C_13  and  C_15
REMARK                            x       y       z     vdW  Elec       q    Type
REMARK                         _______ _______ _______ _____ _____    ______ ____
ROOT
ATOM      9  C   UNL     1      -3.539   1.252  24.148  0.00  0.00    +0.070 C 
ENDROOT
BRANCH   9  10
ATOM     10  C   UNL     1      -2.892   1.645  24.475  0.00  0.00    +0.102 A 
ATOM     11  N   UNL     1      -2.657   1.617  25.265  0.00  0.00    -0.081 NA
ATOM     12  O   UNL     1      -1.985   2.089  25.348  0.00  0.00    -0.349 OA
ATOM     13  C   UNL     1      -1.806   2.408  24.609  0.00  0.00    +0.230 A 
ATOM     14  C   UNL     1      -2.366   2.134  24.070  0.00  0.00    +0.063 A 
BRANCH  13  15
ATOM     15  C   UNL     1      -1.176   2.914  24.439  0.00  0.00    +0.286 C 
ATOM     16  O   UNL     1      -0.514   2.629  24.038  0.00  0.00    -0.266 OA
ATOM     17  N   UNL     1      -1.208   3.706  24.670  0.00  0.00    -0.274 N 
ATOM     18  C   UNL     1      -0.579   4.211  24.500  0.00  0.00    +0.094 C 
ATOM     19  C   UNL     1      -0.611   5.002  24.731  0.00  0.00    +0.022 C 
ATOM     20  C   UNL     1      -1.273   5.288  25.132  0.00  0.00    +0.004 C 
ATOM     21  C   UNL     1      -1.903   4.783  25.302  0.00  0.00    +0.022 C 
ATOM     22  C   UNL     1      -1.870   3.992  25.071  0.00  0.00    +0.094 C 
ENDBRANCH  13  15
ENDBRANCH   9  10
BRANCH   9   8
ATOM      8  C   UNL     1      -4.188   1.060  24.621  0.00  0.00    +0.120 C 
ATOM     23  C   UNL     1      -4.836   0.869  25.094  0.00  0.00    +0.161 C 
ATOM     24  O   UNL     1      -5.109   1.644  25.034  0.00  0.00    -0.351 OA
ATOM     25  C   UNL     1      -4.461   1.837  24.561  0.00  0.00    +0.161 C 
BRANCH   8   7
ATOM      7  N   UNL     1      -3.914   0.284  24.681  0.00  0.00    -0.211 NA
BRANCH   7   6
ATOM      6  C   UNL     1      -4.433  -0.347  24.571  0.00  0.00    +0.115 C 
BRANCH   6   5
ATOM      1  F   UNL     1      -3.274  -3.433  24.434  0.00  0.00    -0.204 F 
ATOM      2  C   UNL     1      -3.564  -2.662  24.468  0.00  0.00    +0.140 A 
ATOM      3  C   UNL     1      -3.451  -2.208  25.148  0.00  0.00    +0.029 A 
ATOM      4  C   UNL     1      -3.740  -1.437  25.182  0.00  0.00    -0.001 A 
ATOM      5  C   UNL     1      -4.144  -1.118  24.537  0.00  0.00    -0.005 A 
ATOM     26  C   UNL     1      -4.256  -1.572  23.857  0.00  0.00    -0.001 A 
ATOM     27  C   UNL     1      -3.967  -2.343  23.823  0.00  0.00    +0.029 A 
ENDBRANCH   6   5
ENDBRANCH   7   6
ENDBRANCH   8   7
ENDBRANCH   9   8
TORSDOF 6
ENDMDL
MODEL 2
REMARK VINA RESULT:     -11.7      2.273      5.222
REMARK  Name = 
REMARK  6 active torsions:
REMARK  status: ('A' for Active; 'I' for Inactive)
REMARK    1  A    between atoms: C_5  and  C_6
REMARK    2  A    between atoms: C_6  and  N_7
REMARK    3  A    between atoms: N_7  and  C_8
REMARK    4  A    between atoms: C_8  and  C_9
REMARK    5  A    between atoms: C_9  and  C_10
REMARK    6  A    between atoms: C_13  and  C_15
REMARK                            x       y       z     vdW  Elec       q    Type
REMARK                         _______ _______ _______ _____ _____    ______ ____
ROOT
ATOM      9  C   UNL     1      -4.449   1.824  24.564  0.00  0.00    +0.070 C 
ENDROOT
BRANCH   9  10
ATOM     10  C   UNL     1      -4.337   1.076  24.894  0.00  0.00    +0.102 A 
ATOM     11  N   UNL     1      -4.859   0.688  25.401  0.00  0.00    -0.081 NA
ATOM     12  O   UNL     1      -4.528  -0.043  25.595  0.00  0.00    -0.349 OA
ATOM     13  C   UNL     1      -3.803  -0.105  25.208  0.00  0.00    +0.230 A 
ATOM     14  C   UNL     1      -3.685   0.586  24.775  0.00  0.00    +0.063 A 
BRANCH  13  15
ATOM     15  C   UNL     1      -3.285  -0.747  25.247  0.00  0.00    +0.286 C 
ATOM     16  O   UNL     1      -2.610  -0.705  25.720  0.00  0.00    -0.266 OA
ATOM     17  N   UNL     1      -3.443  -1.431  24.814  0.00  0.00    -0.274 N 
ATOM     18  C   UNL     1      -2.926  -2.072  24.854  0.00  0.00    +0.094 C 
ATOM     19  C   UNL     1      -3.084  -2.756  24.421  0.00  0.00    +0.022 C 
ATOM     20  C   UNL     1      -3.758  -2.799  23.948  0.00  0.00    +0.004 C 
ATOM     21  C   UNL     1      -4.275  -2.158  23.908  0.00  0.00    +0.022 C 
ATOM     22  C   UNL     1      -4.117  -1.474  24.342  0.00  0.00    +0.094 C 
ENDBRANCH  13  15
ENDBRANCH   9  10
BRANCH   9   8
ATOM      8  C   UNL     1      -4.817   2.419  25.003  0.00  0.00    +0.120 C 
ATOM     23  C   UNL     1      -5.184   3.012  25.442  0.00  0.00    +0.161 C 
ATOM     24  O   UNL     1      -5.921   2.688  25.264  0.00  0.00    -0.351 OA
ATOM     25  C   UNL     1      -5.554   2.093  24.825  0.00  0.00    +0.161 C 
BRANCH   8   7
ATOM      7  N   UNL     1      -4.079   2.743  25.181  0.00  0.00    -0.211 NA
BRANCH   7   6
ATOM      6  C   UNL     1      -3.964   3.559  25.135  0.00  0.00    +0.115 C 
BRANCH   6   5
ATOM      1  F   UNL     1      -0.929   4.818  25.427  0.00  0.00    -0.204 F 
ATOM      2  C   UNL     1      -1.687   4.504  25.354  0.00  0.00    +0.140 A 
ATOM      3  C   UNL     1      -2.029   4.419  24.608  0.00  0.00    +0.029 A 
ATOM      4  C   UNL     1      -2.788   4.105  24.535  0.00  0.00    -0.001 A 
ATOM      5  C   UNL     1      -3.206   3.874  25.208  0.00  0.00    -0.005 A 
ATOM     26  C   UNL     1      -2.864   3.958  25.954  0.00  0.00    -0.001 A 
ATOM     27  C   UNL     1      -2.105   4.273  26.027  0.00  0.00    +0.029 A 
ENDBRANCH   6   5
ENDBRANCH   7   6
ENDBRANCH   8   7
ENDBRANCH   9   8
TORSDOF 6
ENDMDL
MODEL 3
REMARK VINA RESULT:     -11.1      2.252      5.094
REMARK  Name = 
REMARK  6 active torsions:
REMARK  status: ('A' for Active; 'I' for Inactive)
REMARK    1  A    between atoms: C_5  and  C_6
REMARK    2  A    between atoms: C_6  and  N_7
REMARK    3  A    between atoms: N_7  and  C_8
REMARK    4  A    between atoms: C_8  and  C_9
REMARK    5  A    between atoms: C_9  and  C_10
REMARK    6  A    between atoms: C_13  and  C_15
REMARK                            x       y       z     vdW  Elec       q    Type
REMARK                         _______ _______ _______ _____ _____    ______ ____
ROOT
ATOM      9  C   UNL     1      -1.006   1.485  25.348  0.00  0.00    +0.070 C 
ENDROOT
BRANCH   9  10
ATOM     10  C   UNL     1      -1.093   0.745  24.994  0.00  0.00    +0.102 A 
ATOM     11  N   UNL     1      -0.855   0.542  24.231  0.00  0.00    -0.081 NA
ATOM     12  O   UNL     1      -1.049  -0.250  24.106  0.00  0.00    -0.349 OA
ATOM     13  C   UNL     1      -1.405  -0.536  24.793  0.00  0.00    +0.230 A 
ATOM     14  C   UNL     1      -1.432   0.078  25.341  0.00  0.00    +0.063 A 
BRANCH  13  15
ATOM     15  C   UNL     1      -1.686  -1.304  24.910  0.00  0.00    +0.286 C 
ATOM     16  O   UNL     1      -1.196  -1.874  25.249  0.00  0.00    -0.266 OA
ATOM     17  N   UNL     1      -2.456  -1.500  24.688  0.00  0.00    -0.274 N 
ATOM     18  C   UNL     1      -2.735  -2.267  24.805  0.00  0.00    +0.094 C 
ATOM     19  C   UNL     1      -3.505  -2.463  24.583  0.00  0.00    +0.022 C 
ATOM     20  C   UNL     1      -3.995  -1.893  24.244  0.00  0.00    +0.004 C 
ATOM     21  C   UNL     1      -3.715  -1.126  24.126  0.00  0.00    +0.022 C 
ATOM     22  C   UNL     1      -2.945  -0.930  24.349  0.00  0.00    +0.094 C 
ENDBRANCH  13  15
ENDBRANCH   9  10
BRANCH   9   8
ATOM      8  C   UNL     1      -0.849   2.149  24.883  0.00  0.00    +0.120 C 
ATOM     23  C   UNL     1      -0.692   2.813  24.419  0.00  0.00    +0.161 C 
ATOM     24  O   UNL     1       0.112   2.633  24.434  0.00  0.00    -0.351 OA
ATOM     25  C   UNL     1      -0.044   1.969  24.898  0.00  0.00    +0.161 C 
BRANCH   8   7
ATOM      7  N   UNL     1      -1.654   2.329  24.869  0.00  0.00    -0.211 NA
BRANCH   7   6
ATOM      6  C   UNL     1      -1.906   3.110  24.950  0.00  0.00    +0.115 C 
BRANCH   6   5
ATOM      1  F   UNL     1      -5.122   3.790  25.231  0.00  0.00    -0.204 F 
ATOM      2  C   UNL     1      -4.318   3.620  25.161  0.00  0.00    +0.140 A 
ATOM      3  C   UNL     1      -4.021   3.316  24.454  0.00  0.00    +0.029 A 
ATOM      4  C   UNL     1      -3.217   3.146  24.384  0.00  0.00    -0.001 A 
ATOM      5  C   UNL     1      -2.709   3.280  25.020  0.00  0.00    -0.005 A 
ATOM     26  C   UNL     1      -3.007   3.584  25.727  0.00  0.00    -0.001 A 
ATOM     27  C   UNL     1      -3.811   3.754  25.797  0.00  0.00    +0.029 A 
ENDBRANCH   6   5
ENDBRANCH   7   6
ENDBRANCH   8   7
ENDBRANCH   9   8
TORSDOF 6
ENDMDL
