MODEL 1
REMARK VINA RESULT:     -11.2      0.000      0.000
REMARK  Name = 
REMARK  4 active torsions:
REMARK  status: ('A' for Active; 'I' for Inactive)
REMARK    1  A    between atoms: C_2  and  C_4
REMARK    2  A    between atoms: C_6  and  C_7
REMARK    3  A    between atoms: C_7  and  C_8
REMARK    4  A    between atoms: C_20  and  C_21
REMARK                            x       y       z     vdW  Elec       q    Type
REMARK                         _______ _______ _______ _____ _____    ______ ____
ROOT
ATOM      4  C   UNL     1      -3.209   1.971  23.966  0.00  0.00    +0.006 C 
ATOM      5  C   UNL     1      -3.684   1.302  24.051  0.00  0.00    +0.005 C 
ATOM      6  C   UNL     1      -4.339   1.324  24.552  0.00  0.00    +0.026 C 
ATOM     17  C   UNL     1      -4.519   2.015  24.968  0.00  0.00    -0.048 C 
ATOM     18  C   UNL     1      -5.174   2.036  25.469  0.00  0.00    +0.026 C 
ATOM     19  C   UNL     1      -4.042   2.682  24.882  0.00  0.00    -0.033 C 
ATOM     20  C   UNL     1      -3.387   2.661  24.381  0.00  0.00    +0.040 C 
ENDROOT
BRANCH   4   2
ATOM      1  C   UNL     1      -2.647   2.088  22.657  0.00  0.00    +0.000 C 
ATOM      2  C   UNL     1      -2.554   1.949  23.465  0.00  0.00    +0.000 C 
ATOM      3  C   UNL     1      -1.804   1.788  23.772  0.00  0.00    +0.000 C 
ENDBRANCH   4   2
BRANCH  20  21
ATOM     21  C   UNL     1      -2.911   3.329  24.295  0.00  0.00    +0.114 C 
ATOM     22  N   UNL     1      -3.073   4.010  24.732  0.00  0.00    -0.131 NA
ENDBRANCH  20  21
BRANCH   6   7
ATOM      7  C   UNL     1      -4.816   0.656  24.639  0.00  0.00    +0.070 C 
BRANCH   7   8
ATOM      8  C   UNL     1      -4.472  -0.092  24.696  0.00  0.00    +0.141 A 
ATOM      9  N   UNL     1      -4.454  -0.664  24.103  0.00  0.00    -0.228 NA
ATOM     10  C   UNL     1      -4.058  -1.324  24.397  0.00  0.00    +0.118 A 
ATOM     11  C   UNL     1      -3.830  -1.160  25.173  0.00  0.00    +0.181 A 
ATOM     12  N   UNL     1      -4.087  -0.398  25.358  0.00  0.00    -0.210 NA
ATOM     13  N   UNL     1      -3.419  -1.726  25.610  0.00  0.00    -0.224 NA
ATOM     14  C   UNL     1      -3.236  -2.455  25.273  0.00  0.00    +0.101 A 
ATOM     15  C   UNL     1      -3.463  -2.619  24.497  0.00  0.00    +0.022 A 
ATOM     16  C   UNL     1      -3.874  -2.054  24.059  0.00  0.00    +0.024 A 
ENDBRANCH   7   8
ENDBRANCH   6   7
TORSDOF 4
ENDMDL
MODEL 2
REMARK VINA RESULT:     -10.9      0.836      2.051
REMARK  Name = 
REMARK  4 active torsions:
REMARK  status: ('A' for Active; 'I' for Inactive)
REMARK    1  A    between atoms: C_2  and  C_4
REMARK    2  A    between atoms: C_6  and  C_7
REMARK    3  A    between atoms: C_7  and  C_8
REMARK    4  A    between atoms: C_20  and  C_21
REMARK                            x       y       z     vdW  Elec       q    Type
REMARK                         _______ _______ _______ _____ _____    ______ ____
ROOT
ATOM      4  C   UNL     1      -5.021   1.999  24.941  0.00  0.00    +0.006 C 
ATOM      5  C   UNL     1      -4.617   1.416  24.519  0.00  0.00    +0.005 C 
ATOM      6  C   UNL     1      -3.866   1.572  24.218  0.00  0.00    +0.026 C 
ATOM     17  C   UNL     1      -3.517   2.311  24.338  0.00  0.00    -0.048 C 
ATOM     18  C   UNL     1      -2.765   2.467  24.037  0.00  0.00    +0.026 C 
ATOM     19  C   UNL     1      -3.922   2.893  24.760  0.00  0.00    -0.033 C 
ATOM     20  C   UNL     1      -4.674   2.737  25.062  0.00  0.00    +0.040 C 
ENDROOT
BRANCH   4   2
ATOM      1  C   UNL     1      -5.867   1.650  26.039  0.00  0.00    +0.000 C 
ATOM      2  C   UNL     1      -5.773   1.843  25.243  0.00  0.00    +0.000 C 
ATOM      3  C   UNL     1      -6.433   1.880  24.747  0.00  0.00    +0.000 C 
ENDBRANCH   4   2
BRANCH  20  21
ATOM     21  C   UNL     1      -5.078   3.320  25.483  0.00  0.00    +0.114 C 
ATOM     22  N   UNL     1      -4.760   4.078  25.547  0.00  0.00    -0.131 NA
ENDBRANCH  20  21
BRANCH   6   7
ATOM      7  C   UNL     1      -3.461   0.990  23.796  0.00  0.00    +0.070 C 
BRANCH   7   8
ATOM      8  C   UNL     1      -3.485   0.205  24.048  0.00  0.00    +0.141 A 
ATOM      9  N   UNL     1      -3.920  -0.403  23.699  0.00  0.00    -0.228 NA
ATOM     10  C   UNL     1      -3.783  -1.094  24.129  0.00  0.00    +0.118 A 
ATOM     11  C   UNL     1      -3.263  -0.913  24.743  0.00  0.00    +0.181 A 
ATOM     12  N   UNL     1      -3.079  -0.110  24.694  0.00  0.00    -0.210 NA
ATOM     13  N   UNL     1      -3.024  -1.503  25.269  0.00  0.00    -0.224 NA
ATOM     14  C   UNL     1      -3.305  -2.273  25.180  0.00  0.00    +0.101 A 
ATOM     15  C   UNL     1      -3.825  -2.454  24.565  0.00  0.00    +0.022 A 
ATOM     16  C   UNL     1      -4.064  -1.865  24.039  0.00  0.00    +0.024 A 
ENDBRANCH   7   8
ENDBRANCH   6   7
TORSDOF 4
ENDMDL
MODEL 3
REMARK VINA RESULT:     -10.8      1.470      3.984
REMARK  Name = 
REMARK  4 active torsions:
REMARK  status: ('A' for Active; 'I' for Inactive)
REMARK    1  A    between atoms: C_2  and  C_4
REMARK    2  A    between atoms: C_6  and  C_7
REMARK    3  A    between atoms: C_7  and  C_8
REMARK    4  A    between atoms: C_20  and  C_21
REMARK                            x       y       z     vdW  Elec       q    Type
REMARK                         _______ _______ _______ _____ _____    ______ ____
ROOT
ATOM      4  C   UNL     1      -2.299  -0.828  25.100  0.00  0.00    +0.006 C 
ATOM      5  C   UNL     1      -2.959  -0.333  25.125  0.00  0.00    +0.005 C 
ATOM      6  C   UNL     1      -3.657  -0.560  24.749  0.00  0.00    +0.026 C 
ATOM     17  C   UNL     1      -3.696  -1.280  24.348  0.00  0.00    -0.048 C 
ATOM     18  C   UNL     1      -4.395  -1.507  23.972  0.00  0.00    +0.026 C 
ATOM     19  C   UNL     1      -3.036  -1.774  24.324  0.00  0.00    -0.033 C 
ATOM     20  C   UNL     1      -2.337  -1.548  24.700  0.00  0.00    +0.040 C 
ENDROOT
BRANCH   4   2
ATOM      1  C   UNL     1      -1.487  -0.773  26.275  0.00  0.00    +0.000 C 
ATOM      2  C   UNL     1      -1.600  -0.602  25.476  0.00  0.00    +0.000 C 
ATOM      3  C   UNL     1      -1.013  -0.204  25.053  0.00  0.00    +0.000 C 
ENDBRANCH   4   2
BRANCH  20  21
ATOM     21  C   UNL     1      -1.677  -2.043  24.675  0.00  0.00    +0.114 C 
ATOM     22  N   UNL     1      -1.714  -2.761  24.273  0.00  0.00    -0.131 NA
ENDBRANCH  20  21
BRANCH   6   7
ATOM      7  C   UNL     1      -4.318  -0.066  24.773  0.00  0.00    +0.070 C 
BRANCH   7   8
ATOM      8  C   UNL     1      -4.227   0.750  24.691  0.00  0.00    +0.141 A 
ATOM      9  N   UNL     1      -4.018   1.148  24.000  0.00  0.00    -0.228 NA
ATOM     10  C   UNL     1      -3.991   1.955  24.168  0.00  0.00    +0.118 A 
ATOM     11  C   UNL     1      -4.183   2.056  24.964  0.00  0.00    +0.181 A 
ATOM     12  N   UNL     1      -4.329   1.311  25.288  0.00  0.00    -0.210 NA
ATOM     13  N   UNL     1      -4.201   2.813  25.291  0.00  0.00    -0.224 NA
ATOM     14  C   UNL     1      -4.026   3.469  24.823  0.00  0.00    +0.101 A 
ATOM     15  C   UNL     1      -3.833   3.368  24.027  0.00  0.00    +0.022 A 
ATOM     16  C   UNL     1      -3.816   2.611  23.699  0.00  0.00    +0.024 A 
ENDBRANCH   7   8
ENDBRANCH   6   7
TORSDOF 4
ENDMDL
MODEL 4
REMARK VINA RESULT:     -10.7      2.043      4.425
REMARK  Name = 
REMARK  4 active torsions:
REMARK  status: ('A' for Active; 'I' for Inactive)
REMARK    1  A    between atoms: C_2  and  C_4
REMARK    2  A    between atoms: C_6  and  C_7
REMARK    3  A    between atoms: C_7  and  C_8
REMARK    4  A    between atoms: C_20  and  C_21
REMARK                            x       y       z     vdW  Elec       q    Type
REMARK                         _______ _______ _______ _____ _____    ______ ____
ROOT
ATOM      4  C   UNL     1      -3.430  -0.688  24.708  0.00  0.00    +0.006 C 
ATOM      5  C   UNL     1      -2.706  -0.498  25.055  0.00  0.00    +0.005 C 
ATOM      6  C   UNL     1      -2.099  -1.057  25.077  0.00  0.00    +0.026 C 
ATOM     17  C   UNL     1      -2.217  -1.806  24.752  0.00  0.00    -0.048 C 
ATOM     18  C   UNL     1      -1.611  -2.365  24.774  0.00  0.00    +0.026 C 
ATOM     19  C   UNL     1      -2.941  -1.996  24.405  0.00  0.00    -0.033 C 
ATOM     20  C   UNL     1      -3.547  -1.437  24.383  0.00  0.00    +0.040 C 
ENDROOT
BRANCH   4   2
ATOM      1  C   UNL     1      -4.144   0.336  24.014  0.00  0.00    +0.000 C 
ATOM      2  C   UNL     1      -4.036  -0.129  24.686  0.00  0.00    +0.000 C 
ATOM      3  C   UNL     1      -4.535  -0.036  25.337  0.00  0.00    +0.000 C 
ENDBRANCH   4   2
BRANCH  20  21
ATOM     21  C   UNL     1      -4.271  -1.627  24.035  0.00  0.00    +0.114 C 
ATOM     22  N   UNL     1      -4.396  -2.383  23.731  0.00  0.00    -0.131 NA
ENDBRANCH  20  21
BRANCH   6   7
ATOM      7  C   UNL     1      -1.376  -0.867  25.424  0.00  0.00    +0.070 C 
BRANCH   7   8
ATOM      8  C   UNL     1      -1.032  -0.130  25.287  0.00  0.00    +0.141 A 
ATOM      9  N   UNL     1      -1.051   0.517  25.798  0.00  0.00    -0.228 NA
ATOM     10  C   UNL     1      -0.640   1.136  25.441  0.00  0.00    +0.118 A 
ATOM     11  C   UNL     1      -0.366   0.872  24.709  0.00  0.00    +0.181 A 
ATOM     12  N   UNL     1      -0.608   0.090  24.613  0.00  0.00    -0.210 NA
ATOM     13  N   UNL     1       0.069   1.379  24.224  0.00  0.00    -0.224 NA
ATOM     14  C   UNL     1       0.229   2.149  24.471  0.00  0.00    +0.101 A 
ATOM     15  C   UNL     1      -0.045   2.413  25.203  0.00  0.00    +0.022 A 
ATOM     16  C   UNL     1      -0.479   1.907  25.688  0.00  0.00    +0.024 A 
ENDBRANCH   7   8
ENDBRANCH   6   7
TORSDOF 4
ENDMDL
MODEL 5
REMARK VINA RESULT:     -10.5      2.559      3.698
REMARK  Name = 
REMARK  4 active torsions:
REMARK  status: ('A' for Active; 'I' for Inactive)
REMARK    1  A    between atoms: C_2  and  C_4
REMARK    2  A    between atoms: C_6  and  C_7
REMARK    3  A    between atoms: C_7  and  C_8
REMARK    4  A    between atoms: C_20  and  C_21
REMARK                            x       y       z     vdW  Elec       q    Type
REMARK                         _______ _______ _______ _____ _____    ______ ____
ROOT
ATOM      4  C   UNL     1      -1.277   2.139  25.087  0.00  0.00    +0.006 C 
ATOM      5  C   UNL     1      -1.977   2.476  24.809  0.00  0.00    +0.005 C 
ATOM      6  C   UNL     1      -2.124   3.279  24.930  0.00  0.00    +0.026 C 
ATOM     17  C   UNL     1      -1.570   3.744  25.329  0.00  0.00    -0.048 C 
ATOM     18  C   UNL     1      -1.717   4.547  25.450  0.00  0.00    +0.026 C 
ATOM     19  C   UNL     1      -0.871   3.406  25.607  0.00  0.00    -0.033 C 
ATOM     20  C   UNL     1      -0.725   2.603  25.486  0.00  0.00    +0.040 C 
ENDROOT
BRANCH   4   2
ATOM      1  C   UNL     1      -1.332   0.787  25.548  0.00  0.00    +0.000 C 
ATOM      2  C   UNL     1      -1.130   1.336  24.967  0.00  0.00    +0.000 C 
ATOM      3  C   UNL     1      -0.781   1.081  24.263  0.00  0.00    +0.000 C 
ENDBRANCH   4   2
BRANCH  20  21
ATOM     21  C   UNL     1      -0.025   2.266  25.764  0.00  0.00    +0.114 C 
ATOM     22  N   UNL     1       0.489   2.708  26.233  0.00  0.00    -0.131 NA
ENDBRANCH  20  21
BRANCH   6   7
ATOM      7  C   UNL     1      -2.823   3.617  24.652  0.00  0.00    +0.070 C 
BRANCH   7   8
ATOM      8  C   UNL     1      -3.550   3.274  24.837  0.00  0.00    +0.141 A 
ATOM      9  N   UNL     1      -3.976   2.754  24.360  0.00  0.00    -0.228 NA
ATOM     10  C   UNL     1      -4.667   2.549  24.760  0.00  0.00    +0.118 A 
ATOM     11  C   UNL     1      -4.669   2.944  25.485  0.00  0.00    +0.181 A 
ATOM     12  N   UNL     1      -3.978   3.391  25.533  0.00  0.00    -0.210 NA
ATOM     13  N   UNL     1      -5.299   2.843  26.007  0.00  0.00    -0.224 NA
ATOM     14  C   UNL     1      -5.928   2.349  25.805  0.00  0.00    +0.101 A 
ATOM     15  C   UNL     1      -5.926   1.955  25.081  0.00  0.00    +0.022 A 
ATOM     16  C   UNL     1      -5.297   2.055  24.558  0.00  0.00    +0.024 A 
ENDBRANCH   7   8
ENDBRANCH   6   7
TORSDOF 4
ENDMDL
MODEL 6
REMARK VINA RESULT:     -10.4      1.649      2.169
REMARK  Name = 
REMARK  4 active torsions:
REMARK  status: ('A' for Active; 'I' for Inactive)
REMARK    1  A    between atoms: C_2  and  C_4
REMARK    2  A    between atoms: C_6  and  C_7
REMARK    3  A    between atoms: C_7  and  C_8
REMARK    4  A    between atoms: C_20  and  C_21
REMARK                            x       y       z     vdW  Elec       q    Type
REMARK                         _______ _______ _______ _____ _____    ______ ____
ROOT
ATOM      4  C   UNL     1      -3.952   2.784  24.900  0.00  0.00    +0.006 C 
ATOM      5  C   UNL     1      -3.699   2.065  24.584  0.00  0.00    +0.005 C 
ATOM      6  C   UNL     1      -4.202   1.411  24.595  0.00  0.00    +0.026 C 
ATOM     17  C   UNL     1      -4.957   1.476  24.921  0.00  0.00    -0.048 C 
ATOM     18  C   UNL     1      -5.460   0.822  24.932  0.00  0.00    +0.026 C 
ATOM     19  C   UNL     1      -5.209   2.196  25.237  0.00  0.00    -0.033 C 
ATOM     20  C   UNL     1      -4.706   2.850  25.226  0.00  0.00    +0.040 C 
ENDROOT
BRANCH   4   2
ATOM      1  C   UNL     1      -3.425   3.930  24.228  0.00  0.00    +0.000 C 
ATOM      2  C   UNL     1      -3.449   3.438  24.890  0.00  0.00    +0.000 C 
ATOM      3  C   UNL     1      -2.970   3.601  25.542  0.00  0.00    +0.000 C 
ENDBRANCH   4   2
BRANCH  20  21
ATOM     21  C   UNL     1      -4.959   3.569  25.542  0.00  0.00    +0.114 C 
ATOM     22  N   UNL     1      -5.731   3.649  25.822  0.00  0.00    -0.131 NA
ENDBRANCH  20  21
BRANCH   6   7
ATOM      7  C   UNL     1      -3.950   0.692  24.279  0.00  0.00    +0.070 C 
BRANCH   7   8
ATOM      8  C   UNL     1      -3.224   0.372  24.506  0.00  0.00    +0.141 A 
ATOM      9  N   UNL     1      -3.072  -0.037  25.206  0.00  0.00    -0.228 NA
ATOM     10  C   UNL     1      -2.278  -0.256  25.206  0.00  0.00    +0.118 A 
ATOM     11  C   UNL     1      -1.938   0.018  24.505  0.00  0.00    +0.181 A 
ATOM     12  N   UNL     1      -2.523   0.406  24.073  0.00  0.00    -0.210 NA
ATOM     13  N   UNL     1      -1.139  -0.123  24.352  0.00  0.00    -0.224 NA
ATOM     14  C   UNL     1      -0.681  -0.536  24.899  0.00  0.00    +0.101 A 
ATOM     15  C   UNL     1      -1.020  -0.809  25.599  0.00  0.00    +0.022 A 
ATOM     16  C   UNL     1      -1.818  -0.669  25.753  0.00  0.00    +0.024 A 
ENDBRANCH   7   8
ENDBRANCH   6   7
TORSDOF 4
ENDMDL
