MODEL 1
REMARK VINA RESULT:     -11.5      0.000      0.000
REMARK  Name = 
REMARK  3 active torsions:
REMARK  status: ('A' for Active; 'I' for Inactive)
REMARK    1  A    between atoms: C_6  and  C_7
REMARK    2  A    between atoms: C_7  and  N_8
REMARK    3  A    between atoms: C_18  and  C_20
REMARK                            x       y       z     vdW  Elec       q    Type
REMARK                         _______ _______ _______ _____ _____    ______ ____
ROOT
ATOM      8  N   UNL     1      -1.380   2.514  25.053  0.00  0.00    -0.255 N 
ATOM      9  C   UNL     1      -2.195   2.406  25.123  0.00  0.00    +0.117 C 
ATOM     10  C   UNL     1      -2.356   1.606  25.007  0.00  0.00    +0.116 C 
ATOM     11  C   UNL     1      -3.062   1.177  25.013  0.00  0.00    +0.115 C 
ATOM     12  N   UNL     1      -3.053   0.365  24.876  0.00  0.00    -0.273 N 
ATOM     13  C   UNL     1      -2.338  -0.021  24.733  0.00  0.00    +0.115 C 
ATOM     14  C   UNL     1      -1.632   0.405  24.727  0.00  0.00    +0.116 C 
ATOM     15  N   UNL     1      -1.641   1.219  24.865  0.00  0.00    -0.261 N 
ATOM     16  C   UNL     1      -1.038   1.781  24.893  0.00  0.00    +0.308 C 
ATOM     17  O   UNL     1      -0.234   1.635  24.780  0.00  0.00    -0.252 OA
ATOM     18  C   UNL     1      -3.758  -0.063  24.881  0.00  0.00    +0.249 C 
ATOM     19  O   UNL     1      -4.473   0.323  25.024  0.00  0.00    -0.270 OA
ENDROOT
BRANCH  18  20
ATOM     20  C   UNL     1      -3.749  -0.876  24.744  0.00  0.00    +0.054 A 
ATOM     21  C   UNL     1      -3.533  -1.395  25.349  0.00  0.00    +0.005 A 
ATOM     22  C   UNL     1      -3.524  -2.208  25.212  0.00  0.00    +0.012 A 
ATOM     23  C   UNL     1      -3.731  -2.503  24.470  0.00  0.00    +0.058 A 
ATOM     24 CL   UNL     1      -3.722  -3.317  24.333  0.00  0.00    -0.082 Cl
ATOM     25  C   UNL     1      -3.947  -1.986  23.865  0.00  0.00    +0.012 A 
ATOM     26  C   UNL     1      -3.956  -1.172  24.002  0.00  0.00    +0.005 A 
ENDBRANCH  18  20
BRANCH   8   7
ATOM      7  C   UNL     1      -0.978   3.231  25.128  0.00  0.00    +0.159 C 
BRANCH   7   6
ATOM      1  C   UNL     1      -0.513   4.872  24.571  0.00  0.00    +0.132 C 
ATOM      2  N   UNL     1      -1.185   4.682  25.010  0.00  0.00    -0.310 N 
ATOM      3  C   UNL     1      -1.760   5.212  25.271  0.00  0.00    +0.098 A 
ATOM      4  C   UNL     1      -2.330   4.785  25.688  0.00  0.00    +0.119 A 
ATOM      5  N   UNL     1      -2.106   3.991  25.686  0.00  0.00    -0.228 NA
ATOM      6  C   UNL     1      -1.398   3.927  25.266  0.00  0.00    +0.141 A 
ENDBRANCH   7   6
ENDBRANCH   8   7
TORSDOF 3
ENDMDL
MODEL 2
REMARK VINA RESULT:     -11.1      2.218      5.461
REMARK  Name = 
REMARK  3 active torsions:
REMARK  status: ('A' for Active; 'I' for Inactive)
REMARK    1  A    between atoms: C_6  and  C_7
REMARK    2  A    between atoms: C_7  and  N_8
REMARK    3  A    between atoms: C_18  and  C_20
REMARK                            x       y       z     vdW  Elec       q    Type
REMARK                         _______ _______ _______ _____ _____    ______ ____
ROOT
ATOM      8  N   UNL     1      -2.865  -0.240  24.566  0.00  0.00    -0.255 N 
ATOM      9  C   UNL     1      -2.291  -0.003  25.110  0.00  0.00    +0.117 C 
ATOM     10  C   UNL     1      -2.196   0.813  25.040  0.00  0.00    +0.116 C 
ATOM     11  C   UNL     1      -1.707   1.348  25.435  0.00  0.00    +0.115 C 
ATOM     12  N   UNL     1      -1.732   2.149  25.244  0.00  0.00    -0.273 N 
ATOM     13  C   UNL     1      -2.247   2.417  24.657  0.00  0.00    +0.115 C 
ATOM     14  C   UNL     1      -2.736   1.884  24.262  0.00  0.00    +0.116 C 
ATOM     15  N   UNL     1      -2.711   1.081  24.454  0.00  0.00    -0.261 N 
ATOM     16  C   UNL     1      -3.124   0.431  24.161  0.00  0.00    +0.308 C 
ATOM     17  O   UNL     1      -3.696   0.447  23.567  0.00  0.00    -0.252 OA
ATOM     18  C   UNL     1      -1.243   2.684  25.638  0.00  0.00    +0.249 C 
ATOM     19  O   UNL     1      -0.728   2.416  26.225  0.00  0.00    -0.270 OA
ENDROOT
BRANCH  18  20
ATOM     20  C   UNL     1      -1.268   3.486  25.447  0.00  0.00    +0.054 A 
ATOM     21  C   UNL     1      -0.688   3.813  24.960  0.00  0.00    +0.005 A 
ATOM     22  C   UNL     1      -0.713   4.614  24.769  0.00  0.00    +0.012 A 
ATOM     23  C   UNL     1      -1.319   5.090  25.064  0.00  0.00    +0.058 A 
ATOM     24 CL   UNL     1      -1.345   5.893  24.873  0.00  0.00    -0.082 Cl
ATOM     25  C   UNL     1      -1.900   4.764  25.551  0.00  0.00    +0.012 A 
ATOM     26  C   UNL     1      -1.874   3.961  25.742  0.00  0.00    +0.005 A 
ENDBRANCH  18  20
BRANCH   8   7
ATOM      7  C   UNL     1      -3.133  -1.011  24.449  0.00  0.00    +0.159 C 
BRANCH   7   6
ATOM      1  C   UNL     1      -3.519  -2.709  24.884  0.00  0.00    +0.132 C 
ATOM      2  N   UNL     1      -2.777  -2.421  24.668  0.00  0.00    -0.310 N 
ATOM      3  C   UNL     1      -2.083  -2.863  24.614  0.00  0.00    +0.098 A 
ATOM      4  C   UNL     1      -1.476  -2.355  24.381  0.00  0.00    +0.119 A 
ATOM      5  N   UNL     1      -1.795  -1.599  24.290  0.00  0.00    -0.228 NA
ATOM      6  C   UNL     1      -2.600  -1.640  24.468  0.00  0.00    +0.141 A 
ENDBRANCH   7   6
ENDBRANCH   8   7
TORSDOF 3
ENDMDL
