MODEL 1
REMARK VINA RESULT:     -12.5      0.000      0.000
REMARK  Name = 
REMARK  6 active torsions:
REMARK  status: ('A' for Active; 'I' for Inactive)
REMARK    1  A    between atoms: O_2  and  C_3
REMARK    2  A    between atoms: C_6  and  C_7
REMARK    3  A    between atoms: C_7  and  N_8
REMARK    4  A    between atoms: N_12  and  C_13
REMARK    5  A    between atoms: C_13  and  C_14
REMARK    6  A    between atoms: C_17  and  C_20
REMARK                            x       y       z     vdW  Elec       q    Type
REMARK                         _______ _______ _______ _____ _____    ______ ____
ROOT
ATOM      8  N   UNL     1      -1.521   2.506  24.884  0.00  0.00    -0.258 N 
ATOM      9  C   UNL     1      -1.855   1.901  25.336  0.00  0.00    +0.116 C 
ATOM     10  C   UNL     1      -1.453   1.202  25.162  0.00  0.00    +0.113 C 
ATOM     11  C   UNL     1      -1.541   0.430  25.439  0.00  0.00    +0.094 C 
ATOM     12  N   UNL     1      -1.049  -0.168  25.159  0.00  0.00    -0.266 NA
ATOM     24  C   UNL     1      -0.467   0.005  24.600  0.00  0.00    +0.094 C 
ATOM     25  C   UNL     1      -0.378   0.776  24.322  0.00  0.00    +0.112 C 
ATOM     26  N   UNL     1      -0.871   1.375  24.603  0.00  0.00    -0.261 N 
ATOM     27  C   UNL     1      -0.913   2.181  24.432  0.00  0.00    +0.308 C 
ATOM     28  O   UNL     1      -0.432   2.590  23.901  0.00  0.00    -0.252 OA
ENDROOT
BRANCH   8   7
ATOM      7  C   UNL     1      -1.755   3.297  24.886  0.00  0.00    +0.122 C 
BRANCH   7   6
ATOM      3  C   UNL     1      -4.129   3.888  25.256  0.00  0.00    +0.139 A 
ATOM      4  C   UNL     1      -3.876   3.649  24.509  0.00  0.00    +0.037 A 
ATOM      5  C   UNL     1      -3.084   3.452  24.385  0.00  0.00    +0.001 A 
ATOM      6  C   UNL     1      -2.546   3.494  25.009  0.00  0.00    -0.002 A 
ATOM     29  C   UNL     1      -2.800   3.733  25.757  0.00  0.00    +0.001 A 
ATOM     30  C   UNL     1      -3.592   3.930  25.880  0.00  0.00    +0.037 A 
BRANCH   3   2
ATOM      1  C   UNL     1      -5.460   3.505  25.610  0.00  0.00    +0.252 C 
ATOM      2  O   UNL     1      -4.921   4.085  25.380  0.00  0.00    -0.471 OA
ENDBRANCH   3   2
ENDBRANCH   7   6
ENDBRANCH   8   7
BRANCH  12  13
ATOM     13  C   UNL     1      -1.137  -0.940  25.436  0.00  0.00    +0.099 C 
BRANCH  13  14
ATOM     14  C   UNL     1      -1.769  -1.402  25.178  0.00  0.00    -0.006 A 
ATOM     15  C   UNL     1      -2.507  -1.332  25.538  0.00  0.00    -0.003 A 
ATOM     16  C   UNL     1      -3.139  -1.794  25.279  0.00  0.00    +0.004 A 
ATOM     17  C   UNL     1      -3.033  -2.328  24.659  0.00  0.00    +0.071 A 
ATOM     18  C   UNL     1      -2.295  -2.399  24.298  0.00  0.00    +0.004 A 
ATOM     19  C   UNL     1      -1.662  -1.936  24.558  0.00  0.00    -0.003 A 
BRANCH  17  20
ATOM     20  C   UNL     1      -3.665  -2.791  24.400  0.00  0.00    +0.419 C 
ATOM     21  F   UNL     1      -4.297  -3.253  24.141  0.00  0.00    -0.166 F 
ATOM     22  F   UNL     1      -3.539  -3.313  25.026  0.00  0.00    -0.166 F 
ATOM     23  F   UNL     1      -3.790  -2.268  23.774  0.00  0.00    -0.166 F 
ENDBRANCH  17  20
ENDBRANCH  13  14
ENDBRANCH  12  13
TORSDOF 6
ENDMDL
MODEL 2
REMARK VINA RESULT:     -11.7      1.785      2.855
REMARK  Name = 
REMARK  6 active torsions:
REMARK  status: ('A' for Active; 'I' for Inactive)
REMARK    1  A    between atoms: O_2  and  C_3
REMARK    2  A    between atoms: C_6  and  C_7
REMARK    3  A    between atoms: C_7  and  N_8
REMARK    4  A    between atoms: N_12  and  C_13
REMARK    5  A    between atoms: C_13  and  C_14
REMARK    6  A    between atoms: C_17  and  C_20
REMARK                            x       y       z     vdW  Elec       q    Type
REMARK                         _______ _______ _______ _____ _____    ______ ____
ROOT
ATOM      8  N   UNL     1      -3.719   3.038  25.471  0.00  0.00    -0.258 N 
ATOM      9  C   UNL     1      -3.249   2.570  24.979  0.00  0.00    +0.116 C 
ATOM     10  C   UNL     1      -3.693   1.914  24.753  0.00  0.00    +0.113 C 
ATOM     11  C   UNL     1      -3.517   1.267  24.272  0.00  0.00    +0.094 C 
ATOM     12  N   UNL     1      -4.083   0.682  24.142  0.00  0.00    -0.266 NA
ATOM     24  C   UNL     1      -4.827   0.743  24.494  0.00  0.00    +0.094 C 
ATOM     25  C   UNL     1      -5.004   1.389  24.975  0.00  0.00    +0.112 C 
ATOM     26  N   UNL     1      -4.437   1.975  25.105  0.00  0.00    -0.261 N 
ATOM     27  C   UNL     1      -4.453   2.669  25.548  0.00  0.00    +0.308 C 
ATOM     28  O   UNL     1      -5.091   2.947  25.992  0.00  0.00    -0.252 OA
ENDROOT
BRANCH   8   7
ATOM      7  C   UNL     1      -3.494   3.749  25.824  0.00  0.00    +0.122 C 
BRANCH   7   6
ATOM      3  C   UNL     1      -1.349   4.815  25.204  0.00  0.00    +0.139 A 
ATOM      4  C   UNL     1      -1.359   4.192  25.744  0.00  0.00    +0.037 A 
ATOM      5  C   UNL     1      -2.074   3.836  25.951  0.00  0.00    +0.001 A 
ATOM      6  C   UNL     1      -2.779   4.104  25.618  0.00  0.00    -0.002 A 
ATOM     29  C   UNL     1      -2.770   4.728  25.077  0.00  0.00    +0.001 A 
ATOM     30  C   UNL     1      -2.054   5.083  24.871  0.00  0.00    +0.037 A 
BRANCH   3   2
ATOM      1  C   UNL     1      -0.237   4.935  24.314  0.00  0.00    +0.252 C 
ATOM      2  O   UNL     1      -0.634   5.171  24.997  0.00  0.00    -0.471 OA
ENDBRANCH   3   2
ENDBRANCH   7   6
ENDBRANCH   8   7
BRANCH  12  13
ATOM     13  C   UNL     1      -3.907   0.035  23.661  0.00  0.00    +0.099 C 
BRANCH  13  14
ATOM     14  C   UNL     1      -3.797  -0.711  23.995  0.00  0.00    -0.006 A 
ATOM     15  C   UNL     1      -4.375  -1.293  23.905  0.00  0.00    -0.003 A 
ATOM     16  C   UNL     1      -4.265  -2.039  24.239  0.00  0.00    +0.004 A 
ATOM     17  C   UNL     1      -3.577  -2.203  24.665  0.00  0.00    +0.071 A 
ATOM     18  C   UNL     1      -2.999  -1.622  24.755  0.00  0.00    +0.004 A 
ATOM     19  C   UNL     1      -3.109  -0.875  24.421  0.00  0.00    -0.003 A 
BRANCH  17  20
ATOM     20  C   UNL     1      -3.467  -2.949  24.999  0.00  0.00    +0.419 C 
ATOM     21  F   UNL     1      -3.357  -3.695  25.333  0.00  0.00    -0.166 F 
ATOM     22  F   UNL     1      -3.601  -2.632  25.749  0.00  0.00    -0.166 F 
ATOM     23  F   UNL     1      -3.334  -3.266  24.249  0.00  0.00    -0.166 F 
ENDBRANCH  17  20
ENDBRANCH  13  14
ENDBRANCH  12  13
TORSDOF 6
ENDMDL
MODEL 3
REMARK VINA RESULT:     -11.5      3.224      5.805
REMARK  Name = 
REMARK  6 active torsions:
REMARK  status: ('A' for Active; 'I' for Inactive)
REMARK    1  A    between atoms: O_2  and  C_3
REMARK    2  A    between atoms: C_6  and  C_7
REMARK    3  A    between atoms: C_7  and  N_8
REMARK    4  A    between atoms: N_12  and  C_13
REMARK    5  A    between atoms: C_13  and  C_14
REMARK    6  A    between atoms: C_17  and  C_20
REMARK                            x       y       z     vdW  Elec       q    Type
REMARK                         _______ _______ _______ _____ _____    ______ ____
ROOT
ATOM      8  N   UNL     1      -4.622   0.976  24.798  0.00  0.00    -0.258 N 
ATOM      9  C   UNL     1      -3.908   1.227  25.128  0.00  0.00    +0.116 C 
ATOM     10  C   UNL     1      -3.997   2.013  25.360  0.00  0.00    +0.113 C 
ATOM     11  C   UNL     1      -3.478   2.546  25.716  0.00  0.00    +0.094 C 
ATOM     12  N   UNL     1      -3.727   3.314  25.886  0.00  0.00    -0.266 NA
ATOM     24  C   UNL     1      -4.495   3.549  25.699  0.00  0.00    +0.094 C 
ATOM     25  C   UNL     1      -5.015   3.017  25.343  0.00  0.00    +0.112 C 
ATOM     26  N   UNL     1      -4.765   2.248  25.173  0.00  0.00    -0.261 N 
ATOM     27  C   UNL     1      -5.151   1.608  24.826  0.00  0.00    +0.308 C 
ATOM     28  O   UNL     1      -5.931   1.600  24.554  0.00  0.00    -0.252 OA
ENDROOT
BRANCH   8   7
ATOM      7  C   UNL     1      -4.778   0.225  24.494  0.00  0.00    +0.122 C 
BRANCH   7   6
ATOM      3  C   UNL     1      -3.118  -1.591  24.762  0.00  0.00    +0.139 A 
ATOM      4  C   UNL     1      -3.595  -1.371  25.398  0.00  0.00    +0.037 A 
ATOM      5  C   UNL     1      -4.148  -0.766  25.309  0.00  0.00    +0.001 A 
ATOM      6  C   UNL     1      -4.225  -0.380  24.584  0.00  0.00    -0.002 A 
ATOM     29  C   UNL     1      -3.747  -0.600  23.947  0.00  0.00    +0.001 A 
ATOM     30  C   UNL     1      -3.194  -1.205  24.037  0.00  0.00    +0.037 A 
BRANCH   3   2
ATOM      1  C   UNL     1      -1.788  -2.086  24.595  0.00  0.00    +0.252 C 
ATOM      2  O   UNL     1      -2.564  -2.196  24.851  0.00  0.00    -0.471 OA
ENDBRANCH   3   2
ENDBRANCH   7   6
ENDBRANCH   8   7
BRANCH  12  13
ATOM     13  C   UNL     1      -3.208   3.847  26.243  0.00  0.00    +0.099 C 
BRANCH  13  14
ATOM     14  C   UNL     1      -2.547   4.119  25.832  0.00  0.00    -0.006 A 
ATOM     15  C   UNL     1      -2.602   4.795  25.363  0.00  0.00    -0.003 A 
ATOM     16  C   UNL     1      -1.942   5.067  24.951  0.00  0.00    +0.004 A 
ATOM     17  C   UNL     1      -1.225   4.662  25.008  0.00  0.00    +0.071 A 
ATOM     18  C   UNL     1      -1.169   3.986  25.476  0.00  0.00    +0.004 A 
ATOM     19  C   UNL     1      -1.831   3.714  25.889  0.00  0.00    -0.003 A 
BRANCH  17  20
ATOM     20  C   UNL     1      -0.563   4.934  24.596  0.00  0.00    +0.419 C 
ATOM     21  F   UNL     1       0.097   5.206  24.184  0.00  0.00    -0.166 F 
ATOM     22  F   UNL     1      -0.638   5.670  24.961  0.00  0.00    -0.166 F 
ATOM     23  F   UNL     1      -0.489   4.198  24.230  0.00  0.00    -0.166 F 
ENDBRANCH  17  20
ENDBRANCH  13  14
ENDBRANCH  12  13
TORSDOF 6
ENDMDL
MODEL 4
REMARK VINA RESULT:     -11.1      2.226      4.748
REMARK  Name = 
REMARK  6 active torsions:
REMARK  status: ('A' for Active; 'I' for Inactive)
REMARK    1  A    between atoms: O_2  and  C_3
REMARK    2  A    between atoms: C_6  and  C_7
REMARK    3  A    between atoms: C_7  and  N_8
REMARK    4  A    between atoms: N_12  and  C_13
REMARK    5  A    between atoms: C_13  and  C_14
REMARK    6  A    between atoms: C_17  and  C_20
REMARK                            x       y       z     vdW  Elec       q    Type
REMARK                         _______ _______ _______ _____ _____    ______ ____
ROOT
ATOM      8  N   UNL     1      -0.748   1.520  24.987  0.00  0.00    -0.258 N 
ATOM      9  C   UNL     1      -1.488   1.529  24.621  0.00  0.00    +0.116 C 
ATOM     10  C   UNL     1      -1.855   2.243  24.809  0.00  0.00    +0.113 C 
ATOM     11  C   UNL     1      -2.590   2.557  24.604  0.00  0.00    +0.094 C 
ATOM     12  N   UNL     1      -2.813   3.302  24.880  0.00  0.00    -0.266 NA
ATOM     24  C   UNL     1      -2.300   3.733  25.361  0.00  0.00    +0.094 C 
ATOM     25  C   UNL     1      -1.565   3.421  25.567  0.00  0.00    +0.112 C 
ATOM     26  N   UNL     1      -1.343   2.675  25.290  0.00  0.00    -0.261 N 
ATOM     27  C   UNL     1      -0.659   2.228  25.400  0.00  0.00    +0.308 C 
ATOM     28  O   UNL     1      -0.000   2.450  25.846  0.00  0.00    -0.252 OA
ENDROOT
BRANCH   8   7
ATOM      7  C   UNL     1      -0.195   0.909  24.946  0.00  0.00    +0.122 C 
BRANCH   7   6
ATOM      3  C   UNL     1      -0.954  -1.445  24.839  0.00  0.00    +0.139 A 
ATOM      4  C   UNL     1      -1.039  -1.015  25.538  0.00  0.00    +0.037 A 
ATOM      5  C   UNL     1      -0.787  -0.231  25.574  0.00  0.00    +0.001 A 
ATOM      6  C   UNL     1      -0.448   0.124  24.911  0.00  0.00    -0.002 A 
ATOM     29  C   UNL     1      -0.362  -0.305  24.211  0.00  0.00    +0.001 A 
ATOM     30  C   UNL     1      -0.615  -1.089  24.176  0.00  0.00    +0.037 A 
BRANCH   3   2
ATOM      1  C   UNL     1      -1.964  -2.407  24.530  0.00  0.00    +0.252 C 
ATOM      2  O   UNL     1      -1.207  -2.229  24.802  0.00  0.00    -0.471 OA
ENDBRANCH   3   2
ENDBRANCH   7   6
ENDBRANCH   8   7
BRANCH  12  13
ATOM     13  C   UNL     1      -3.548   3.616  24.675  0.00  0.00    +0.099 C 
BRANCH  13  14
ATOM     14  C   UNL     1      -4.240   3.229  24.901  0.00  0.00    -0.006 A 
ATOM     15  C   UNL     1      -4.591   2.680  24.394  0.00  0.00    -0.003 A 
ATOM     16  C   UNL     1      -5.283   2.293  24.621  0.00  0.00    +0.004 A 
ATOM     17  C   UNL     1      -5.625   2.454  25.354  0.00  0.00    +0.071 A 
ATOM     18  C   UNL     1      -5.274   3.002  25.861  0.00  0.00    +0.004 A 
ATOM     19  C   UNL     1      -4.581   3.390  25.634  0.00  0.00    -0.003 A 
BRANCH  17  20
ATOM     20  C   UNL     1      -6.318   2.067  25.581  0.00  0.00    +0.419 C 
ATOM     21  F   UNL     1      -7.010   1.680  25.807  0.00  0.00    -0.166 F 
ATOM     22  F   UNL     1      -6.097   2.137  26.373  0.00  0.00    -0.166 F 
ATOM     23  F   UNL     1      -6.537   1.997  24.788  0.00  0.00    -0.166 F 
ENDBRANCH  17  20
ENDBRANCH  13  14
ENDBRANCH  12  13
TORSDOF 6
ENDMDL
MODEL 5
REMARK VINA RESULT:     -10.8      2.582      5.040
REMARK  Name = 
REMARK  6 active torsions:
REMARK  status: ('A' for Active; 'I' for Inactive)
REMARK    1  A    between atoms: O_2  and  C_3
REMARK    2  A    between atoms: C_6  and  C_7
REMARK    3  A    between atoms: C_7  and  N_8
REMARK    4  A    between atoms: N_12  and  C_13
REMARK    5  A    between atoms: C_13  and  C_14
REMARK    6  A    between atoms: C_17  and  C_20
REMARK                            x       y       z     vdW  Elec       q    Type
REMARK                         _______ _______ _______ _____ _____    ______ ____
ROOT
ATOM      8  N   UNL     1      -0.853  -0.354  25.112  0.00  0.00    -0.258 N 
ATOM      9  C   UNL     1      -1.266   0.220  25.539  0.00  0.00    +0.116 C 
ATOM     10  C   UNL     1      -1.053   0.959  25.243  0.00  0.00    +0.113 C 
ATOM     11  C   UNL     1      -1.284   1.724  25.450  0.00  0.00    +0.094 C 
ATOM     12  N   UNL     1      -0.971   2.372  25.048  0.00  0.00    -0.266 NA
ATOM     24  C   UNL     1      -0.427   2.257  24.439  0.00  0.00    +0.094 C 
ATOM     25  C   UNL     1      -0.195   1.493  24.232  0.00  0.00    +0.112 C 
ATOM     26  N   UNL     1      -0.509   0.844  24.634  0.00  0.00    -0.261 N 
ATOM     27  C   UNL     1      -0.385   0.032  24.553  0.00  0.00    +0.308 C 
ATOM     28  O   UNL     1       0.118  -0.330  24.009  0.00  0.00    -0.252 OA
ENDROOT
BRANCH   8   7
ATOM      7  C   UNL     1      -0.900  -1.170  25.225  0.00  0.00    +0.122 C 
BRANCH   7   6
ATOM      3  C   UNL     1      -3.017  -2.365  24.758  0.00  0.00    +0.139 A 
ATOM      4  C   UNL     1      -2.967  -1.850  25.400  0.00  0.00    +0.037 A 
ATOM      5  C   UNL     1      -2.262  -1.451  25.556  0.00  0.00    +0.001 A 
ATOM      6  C   UNL     1      -1.606  -1.568  25.069  0.00  0.00    -0.002 A 
ATOM     29  C   UNL     1      -1.655  -2.083  24.426  0.00  0.00    +0.001 A 
ATOM     30  C   UNL     1      -2.361  -2.481  24.271  0.00  0.00    +0.037 A 
BRANCH   3   2
ATOM      1  C   UNL     1      -4.213  -2.510  23.990  0.00  0.00    +0.252 C 
ATOM      2  O   UNL     1      -3.722  -2.764  24.601  0.00  0.00    -0.471 OA
ENDBRANCH   3   2
ENDBRANCH   7   6
ENDBRANCH   8   7
BRANCH  12  13
ATOM     13  C   UNL     1      -1.202   3.137  25.255  0.00  0.00    +0.099 C 
BRANCH  13  14
ATOM     14  C   UNL     1      -2.001   3.338  25.266  0.00  0.00    -0.006 A 
ATOM     15  C   UNL     1      -2.441   3.324  24.568  0.00  0.00    -0.003 A 
ATOM     16  C   UNL     1      -3.241   3.525  24.580  0.00  0.00    +0.004 A 
ATOM     17  C   UNL     1      -3.601   3.741  25.289  0.00  0.00    +0.071 A 
ATOM     18  C   UNL     1      -3.163   3.756  25.988  0.00  0.00    +0.004 A 
ATOM     19  C   UNL     1      -2.362   3.555  25.976  0.00  0.00    -0.003 A 
BRANCH  17  20
ATOM     20  C   UNL     1      -4.402   3.943  25.301  0.00  0.00    +0.419 C 
ATOM     21  F   UNL     1      -5.201   4.144  25.313  0.00  0.00    -0.166 F 
ATOM     22  F   UNL     1      -4.314   4.334  24.580  0.00  0.00    -0.166 F 
ATOM     23  F   UNL     1      -4.489   3.551  26.022  0.00  0.00    -0.166 F 
ENDBRANCH  17  20
ENDBRANCH  13  14
ENDBRANCH  12  13
TORSDOF 6
ENDMDL
