MODEL 1
REMARK VINA RESULT:     -15.6      0.000      0.000
REMARK  Name = 
REMARK  5 active torsions:
REMARK  status: ('A' for Active; 'I' for Inactive)
REMARK    1  A    between atoms: C_2  and  C_3
REMARK    2  A    between atoms: C_6  and  C_7
REMARK    3  A    between atoms: C_7  and  N_8
REMARK    4  A    between atoms: C_17  and  C_22
REMARK    5  A    between atoms: C_24  and  C_28
REMARK                            x       y       z     vdW  Elec       q    Type
REMARK                         _______ _______ _______ _____ _____    ______ ____
ROOT
ATOM      8  N   UNL     1      -3.255   2.510  24.642  0.00  0.00    -0.266 NA
ATOM      9  C   UNL     1      -3.380   3.336  24.626  0.00  0.00    +0.074 C 
ATOM     10  C   UNL     1      -4.326   3.366  24.910  0.00  0.00    +0.039 C 
ATOM     11  C   UNL     1      -5.087   3.558  25.128  0.00  0.00    +0.011 C 
ATOM     12  C   UNL     1      -4.701   2.977  25.050  0.00  0.00    +0.054 C 
ATOM     13  C   UNL     1      -3.787   2.965  24.773  0.00  0.00    +0.078 C 
ATOM     14  C   UNL     1      -4.752   2.063  25.126  0.00  0.00    +0.041 A 
ATOM     15  C   UNL     1      -5.284   1.465  25.326  0.00  0.00    +0.013 A 
ATOM     16  C   UNL     1      -5.044   0.676  25.306  0.00  0.00    +0.006 A 
ATOM     17  C   UNL     1      -4.273   0.485  25.084  0.00  0.00    +0.056 A 
ATOM     18  C   UNL     1      -3.741   1.082  24.884  0.00  0.00    +0.261 A 
ATOM     19  O   UNL     1      -2.969   0.891  24.662  0.00  0.00    -0.267 OA
ATOM     20  N   UNL     1      -3.980   1.871  24.904  0.00  0.00    -0.299 N 
ATOM     21  C   UNL     1      -4.369   2.410  24.987  0.00  0.00    +0.110 C 
ENDROOT
BRANCH  17  22
ATOM     22  C   UNL     1      -4.034  -0.304  25.064  0.00  0.00    +0.005 A 
ATOM     23  C   UNL     1      -4.238  -0.780  24.422  0.00  0.00    +0.004 A 
ATOM     24  C   UNL     1      -4.000  -1.570  24.401  0.00  0.00    +0.071 A 
ATOM     25  C   UNL     1      -3.557  -1.883  25.022  0.00  0.00    +0.004 A 
ATOM     26  C   UNL     1      -3.353  -1.408  25.665  0.00  0.00    -0.000 A 
ATOM     27  C   UNL     1      -3.592  -0.618  25.686  0.00  0.00    +0.000 A 
BRANCH  24  28
ATOM     28  C   UNL     1      -4.204  -2.046  23.758  0.00  0.00    +0.419 C 
ATOM     29  F   UNL     1      -4.408  -2.521  23.115  0.00  0.00    -0.166 F 
ATOM     30  F   UNL     1      -4.390  -2.662  24.274  0.00  0.00    -0.166 F 
ATOM     31  F   UNL     1      -4.017  -1.429  23.242  0.00  0.00    -0.166 F 
ENDBRANCH  24  28
ENDBRANCH  17  22
BRANCH   8   7
ATOM      7  C   UNL     1      -2.858   1.790  24.569  0.00  0.00    +0.138 C 
BRANCH   7   6
ATOM      3  C   UNL     1      -0.727   1.819  24.451  0.00  0.00    +0.156 A 
ATOM      4  C   UNL     1      -0.929   1.704  23.660  0.00  0.00    +0.038 A 
ATOM      5  C   UNL     1      -1.751   1.679  23.607  0.00  0.00    +0.037 A 
ATOM      6  C   UNL     1      -2.059   1.779  24.367  0.00  0.00    +0.139 A 
ATOM     32  O   UNL     1      -1.425   1.866  24.889  0.00  0.00    -0.458 OA
BRANCH   3   2
ATOM      1  O   UNL     1       0.680   1.943  24.239  0.00  0.00    -0.212 OA
ATOM      2  C   UNL     1       0.039   1.878  24.752  0.00  0.00    +0.246 C 
ENDBRANCH   3   2
ENDBRANCH   7   6
ENDBRANCH   8   7
TORSDOF 5
ENDMDL
MODEL 2
REMARK VINA RESULT:     -14.8      2.201      3.899
REMARK  Name = 
REMARK  5 active torsions:
REMARK  status: ('A' for Active; 'I' for Inactive)
REMARK    1  A    between atoms: C_2  and  C_3
REMARK    2  A    between atoms: C_6  and  C_7
REMARK    3  A    between atoms: C_7  and  N_8
REMARK    4  A    between atoms: C_17  and  C_22
REMARK    5  A    between atoms: C_24  and  C_28
REMARK                            x       y       z     vdW  Elec       q    Type
REMARK                         _______ _______ _______ _____ _____    ______ ____
ROOT
ATOM      8  N   UNL     1      -4.678   1.557  25.086  0.00  0.00    -0.266 NA
ATOM      9  C   UNL     1      -5.505   1.568  25.199  0.00  0.00    +0.074 C 
ATOM     10  C   UNL     1      -5.636   2.531  25.378  0.00  0.00    +0.039 C 
ATOM     11  C   UNL     1      -5.907   3.281  25.540  0.00  0.00    +0.011 C 
ATOM     12  C   UNL     1      -5.293   2.970  25.405  0.00  0.00    +0.054 C 
ATOM     13  C   UNL     1      -5.183   2.036  25.234  0.00  0.00    +0.078 C 
ATOM     14  C   UNL     1      -4.397   3.152  25.314  0.00  0.00    +0.041 A 
ATOM     15  C   UNL     1      -3.864   3.781  25.348  0.00  0.00    +0.013 A 
ATOM     16  C   UNL     1      -3.061   3.648  25.217  0.00  0.00    +0.006 A 
ATOM     17  C   UNL     1      -2.789   2.887  25.053  0.00  0.00    +0.056 A 
ATOM     18  C   UNL     1      -3.322   2.257  25.020  0.00  0.00    +0.261 A 
ATOM     19  O   UNL     1      -3.050   1.496  24.856  0.00  0.00    -0.267 OA
ATOM     20  N   UNL     1      -4.125   2.390  25.150  0.00  0.00    -0.299 N 
ATOM     21  C   UNL     1      -4.698   2.711  25.281  0.00  0.00    +0.110 C 
ENDROOT
BRANCH  17  22
ATOM     22  C   UNL     1      -1.986   2.755  24.923  0.00  0.00    +0.005 A 
ATOM     23  C   UNL     1      -1.471   2.680  25.563  0.00  0.00    +0.004 A 
ATOM     24  C   UNL     1      -0.667   2.549  25.434  0.00  0.00    +0.071 A 
ATOM     25  C   UNL     1      -0.378   2.491  24.664  0.00  0.00    +0.004 A 
ATOM     26  C   UNL     1      -0.892   2.566  24.023  0.00  0.00    -0.000 A 
ATOM     27  C   UNL     1      -1.697   2.698  24.153  0.00  0.00    +0.000 A 
BRANCH  24  28
ATOM     28  C   UNL     1      -0.153   2.474  26.075  0.00  0.00    +0.419 C 
ATOM     29  F   UNL     1       0.362   2.400  26.715  0.00  0.00    -0.166 F 
ATOM     30  F   UNL     1      -0.329   1.670  26.123  0.00  0.00    -0.166 F 
ATOM     31  F   UNL     1       0.023   3.279  26.027  0.00  0.00    -0.166 F 
ENDBRANCH  24  28
ENDBRANCH  17  22
BRANCH   8   7
ATOM      7  C   UNL     1      -3.925   1.254  24.934  0.00  0.00    +0.138 C 
BRANCH   7   6
ATOM      3  C   UNL     1      -3.602  -0.850  25.093  0.00  0.00    +0.156 A 
ATOM      4  C   UNL     1      -3.716  -0.768  24.280  0.00  0.00    +0.038 A 
ATOM      5  C   UNL     1      -3.851   0.030  24.121  0.00  0.00    +0.037 A 
ATOM      6  C   UNL     1      -3.820   0.441  24.837  0.00  0.00    +0.139 A 
ATOM     32  O   UNL     1      -3.666  -0.103  25.437  0.00  0.00    -0.458 OA
BRANCH   3   2
ATOM      1  O   UNL     1      -3.594  -2.279  25.122  0.00  0.00    -0.212 OA
ATOM      2  C   UNL     1      -3.449  -1.556  25.492  0.00  0.00    +0.246 C 
ENDBRANCH   3   2
ENDBRANCH   7   6
ENDBRANCH   8   7
TORSDOF 5
ENDMDL
MODEL 3
REMARK VINA RESULT:     -14.8      1.989      3.616
REMARK  Name = 
REMARK  5 active torsions:
REMARK  status: ('A' for Active; 'I' for Inactive)
REMARK    1  A    between atoms: C_2  and  C_3
REMARK    2  A    between atoms: C_6  and  C_7
REMARK    3  A    between atoms: C_7  and  N_8
REMARK    4  A    between atoms: C_17  and  C_22
REMARK    5  A    between atoms: C_24  and  C_28
REMARK                            x       y       z     vdW  Elec       q    Type
REMARK                         _______ _______ _______ _____ _____    ______ ____
ROOT
ATOM      8  N   UNL     1      -1.793  -0.532  24.895  0.00  0.00    -0.266 NA
ATOM      9  C   UNL     1      -1.367  -1.250  24.929  0.00  0.00    +0.074 C 
ATOM     10  C   UNL     1      -2.098  -1.886  24.735  0.00  0.00    +0.039 C 
ATOM     11  C   UNL     1      -2.578  -2.527  24.591  0.00  0.00    +0.011 C 
ATOM     12  C   UNL     1      -2.642  -1.830  24.628  0.00  0.00    +0.054 C 
ATOM     13  C   UNL     1      -1.925  -1.227  24.817  0.00  0.00    +0.078 C 
ATOM     14  C   UNL     1      -3.264  -1.158  24.551  0.00  0.00    +0.041 A 
ATOM     15  C   UNL     1      -4.066  -1.042  24.396  0.00  0.00    +0.013 A 
ATOM     16  C   UNL     1      -4.378  -0.278  24.388  0.00  0.00    +0.006 A 
ATOM     17  C   UNL     1      -3.889   0.370  24.534  0.00  0.00    +0.056 A 
ATOM     18  C   UNL     1      -3.087   0.254  24.689  0.00  0.00    +0.261 A 
ATOM     19  O   UNL     1      -2.597   0.902  24.835  0.00  0.00    -0.267 OA
ATOM     20  N   UNL     1      -2.775  -0.510  24.697  0.00  0.00    -0.299 N 
ATOM     21  C   UNL     1      -2.741  -1.177  24.656  0.00  0.00    +0.110 C 
ENDROOT
BRANCH  17  22
ATOM     22  C   UNL     1      -4.202   1.132  24.526  0.00  0.00    +0.005 A 
ATOM     23  C   UNL     1      -4.662   1.396  25.158  0.00  0.00    +0.004 A 
ATOM     24  C   UNL     1      -4.976   2.159  25.151  0.00  0.00    +0.071 A 
ATOM     25  C   UNL     1      -4.829   2.658  24.511  0.00  0.00    +0.004 A 
ATOM     26  C   UNL     1      -4.368   2.396  23.879  0.00  0.00    -0.000 A 
ATOM     27  C   UNL     1      -4.054   1.632  23.887  0.00  0.00    +0.000 A 
BRANCH  24  28
ATOM     28  C   UNL     1      -5.436   2.422  25.783  0.00  0.00    +0.419 C 
ATOM     29  F   UNL     1      -5.897   2.685  26.415  0.00  0.00    -0.166 F 
ATOM     30  F   UNL     1      -6.103   2.075  25.441  0.00  0.00    -0.166 F 
ATOM     31  F   UNL     1      -4.770   2.769  26.124  0.00  0.00    -0.166 F 
ENDBRANCH  24  28
ENDBRANCH  17  22
BRANCH   8   7
ATOM      7  C   UNL     1      -1.937   0.280  24.925  0.00  0.00    +0.138 C 
BRANCH   7   6
ATOM      3  C   UNL     1      -0.283   1.625  24.803  0.00  0.00    +0.156 A 
ATOM      4  C   UNL     1      -0.411   1.603  25.618  0.00  0.00    +0.038 A 
ATOM      5  C   UNL     1      -1.046   1.097  25.763  0.00  0.00    +0.037 A 
ATOM      6  C   UNL     1      -1.311   0.806  25.037  0.00  0.00    +0.139 A 
ATOM     32  O   UNL     1      -0.839   1.132  24.444  0.00  0.00    -0.458 OA
BRANCH   3   2
ATOM      1  O   UNL     1       1.008   1.705  24.198  0.00  0.00    -0.212 OA
ATOM      2  C   UNL     1       0.299   2.063  24.416  0.00  0.00    +0.246 C 
ENDBRANCH   3   2
ENDBRANCH   7   6
ENDBRANCH   8   7
TORSDOF 5
ENDMDL
MODEL 4
REMARK VINA RESULT:     -14.7      1.276      3.006
REMARK  Name = 
REMARK  5 active torsions:
REMARK  status: ('A' for Active; 'I' for Inactive)
REMARK    1  A    between atoms: C_2  and  C_3
REMARK    2  A    between atoms: C_6  and  C_7
REMARK    3  A    between atoms: C_7  and  N_8
REMARK    4  A    between atoms: C_17  and  C_22
REMARK    5  A    between atoms: C_24  and  C_28
REMARK                            x       y       z     vdW  Elec       q    Type
REMARK                         _______ _______ _______ _____ _____    ______ ____
ROOT
ATOM      8  N   UNL     1      -1.781   2.099  24.495  0.00  0.00    -0.266 NA
ATOM      9  C   UNL     1      -1.233   2.709  24.334  0.00  0.00    +0.074 C 
ATOM     10  C   UNL     1      -0.396   2.184  24.339  0.00  0.00    +0.039 C 
ATOM     11  C   UNL     1       0.368   1.901  24.310  0.00  0.00    +0.011 C 
ATOM     12  C   UNL     1      -0.276   1.645  24.420  0.00  0.00    +0.054 C 
ATOM     13  C   UNL     1      -1.077   2.166  24.412  0.00  0.00    +0.078 C 
ATOM     14  C   UNL     1      -0.719   0.860  24.600  0.00  0.00    +0.041 A 
ATOM     15  C   UNL     1      -0.575   0.057  24.724  0.00  0.00    +0.013 A 
ATOM     16  C   UNL     1      -1.203  -0.455  24.877  0.00  0.00    +0.006 A 
ATOM     17  C   UNL     1      -1.975  -0.165  24.906  0.00  0.00    +0.056 A 
ATOM     18  C   UNL     1      -2.119   0.637  24.782  0.00  0.00    +0.261 A 
ATOM     19  O   UNL     1      -2.891   0.927  24.811  0.00  0.00    -0.267 OA
ATOM     20  N   UNL     1      -1.491   1.150  24.629  0.00  0.00    -0.299 N 
ATOM     21  C   UNL     1      -0.867   1.369  24.528  0.00  0.00    +0.110 C 
ENDROOT
BRANCH  17  22
ATOM     22  C   UNL     1      -2.602  -0.678  25.058  0.00  0.00    +0.005 A 
ATOM     23  C   UNL     1      -2.994  -1.048  24.433  0.00  0.00    +0.004 A 
ATOM     24  C   UNL     1      -3.621  -1.562  24.584  0.00  0.00    +0.071 A 
ATOM     25  C   UNL     1      -3.857  -1.706  25.361  0.00  0.00    +0.004 A 
ATOM     26  C   UNL     1      -3.466  -1.337  25.987  0.00  0.00    -0.000 A 
ATOM     27  C   UNL     1      -2.838  -0.822  25.835  0.00  0.00    +0.000 A 
BRANCH  24  28
ATOM     28  C   UNL     1      -4.012  -1.931  23.959  0.00  0.00    +0.419 C 
ATOM     29  F   UNL     1      -4.404  -2.301  23.334  0.00  0.00    -0.166 F 
ATOM     30  F   UNL     1      -4.506  -1.275  23.880  0.00  0.00    -0.166 F 
ATOM     31  F   UNL     1      -3.519  -2.588  24.038  0.00  0.00    -0.166 F 
ENDBRANCH  24  28
ENDBRANCH  17  22
BRANCH   8   7
ATOM      7  C   UNL     1      -2.509   1.735  24.633  0.00  0.00    +0.138 C 
BRANCH   7   6
ATOM      3  C   UNL     1      -4.207   2.959  25.052  0.00  0.00    +0.156 A 
ATOM      4  C   UNL     1      -4.321   2.797  24.252  0.00  0.00    +0.038 A 
ATOM      5  C   UNL     1      -3.700   2.319  23.997  0.00  0.00    +0.037 A 
ATOM      6  C   UNL     1      -3.200   2.185  24.641  0.00  0.00    +0.139 A 
ATOM     32  O   UNL     1      -3.513   2.581  25.293  0.00  0.00    -0.458 OA
BRANCH   3   2
ATOM      1  O   UNL     1      -5.432   3.128  25.766  0.00  0.00    -0.212 OA
ATOM      2  C   UNL     1      -4.699   3.419  25.529  0.00  0.00    +0.246 C 
ENDBRANCH   3   2
ENDBRANCH   7   6
ENDBRANCH   8   7
TORSDOF 5
ENDMDL
MODEL 5
REMARK VINA RESULT:     -14.2      2.393      4.481
REMARK  Name = 
REMARK  5 active torsions:
REMARK  status: ('A' for Active; 'I' for Inactive)
REMARK    1  A    between atoms: C_2  and  C_3
REMARK    2  A    between atoms: C_6  and  C_7
REMARK    3  A    between atoms: C_7  and  N_8
REMARK    4  A    between atoms: C_17  and  C_22
REMARK    5  A    between atoms: C_24  and  C_28
REMARK                            x       y       z     vdW  Elec       q    Type
REMARK                         _______ _______ _______ _____ _____    ______ ____
ROOT
ATOM      8  N   UNL     1      -3.744  -0.060  24.717  0.00  0.00    -0.266 NA
ATOM      9  C   UNL     1      -4.313  -0.671  24.689  0.00  0.00    +0.074 C 
ATOM     10  C   UNL     1      -3.718  -1.455  24.775  0.00  0.00    +0.039 C 
ATOM     11  C   UNL     1      -3.372  -2.190  24.837  0.00  0.00    +0.011 C 
ATOM     12  C   UNL     1      -3.166  -1.519  24.829  0.00  0.00    +0.054 C 
ATOM     13  C   UNL     1      -3.755  -0.772  24.745  0.00  0.00    +0.078 C 
ATOM     14  C   UNL     1      -2.413  -0.995  24.879  0.00  0.00    +0.041 A 
ATOM     15  C   UNL     1      -1.594  -1.057  24.958  0.00  0.00    +0.013 A 
ATOM     16  C   UNL     1      -1.129  -0.375  24.974  0.00  0.00    +0.006 A 
ATOM     17  C   UNL     1      -1.483   0.367  24.911  0.00  0.00    +0.056 A 
ATOM     18  C   UNL     1      -2.302   0.429  24.833  0.00  0.00    +0.261 A 
ATOM     19  O   UNL     1      -2.656   1.172  24.770  0.00  0.00    -0.267 OA
ATOM     20  N   UNL     1      -2.767  -0.252  24.816  0.00  0.00    -0.299 N 
ATOM     21  C   UNL     1      -2.936  -0.900  24.826  0.00  0.00    +0.110 C 
ENDROOT
BRANCH  17  22
ATOM     22  C   UNL     1      -1.018   1.048  24.928  0.00  0.00    +0.005 A 
ATOM     23  C   UNL     1      -0.831   1.402  25.649  0.00  0.00    +0.004 A 
ATOM     24  C   UNL     1      -0.366   2.083  25.667  0.00  0.00    +0.071 A 
ATOM     25  C   UNL     1      -0.087   2.409  24.962  0.00  0.00    +0.004 A 
ATOM     26  C   UNL     1      -0.272   2.056  24.241  0.00  0.00    -0.000 A 
ATOM     27  C   UNL     1      -0.738   1.374  24.224  0.00  0.00    +0.000 A 
BRANCH  24  28
ATOM     28  C   UNL     1      -0.180   2.438  26.388  0.00  0.00    +0.419 C 
ATOM     29  F   UNL     1       0.006   2.792  27.109  0.00  0.00    -0.166 F 
ATOM     30  F   UNL     1      -0.930   2.780  26.414  0.00  0.00    -0.166 F 
ATOM     31  F   UNL     1       0.571   2.096  26.362  0.00  0.00    -0.166 F 
ENDBRANCH  24  28
ENDBRANCH  17  22
BRANCH   8   7
ATOM      7  C   UNL     1      -3.437   0.706  24.716  0.00  0.00    +0.138 C 
BRANCH   7   6
ATOM      3  C   UNL     1      -4.797   2.309  25.087  0.00  0.00    +0.156 A 
ATOM      4  C   UNL     1      -4.664   2.398  24.278  0.00  0.00    +0.038 A 
ATOM      5  C   UNL     1      -4.138   1.808  24.040  0.00  0.00    +0.037 A 
ATOM      6  C   UNL     1      -3.946   1.354  24.703  0.00  0.00    +0.139 A 
ATOM     32  O   UNL     1      -4.354   1.664  25.350  0.00  0.00    -0.458 OA
BRANCH   3   2
ATOM      1  O   UNL     1      -5.064   3.553  25.736  0.00  0.00    -0.212 OA
ATOM      2  C   UNL     1      -5.288   2.782  25.552  0.00  0.00    +0.246 C 
ENDBRANCH   3   2
ENDBRANCH   7   6
ENDBRANCH   8   7
TORSDOF 5
ENDMDL
MODEL 6
REMARK VINA RESULT:     -14.1      1.886      2.569
REMARK  Name = 
REMARK  5 active torsions:
REMARK  status: ('A' for Active; 'I' for Inactive)
REMARK    1  A    between atoms: C_2  and  C_3
REMARK    2  A    between atoms: C_6  and  C_7
REMARK    3  A    between atoms: C_7  and  N_8
REMARK    4  A    between atoms: C_17  and  C_22
REMARK    5  A    between atoms: C_24  and  C_28
REMARK                            x       y       z     vdW  Elec       q    Type
REMARK                         _______ _______ _______ _____ _____    ______ ____
ROOT
ATOM      8  N   UNL     1      -4.232   2.865  25.237  0.00  0.00    -0.266 NA
ATOM      9  C   UNL     1      -4.959   3.262  25.341  0.00  0.00    +0.074 C 
ATOM     10  C   UNL     1      -5.583   2.524  25.135  0.00  0.00    +0.039 C 
ATOM     11  C   UNL     1      -6.217   2.032  24.996  0.00  0.00    +0.011 C 
ATOM     12  C   UNL     1      -5.516   1.990  24.989  0.00  0.00    +0.054 C 
ATOM     13  C   UNL     1      -4.926   2.713  25.191  0.00  0.00    +0.078 C 
ATOM     14  C   UNL     1      -4.831   1.398  24.830  0.00  0.00    +0.041 A 
ATOM     15  C   UNL     1      -4.700   0.613  24.616  0.00  0.00    +0.013 A 
ATOM     16  C   UNL     1      -3.928   0.329  24.543  0.00  0.00    +0.006 A 
ATOM     17  C   UNL     1      -3.289   0.830  24.684  0.00  0.00    +0.056 A 
ATOM     18  C   UNL     1      -3.420   1.616  24.899  0.00  0.00    +0.261 A 
ATOM     19  O   UNL     1      -2.780   2.117  25.041  0.00  0.00    -0.267 OA
ATOM     20  N   UNL     1      -4.191   1.900  24.972  0.00  0.00    -0.299 N 
ATOM     21  C   UNL     1      -4.860   1.913  24.972  0.00  0.00    +0.110 C 
ENDROOT
BRANCH  17  22
ATOM     22  C   UNL     1      -2.518   0.546  24.611  0.00  0.00    +0.005 A 
ATOM     23  C   UNL     1      -2.194   0.076  25.207  0.00  0.00    +0.004 A 
ATOM     24  C   UNL     1      -1.423  -0.209  25.135  0.00  0.00    +0.071 A 
ATOM     25  C   UNL     1      -0.977  -0.025  24.466  0.00  0.00    +0.004 A 
ATOM     26  C   UNL     1      -1.300   0.444  23.869  0.00  0.00    -0.000 A 
ATOM     27  C   UNL     1      -2.072   0.730  23.942  0.00  0.00    +0.000 A 
BRANCH  24  28
ATOM     28  C   UNL     1      -1.099  -0.678  25.731  0.00  0.00    +0.419 C 
ATOM     29  F   UNL     1      -0.775  -1.148  26.327  0.00  0.00    -0.166 F 
ATOM     30  F   UNL     1      -1.213  -1.350  25.264  0.00  0.00    -0.166 F 
ATOM     31  F   UNL     1      -0.985  -0.007  26.197  0.00  0.00    -0.166 F 
ENDBRANCH  24  28
ENDBRANCH  17  22
BRANCH   8   7
ATOM      7  C   UNL     1      -3.415   2.748  25.210  0.00  0.00    +0.138 C 
BRANCH   7   6
ATOM      3  C   UNL     1      -2.089   4.420  25.255  0.00  0.00    +0.156 A 
ATOM      4  C   UNL     1      -2.145   4.240  26.058  0.00  0.00    +0.038 A 
ATOM      5  C   UNL     1      -2.649   3.592  26.139  0.00  0.00    +0.037 A 
ATOM      6  C   UNL     1      -2.904   3.371  25.385  0.00  0.00    +0.139 A 
ATOM     32  O   UNL     1      -2.558   3.883  24.839  0.00  0.00    -0.458 OA
BRANCH   3   2
ATOM      1  O   UNL     1      -0.818   4.996  24.946  0.00  0.00    -0.212 OA
ATOM      2  C   UNL     1      -1.641   5.030  24.925  0.00  0.00    +0.246 C 
ENDBRANCH   3   2
ENDBRANCH   7   6
ENDBRANCH   8   7
TORSDOF 5
ENDMDL
