MODEL 1
REMARK VINA RESULT:     -11.2      0.000      0.000
REMARK  Name = 
REMARK  7 active torsions:
REMARK  status: ('A' for Active; 'I' for Inactive)
REMARK    1  A    between atoms: N_2  and  C_4
REMARK    2  A    between atoms: C_8  and  O_9
REMARK    3  A    between atoms: O_9  and  C_10
REMARK    4  A    between atoms: N_14  and  C_15
REMARK    5  A    between atoms: C_19  and  N_23
REMARK    6  A    between atoms: N_23  and  C_24
REMARK    7  A    between atoms: C_24  and  C_25
REMARK                            x       y       z     vdW  Elec       q    Type
REMARK                         _______ _______ _______ _____ _____    ______ ____
ROOT
ATOM     15  C   UNL     1      -0.467   1.268  24.897  0.00  0.00    +0.170 C 
ATOM     16  C   UNL     1      -0.468   1.101  24.089  0.00  0.00    +0.169 C 
ATOM     17  O   UNL     1      -0.915   0.418  23.972  0.00  0.00    -0.350 OA
ATOM     18  C   UNL     1      -1.190   0.163  24.706  0.00  0.00    +0.163 C 
ATOM     19  C   UNL     1      -1.636  -0.416  25.089  0.00  0.00    +0.132 C 
ATOM     20  C   UNL     1      -1.634  -0.249  25.897  0.00  0.00    +0.162 C 
ATOM     21  O   UNL     1      -1.187   0.434  26.014  0.00  0.00    -0.350 OA
ATOM     22  C   UNL     1      -0.913   0.689  25.278  0.00  0.00    +0.169 C 
ENDROOT
BRANCH  15  14
ATOM     10  C   UNL     1      -0.270   2.702  25.158  0.00  0.00    +0.343 A 
ATOM     11  N   UNL     1       0.248   3.145  25.623  0.00  0.00    -0.071 NA
ATOM     12  N   UNL     1       0.753   2.621  26.012  0.00  0.00    -0.020 NA
ATOM     13  N   UNL     1       0.546   1.854  25.788  0.00  0.00    -0.040 NA
ATOM     14  N   UNL     1      -0.086   1.904  25.260  0.00  0.00    -0.180 N 
BRANCH  10   9
ATOM      9  O   UNL     1      -0.868   3.004  24.675  0.00  0.00    -0.421 OA
BRANCH   9   8
ATOM      4  C   UNL     1      -2.478   4.233  25.486  0.00  0.00    +0.051 A 
ATOM      5  C   UNL     1      -2.157   4.988  25.401  0.00  0.00    +0.015 A 
ATOM      6  C   UNL     1      -1.405   5.082  25.074  0.00  0.00    +0.004 A 
ATOM      7  C   UNL     1      -0.976   4.420  24.832  0.00  0.00    +0.038 A 
ATOM      8  C   UNL     1      -1.297   3.666  24.917  0.00  0.00    +0.150 A 
ATOM     31  C   UNL     1      -2.049   3.572  25.244  0.00  0.00    +0.052 A 
BRANCH   4   2
ATOM      1  C   UNL     1      -3.879   3.998  25.323  0.00  0.00    +0.112 C 
ATOM      2  N   UNL     1      -3.230   4.139  25.814  0.00  0.00    -0.304 N 
ATOM      3  C   UNL     1      -3.333   4.187  26.630  0.00  0.00    +0.112 C 
ENDBRANCH   4   2
ENDBRANCH   9   8
ENDBRANCH  10   9
ENDBRANCH  15  14
BRANCH  19  23
ATOM     23  N   UNL     1      -2.017  -1.052  24.726  0.00  0.00    -0.210 NA
BRANCH  23  24
ATOM     24  C   UNL     1      -2.664  -1.409  25.093  0.00  0.00    +0.115 C 
BRANCH  24  25
ATOM     25  C   UNL     1      -3.195  -1.857  24.648  0.00  0.00    -0.005 A 
ATOM     26  C   UNL     1      -3.826  -1.489  24.265  0.00  0.00    -0.003 A 
ATOM     27  C   UNL     1      -4.357  -1.936  23.820  0.00  0.00    -0.000 A 
ATOM     28  C   UNL     1      -4.257  -2.754  23.759  0.00  0.00    -0.000 A 
ATOM     29  C   UNL     1      -3.627  -3.121  24.142  0.00  0.00    -0.000 A 
ATOM     30  C   UNL     1      -3.095  -2.674  24.587  0.00  0.00    -0.003 A 
ENDBRANCH  24  25
ENDBRANCH  23  24
ENDBRANCH  19  23
TORSDOF 7
ENDMDL
MODEL 2
REMARK VINA RESULT:     -10.4      1.625      3.039
REMARK  Name = 
REMARK  7 active torsions:
REMARK  status: ('A' for Active; 'I' for Inactive)
REMARK    1  A    between atoms: N_2  and  C_4
REMARK    2  A    between atoms: C_8  and  O_9
REMARK    3  A    between atoms: O_9  and  C_10
REMARK    4  A    between atoms: N_14  and  C_15
REMARK    5  A    between atoms: C_19  and  N_23
REMARK    6  A    between atoms: N_23  and  C_24
REMARK    7  A    between atoms: C_24  and  C_25
REMARK                            x       y       z     vdW  Elec       q    Type
REMARK                         _______ _______ _______ _____ _____    ______ ____
ROOT
ATOM     15  C   UNL     1      -4.205   2.401  24.665  0.00  0.00    +0.170 C 
ATOM     16  C   UNL     1      -4.611   2.117  25.324  0.00  0.00    +0.169 C 
ATOM     17  O   UNL     1      -4.603   1.293  25.292  0.00  0.00    -0.350 OA
ATOM     18  C   UNL     1      -4.191   1.068  24.614  0.00  0.00    +0.163 C 
ATOM     19  C   UNL     1      -3.930   0.420  24.175  0.00  0.00    +0.132 C 
ATOM     20  C   UNL     1      -3.524   0.704  23.516  0.00  0.00    +0.162 C 
ATOM     21  O   UNL     1      -3.533   1.528  23.548  0.00  0.00    -0.350 OA
ATOM     22  C   UNL     1      -3.945   1.753  24.227  0.00  0.00    +0.169 C 
ENDROOT
BRANCH  15  14
ATOM     10  C   UNL     1      -3.525   3.695  24.828  0.00  0.00    +0.343 A 
ATOM     11  N   UNL     1      -3.590   4.437  24.474  0.00  0.00    -0.071 NA
ATOM     12  N   UNL     1      -4.186   4.397  23.904  0.00  0.00    -0.020 NA
ATOM     13  N   UNL     1      -4.489   3.629  23.906  0.00  0.00    -0.040 NA
ATOM     14  N   UNL     1      -4.080   3.196  24.478  0.00  0.00    -0.180 N 
BRANCH  10   9
ATOM      9  O   UNL     1      -2.997   3.488  25.428  0.00  0.00    -0.421 OA
BRANCH   9   8
ATOM      4  C   UNL     1      -0.818   3.407  25.344  0.00  0.00    +0.051 A 
ATOM      5  C   UNL     1      -0.633   4.209  25.297  0.00  0.00    +0.015 A 
ATOM      6  C   UNL     1      -1.236   4.772  25.293  0.00  0.00    +0.004 A 
ATOM      7  C   UNL     1      -2.025   4.531  25.337  0.00  0.00    +0.038 A 
ATOM      8  C   UNL     1      -2.209   3.729  25.384  0.00  0.00    +0.150 A 
ATOM     31  C   UNL     1      -1.606   3.167  25.388  0.00  0.00    +0.052 A 
BRANCH   4   2
ATOM      1  C   UNL     1       0.045   2.512  24.638  0.00  0.00    +0.112 C 
ATOM      2  N   UNL     1      -0.214   2.843  25.348  0.00  0.00    -0.304 N 
ATOM      3  C   UNL     1       0.130   2.613  26.061  0.00  0.00    +0.112 C 
ENDBRANCH   4   2
ENDBRANCH   9   8
ENDBRANCH  10   9
ENDBRANCH  15  14
BRANCH  19  23
ATOM     23  N   UNL     1      -4.055  -0.374  24.362  0.00  0.00    -0.210 NA
BRANCH  23  24
ATOM     24  C   UNL     1      -3.652  -0.963  23.949  0.00  0.00    +0.115 C 
BRANCH  24  25
ATOM     25  C   UNL     1      -3.653  -1.739  24.231  0.00  0.00    -0.005 A 
ATOM     26  C   UNL     1      -4.086  -2.321  23.838  0.00  0.00    -0.003 A 
ATOM     27  C   UNL     1      -4.088  -3.096  24.119  0.00  0.00    -0.000 A 
ATOM     28  C   UNL     1      -3.654  -3.290  24.795  0.00  0.00    -0.000 A 
ATOM     29  C   UNL     1      -3.222  -2.708  25.188  0.00  0.00    -0.000 A 
ATOM     30  C   UNL     1      -3.220  -1.932  24.906  0.00  0.00    -0.003 A 
ENDBRANCH  24  25
ENDBRANCH  23  24
ENDBRANCH  19  23
TORSDOF 7
ENDMDL
MODEL 3
REMARK VINA RESULT:      -9.8      1.208      5.510
REMARK  Name = 
REMARK  7 active torsions:
REMARK  status: ('A' for Active; 'I' for Inactive)
REMARK    1  A    between atoms: N_2  and  C_4
REMARK    2  A    between atoms: C_8  and  O_9
REMARK    3  A    between atoms: O_9  and  C_10
REMARK    4  A    between atoms: N_14  and  C_15
REMARK    5  A    between atoms: C_19  and  N_23
REMARK    6  A    between atoms: N_23  and  C_24
REMARK    7  A    between atoms: C_24  and  C_25
REMARK                            x       y       z     vdW  Elec       q    Type
REMARK                         _______ _______ _______ _____ _____    ______ ____
ROOT
ATOM     15  C   UNL     1      -0.656   0.517  24.256  0.00  0.00    +0.170 C 
ATOM     16  C   UNL     1      -0.906   0.876  23.556  0.00  0.00    +0.169 C 
ATOM     17  O   UNL     1      -0.884   1.693  23.667  0.00  0.00    -0.350 OA
ATOM     18  C   UNL     1      -0.620   1.839  24.434  0.00  0.00    +0.163 C 
ATOM     19  C   UNL     1      -0.443   2.434  24.978  0.00  0.00    +0.132 C 
ATOM     20  C   UNL     1      -0.193   2.076  25.677  0.00  0.00    +0.162 C 
ATOM     21  O   UNL     1      -0.216   1.259  25.566  0.00  0.00    -0.350 OA
ATOM     22  C   UNL     1      -0.480   1.112  24.798  0.00  0.00    +0.169 C 
ENDROOT
BRANCH  15  14
ATOM     10  C   UNL     1      -1.215  -0.803  24.582  0.00  0.00    +0.343 A 
ATOM     11  N   UNL     1      -0.905  -1.564  24.665  0.00  0.00    -0.071 NA
ATOM     12  N   UNL     1      -0.093  -1.525  24.523  0.00  0.00    -0.020 NA
ATOM     13  N   UNL     1       0.099  -0.741  24.353  0.00  0.00    -0.040 NA
ATOM     14  N   UNL     1      -0.594  -0.295  24.389  0.00  0.00    -0.180 N 
BRANCH  10   9
ATOM      9  O   UNL     1      -2.006  -0.589  24.675  0.00  0.00    -0.421 OA
BRANCH   9   8
ATOM      4  C   UNL     1      -3.517  -2.163  24.660  0.00  0.00    +0.051 A 
ATOM      5  C   UNL     1      -3.652  -2.259  25.469  0.00  0.00    +0.015 A 
ATOM      6  C   UNL     1      -3.238  -1.797  26.013  0.00  0.00    +0.004 A 
ATOM      7  C   UNL     1      -2.689  -1.241  25.748  0.00  0.00    +0.038 A 
ATOM      8  C   UNL     1      -2.555  -1.146  24.940  0.00  0.00    +0.150 A 
ATOM     31  C   UNL     1      -2.969  -1.607  24.396  0.00  0.00    +0.052 A 
BRANCH   4   2
ATOM      1  C   UNL     1      -4.500  -2.278  23.629  0.00  0.00    +0.112 C 
ATOM      2  N   UNL     1      -3.932  -2.625  24.116  0.00  0.00    -0.304 N 
ATOM      3  C   UNL     1      -3.777  -3.433  24.059  0.00  0.00    +0.112 C 
ENDBRANCH   4   2
ENDBRANCH   9   8
ENDBRANCH  10   9
ENDBRANCH  15  14
BRANCH  19  23
ATOM     23  N   UNL     1      -0.505   3.246  24.845  0.00  0.00    -0.210 NA
BRANCH  23  24
ATOM     24  C   UNL     1      -0.768   3.744  25.447  0.00  0.00    +0.115 C 
BRANCH  24  25
ATOM     25  C   UNL     1      -1.104   4.475  25.262  0.00  0.00    -0.005 A 
ATOM     26  C   UNL     1      -1.888   4.632  25.463  0.00  0.00    -0.003 A 
ATOM     27  C   UNL     1      -2.224   5.362  25.278  0.00  0.00    -0.000 A 
ATOM     28  C   UNL     1      -1.774   5.937  24.891  0.00  0.00    -0.000 A 
ATOM     29  C   UNL     1      -0.990   5.779  24.691  0.00  0.00    -0.000 A 
ATOM     30  C   UNL     1      -0.654   5.049  24.876  0.00  0.00    -0.003 A 
ENDBRANCH  24  25
ENDBRANCH  23  24
ENDBRANCH  19  23
TORSDOF 7
ENDMDL
MODEL 4
REMARK VINA RESULT:      -9.4      1.706      4.928
REMARK  Name = 
REMARK  7 active torsions:
REMARK  status: ('A' for Active; 'I' for Inactive)
REMARK    1  A    between atoms: N_2  and  C_4
REMARK    2  A    between atoms: C_8  and  O_9
REMARK    3  A    between atoms: O_9  and  C_10
REMARK    4  A    between atoms: N_14  and  C_15
REMARK    5  A    between atoms: C_19  and  N_23
REMARK    6  A    between atoms: N_23  and  C_24
REMARK    7  A    between atoms: C_24  and  C_25
REMARK                            x       y       z     vdW  Elec       q    Type
REMARK                         _______ _______ _______ _____ _____    ______ ____
ROOT
ATOM     15  C   UNL     1      -1.030   1.126  24.405  0.00  0.00    +0.170 C 
ATOM     16  C   UNL     1      -1.006   1.472  25.153  0.00  0.00    +0.169 C 
ATOM     17  O   UNL     1      -1.605   2.037  25.191  0.00  0.00    -0.350 OA
ATOM     18  C   UNL     1      -2.000   2.041  24.468  0.00  0.00    +0.163 C 
ATOM     19  C   UNL     1      -2.614   2.391  24.043  0.00  0.00    +0.132 C 
ATOM     20  C   UNL     1      -2.639   2.045  23.295  0.00  0.00    +0.162 C 
ATOM     21  O   UNL     1      -2.040   1.480  23.257  0.00  0.00    -0.350 OA
ATOM     22  C   UNL     1      -1.645   1.477  23.981  0.00  0.00    +0.169 C 
ENDROOT
BRANCH  15  14
ATOM     10  C   UNL     1      -0.533  -0.257  24.368  0.00  0.00    +0.343 A 
ATOM     11  N   UNL     1       0.060  -0.654  23.951  0.00  0.00    -0.071 NA
ATOM     12  N   UNL     1       0.430  -0.109  23.454  0.00  0.00    -0.020 NA
ATOM     13  N   UNL     1       0.067   0.624  23.563  0.00  0.00    -0.040 NA
ATOM     14  N   UNL     1      -0.528   0.532  24.128  0.00  0.00    -0.180 N 
BRANCH  10   9
ATOM      9  O   UNL     1      -1.040  -0.592  24.926  0.00  0.00    -0.421 OA
BRANCH   9   8
ATOM      4  C   UNL     1      -2.504  -2.153  24.500  0.00  0.00    +0.051 A 
ATOM      5  C   UNL     1      -2.026  -2.825  24.518  0.00  0.00    +0.015 A 
ATOM      6  C   UNL     1      -1.219  -2.753  24.673  0.00  0.00    +0.004 A 
ATOM      7  C   UNL     1      -0.890  -2.008  24.809  0.00  0.00    +0.038 A 
ATOM      8  C   UNL     1      -1.368  -1.336  24.790  0.00  0.00    +0.150 A 
ATOM     31  C   UNL     1      -2.175  -1.409  24.635  0.00  0.00    +0.052 A 
BRANCH   4   2
ATOM      1  C   UNL     1      -3.685  -2.955  24.439  0.00  0.00    +0.112 C 
ATOM      2  N   UNL     1      -3.312  -2.225  24.345  0.00  0.00    -0.304 N 
ATOM      3  C   UNL     1      -3.744  -1.569  24.097  0.00  0.00    +0.112 C 
ENDBRANCH   4   2
ENDBRANCH   9   8
ENDBRANCH  10   9
ENDBRANCH  15  14
BRANCH  19  23
ATOM     23  N   UNL     1      -3.117   2.985  24.320  0.00  0.00    -0.210 NA
BRANCH  23  24
ATOM     24  C   UNL     1      -3.911   2.991  24.096  0.00  0.00    +0.115 C 
BRANCH  24  25
ATOM     25  C   UNL     1      -4.495   3.168  24.652  0.00  0.00    -0.005 A 
ATOM     26  C   UNL     1      -4.490   3.897  25.037  0.00  0.00    -0.003 A 
ATOM     27  C   UNL     1      -5.073   4.075  25.593  0.00  0.00    -0.000 A 
ATOM     28  C   UNL     1      -5.663   3.522  25.762  0.00  0.00    -0.000 A 
ATOM     29  C   UNL     1      -5.667   2.793  25.376  0.00  0.00    -0.000 A 
ATOM     30  C   UNL     1      -5.083   2.616  24.821  0.00  0.00    -0.003 A 
ENDBRANCH  24  25
ENDBRANCH  23  24
ENDBRANCH  19  23
TORSDOF 7
ENDMDL
MODEL 5
REMARK VINA RESULT:      -9.2      2.666      4.599
REMARK  Name = 
REMARK  7 active torsions:
REMARK  status: ('A' for Active; 'I' for Inactive)
REMARK    1  A    between atoms: N_2  and  C_4
REMARK    2  A    between atoms: C_8  and  O_9
REMARK    3  A    between atoms: O_9  and  C_10
REMARK    4  A    between atoms: N_14  and  C_15
REMARK    5  A    between atoms: C_19  and  N_23
REMARK    6  A    between atoms: N_23  and  C_24
REMARK    7  A    between atoms: C_24  and  C_25
REMARK                            x       y       z     vdW  Elec       q    Type
REMARK                         _______ _______ _______ _____ _____    ______ ____
ROOT
ATOM     15  C   UNL     1      -0.545   0.719  24.231  0.00  0.00    +0.170 C 
ATOM     16  C   UNL     1      -0.146   1.301  24.659  0.00  0.00    +0.169 C 
ATOM     17  O   UNL     1       0.630   1.332  24.384  0.00  0.00    -0.350 OA
ATOM     18  C   UNL     1       0.712   0.770  23.787  0.00  0.00    +0.163 C 
ATOM     19  C   UNL     1       1.242   0.441  23.246  0.00  0.00    +0.132 C 
ATOM     20  C   UNL     1       0.844  -0.140  22.819  0.00  0.00    +0.162 C 
ATOM     21  O   UNL     1       0.067  -0.171  23.094  0.00  0.00    -0.350 OA
ATOM     22  C   UNL     1      -0.014   0.391  23.692  0.00  0.00    +0.169 C 
ENDROOT
BRANCH  15  14
ATOM     10  C   UNL     1      -1.989   0.996  24.219  0.00  0.00    +0.343 A 
ATOM     11  N   UNL     1      -2.669   0.554  24.372  0.00  0.00    -0.071 NA
ATOM     12  N   UNL     1      -2.436  -0.212  24.574  0.00  0.00    -0.020 NA
ATOM     13  N   UNL     1      -1.612  -0.243  24.546  0.00  0.00    -0.040 NA
ATOM     14  N   UNL     1      -1.336   0.503  24.327  0.00  0.00    -0.180 N 
BRANCH  10   9
ATOM      9  O   UNL     1      -1.966   1.790  23.998  0.00  0.00    -0.421 OA
BRANCH   9   8
ATOM      4  C   UNL     1      -3.586   3.076  24.693  0.00  0.00    +0.051 A 
ATOM      5  C   UNL     1      -4.044   3.136  24.009  0.00  0.00    +0.015 A 
ATOM      6  C   UNL     1      -3.808   2.746  23.321  0.00  0.00    +0.004 A 
ATOM      7  C   UNL     1      -3.115   2.298  23.318  0.00  0.00    +0.038 A 
ATOM      8  C   UNL     1      -2.659   2.239  24.001  0.00  0.00    +0.150 A 
ATOM     31  C   UNL     1      -2.894   2.628  24.689  0.00  0.00    +0.052 A 
BRANCH   4   2
ATOM      1  C   UNL     1      -4.577   3.339  25.690  0.00  0.00    +0.112 C 
ATOM      2  N   UNL     1      -3.822   3.466  25.382  0.00  0.00    -0.304 N 
ATOM      3  C   UNL     1      -3.303   3.982  25.762  0.00  0.00    +0.112 C 
ENDBRANCH   4   2
ENDBRANCH   9   8
ENDBRANCH  10   9
ENDBRANCH  15  14
BRANCH  19  23
ATOM     23  N   UNL     1       2.033   0.657  23.151  0.00  0.00    -0.210 NA
BRANCH  23  24
ATOM     24  C   UNL     1       2.561   0.139  22.785  0.00  0.00    +0.115 C 
BRANCH  24  25
ATOM     25  C   UNL     1       3.372   0.213  22.920  0.00  0.00    -0.005 A 
ATOM     26  C   UNL     1       3.791  -0.408  23.264  0.00  0.00    -0.003 A 
ATOM     27  C   UNL     1       4.602  -0.335  23.399  0.00  0.00    -0.000 A 
ATOM     28  C   UNL     1       4.993   0.361  23.188  0.00  0.00    -0.000 A 
ATOM     29  C   UNL     1       4.573   0.982  22.844  0.00  0.00    -0.000 A 
ATOM     30  C   UNL     1       3.763   0.909  22.710  0.00  0.00    -0.003 A 
ENDBRANCH  24  25
ENDBRANCH  23  24
ENDBRANCH  19  23
TORSDOF 7
ENDMDL
MODEL 6
REMARK VINA RESULT:      -8.9      2.646      5.542
REMARK  Name = 
REMARK  7 active torsions:
REMARK  status: ('A' for Active; 'I' for Inactive)
REMARK    1  A    between atoms: N_2  and  C_4
REMARK    2  A    between atoms: C_8  and  O_9
REMARK    3  A    between atoms: O_9  and  C_10
REMARK    4  A    between atoms: N_14  and  C_15
REMARK    5  A    between atoms: C_19  and  N_23
REMARK    6  A    between atoms: N_23  and  C_24
REMARK    7  A    between atoms: C_24  and  C_25
REMARK                            x       y       z     vdW  Elec       q    Type
REMARK                         _______ _______ _______ _____ _____    ______ ____
ROOT
ATOM     15  C   UNL     1      -0.678   1.137  23.896  0.00  0.00    +0.170 C 
ATOM     16  C   UNL     1      -0.279   1.538  24.496  0.00  0.00    +0.169 C 
ATOM     17  O   UNL     1       0.527   1.389  24.409  0.00  0.00    -0.350 OA
ATOM     18  C   UNL     1       0.627   0.896  23.756  0.00  0.00    +0.163 C 
ATOM     19  C   UNL     1       1.186   0.499  23.298  0.00  0.00    +0.132 C 
ATOM     20  C   UNL     1       0.787   0.097  22.698  0.00  0.00    +0.162 C 
ATOM     21  O   UNL     1      -0.019   0.246  22.785  0.00  0.00    -0.350 OA
ATOM     22  C   UNL     1      -0.119   0.740  23.439  0.00  0.00    +0.169 C 
ENDROOT
BRANCH  15  14
ATOM     10  C   UNL     1      -2.042   0.666  24.177  0.00  0.00    +0.343 A 
ATOM     11  N   UNL     1      -2.793   0.840  23.881  0.00  0.00    -0.071 NA
ATOM     12  N   UNL     1      -2.709   1.415  23.295  0.00  0.00    -0.020 NA
ATOM     13  N   UNL     1      -1.906   1.596  23.229  0.00  0.00    -0.040 NA
ATOM     14  N   UNL     1      -1.495   1.133  23.775  0.00  0.00    -0.180 N 
BRANCH  10   9
ATOM      9  O   UNL     1      -1.870   0.120  24.772  0.00  0.00    -0.421 OA
BRANCH   9   8
ATOM      4  C   UNL     1      -3.014  -1.735  24.878  0.00  0.00    +0.051 A 
ATOM      5  C   UNL     1      -3.573  -1.542  25.454  0.00  0.00    +0.015 A 
ATOM      6  C   UNL     1      -3.564  -0.794  25.802  0.00  0.00    +0.004 A 
ATOM      7  C   UNL     1      -2.997  -0.240  25.574  0.00  0.00    +0.038 A 
ATOM      8  C   UNL     1      -2.438  -0.434  24.999  0.00  0.00    +0.150 A 
ATOM     31  C   UNL     1      -2.447  -1.182  24.651  0.00  0.00    +0.052 A 
BRANCH   4   2
ATOM      1  C   UNL     1      -3.734  -2.806  24.262  0.00  0.00    +0.112 C 
ATOM      2  N   UNL     1      -3.023  -2.484  24.530  0.00  0.00    -0.304 N 
ATOM      3  C   UNL     1      -2.321  -2.910  24.450  0.00  0.00    +0.112 C 
ENDBRANCH   4   2
ENDBRANCH   9   8
ENDBRANCH  10   9
ENDBRANCH  15  14
BRANCH  19  23
ATOM     23  N   UNL     1       2.003   0.503  23.419  0.00  0.00    -0.210 NA
BRANCH  23  24
ATOM     24  C   UNL     1       2.509   0.233  22.826  0.00  0.00    +0.115 C 
BRANCH  24  25
ATOM     25  C   UNL     1       3.326   0.242  22.945  0.00  0.00    -0.005 A 
ATOM     26  C   UNL     1       3.703  -0.416  23.267  0.00  0.00    -0.003 A 
ATOM     27  C   UNL     1       4.520  -0.407  23.386  0.00  0.00    -0.000 A 
ATOM     28  C   UNL     1       4.958   0.262  23.182  0.00  0.00    -0.000 A 
ATOM     29  C   UNL     1       4.580   0.920  22.861  0.00  0.00    -0.000 A 
ATOM     30  C   UNL     1       3.763   0.911  22.742  0.00  0.00    -0.003 A 
ENDBRANCH  24  25
ENDBRANCH  23  24
ENDBRANCH  19  23
TORSDOF 7
ENDMDL
