MODEL 1
REMARK VINA RESULT:     -10.9      0.000      0.000
REMARK  Name = 
REMARK  2 active torsions:
REMARK  status: ('A' for Active; 'I' for Inactive)
REMARK    1  A    between atoms: N_3  and  C_4
REMARK    2  A    between atoms: C_4  and  C_5
REMARK                            x       y       z     vdW  Elec       q    Type
REMARK                         _______ _______ _______ _____ _____    ______ ____
ROOT
ATOM      1  O   UNL     1      -3.092   1.167  23.520  0.00  0.00    -0.251 OA
ATOM      2  C   UNL     1      -3.678   0.991  24.074  0.00  0.00    +0.324 C 
ATOM      3  N   UNL     1      -3.836   0.206  24.273  0.00  0.00    -0.184 NA
ATOM     11  N   UNL     1      -4.106   1.601  24.429  0.00  0.00    -0.259 N 
ATOM     12  C   UNL     1      -3.948   2.386  24.230  0.00  0.00    +0.117 C 
ATOM     13  C   UNL     1      -4.376   2.995  24.584  0.00  0.00    +0.117 C 
ATOM     14  N   UNL     1      -4.962   2.820  25.138  0.00  0.00    -0.259 N 
ATOM     15  C   UNL     1      -5.120   2.035  25.337  0.00  0.00    +0.118 C 
ATOM     16  C   UNL     1      -5.725   2.031  25.897  0.00  0.00    +0.138 C 
ATOM     17  N   UNL     1      -5.942   2.812  26.045  0.00  0.00    -0.187 NA
ATOM     18  C   UNL     1      -5.470   3.300  25.575  0.00  0.00    +0.323 C 
ATOM     19  O   UNL     1      -5.501   4.124  25.548  0.00  0.00    -0.251 OA
ATOM     20  C   UNL     1      -4.692   1.425  24.982  0.00  0.00    +0.117 C 
ENDROOT
BRANCH   3   4
ATOM      4  C   UNL     1      -3.408  -0.403  23.918  0.00  0.00    +0.143 C 
BRANCH   4   5
ATOM      5  C   UNL     1      -3.531  -1.184  24.153  0.00  0.00    -0.001 A 
ATOM      6  C   UNL     1      -3.098  -1.500  24.780  0.00  0.00    -0.003 A 
ATOM      7  C   UNL     1      -3.221  -2.282  25.014  0.00  0.00    -0.000 A 
ATOM      8  C   UNL     1      -3.777  -2.747  24.622  0.00  0.00    -0.000 A 
ATOM      9  C   UNL     1      -4.211  -2.432  23.994  0.00  0.00    -0.000 A 
ATOM     10  C   UNL     1      -4.087  -1.651  23.760  0.00  0.00    -0.003 A 
ENDBRANCH   4   5
ENDBRANCH   3   4
TORSDOF 2
ENDMDL
MODEL 2
REMARK VINA RESULT:     -10.8      1.947      2.413
REMARK  Name = 
REMARK  2 active torsions:
REMARK  status: ('A' for Active; 'I' for Inactive)
REMARK    1  A    between atoms: N_3  and  C_4
REMARK    2  A    between atoms: C_4  and  C_5
REMARK                            x       y       z     vdW  Elec       q    Type
REMARK                         _______ _______ _______ _____ _____    ______ ____
ROOT
ATOM      1  O   UNL     1      -4.806   1.951  24.666  0.00  0.00    -0.251 OA
ATOM      2  C   UNL     1      -4.015   1.769  24.810  0.00  0.00    +0.324 C 
ATOM      3  N   UNL     1      -3.772   0.982  24.850  0.00  0.00    -0.184 NA
ATOM     11  N   UNL     1      -3.465   2.377  24.913  0.00  0.00    -0.259 N 
ATOM     12  C   UNL     1      -3.707   3.164  24.872  0.00  0.00    +0.117 C 
ATOM     13  C   UNL     1      -3.157   3.770  24.974  0.00  0.00    +0.117 C 
ATOM     14  N   UNL     1      -2.365   3.590  25.118  0.00  0.00    -0.259 N 
ATOM     15  C   UNL     1      -2.123   2.802  25.159  0.00  0.00    +0.118 C 
ATOM     16  C   UNL     1      -1.312   2.792  25.307  0.00  0.00    +0.138 C 
ATOM     17  N   UNL     1      -1.052   3.574  25.358  0.00  0.00    -0.187 NA
ATOM     18  C   UNL     1      -1.704   4.066  25.241  0.00  0.00    +0.323 C 
ATOM     19  O   UNL     1      -1.695   4.891  25.246  0.00  0.00    -0.251 OA
ATOM     20  C   UNL     1      -2.673   2.195  25.056  0.00  0.00    +0.117 C 
ENDROOT
BRANCH   3   4
ATOM      4  C   UNL     1      -4.322   0.376  24.748  0.00  0.00    +0.143 C 
BRANCH   4   5
ATOM      5  C   UNL     1      -4.073  -0.411  24.752  0.00  0.00    -0.001 A 
ATOM      6  C   UNL     1      -3.767  -0.744  25.442  0.00  0.00    -0.003 A 
ATOM      7  C   UNL     1      -3.519  -1.530  25.446  0.00  0.00    -0.000 A 
ATOM      8  C   UNL     1      -3.577  -1.984  24.760  0.00  0.00    -0.000 A 
ATOM      9  C   UNL     1      -3.883  -1.652  24.069  0.00  0.00    -0.000 A 
ATOM     10  C   UNL     1      -4.131  -0.866  24.065  0.00  0.00    -0.003 A 
ENDBRANCH   4   5
ENDBRANCH   3   4
TORSDOF 2
ENDMDL
MODEL 3
REMARK VINA RESULT:      -9.7      1.638      2.047
REMARK  Name = 
REMARK  2 active torsions:
REMARK  status: ('A' for Active; 'I' for Inactive)
REMARK    1  A    between atoms: N_3  and  C_4
REMARK    2  A    between atoms: C_4  and  C_5
REMARK                            x       y       z     vdW  Elec       q    Type
REMARK                         _______ _______ _______ _____ _____    ______ ____
ROOT
ATOM      1  O   UNL     1      -1.216   0.373  25.135  0.00  0.00    -0.251 OA
ATOM      2  C   UNL     1      -1.983   0.627  24.970  0.00  0.00    +0.324 C 
ATOM      3  N   UNL     1      -2.565   0.079  24.769  0.00  0.00    -0.184 NA
ATOM     11  N   UNL     1      -2.167   1.431  25.007  0.00  0.00    -0.259 N 
ATOM     12  C   UNL     1      -1.584   1.979  25.208  0.00  0.00    +0.117 C 
ATOM     13  C   UNL     1      -1.769   2.782  25.244  0.00  0.00    +0.117 C 
ATOM     14  N   UNL     1      -2.536   3.038  25.079  0.00  0.00    -0.259 N 
ATOM     15  C   UNL     1      -3.118   2.489  24.878  0.00  0.00    +0.118 C 
ATOM     16  C   UNL     1      -3.820   2.901  24.745  0.00  0.00    +0.138 C 
ATOM     17  N   UNL     1      -3.672   3.703  24.864  0.00  0.00    -0.187 NA
ATOM     18  C   UNL     1      -2.878   3.787  25.070  0.00  0.00    +0.323 C 
ATOM     19  O   UNL     1      -2.494   4.498  25.239  0.00  0.00    -0.251 OA
ATOM     20  C   UNL     1      -2.934   1.685  24.841  0.00  0.00    +0.117 C 
ENDROOT
BRANCH   3   4
ATOM      4  C   UNL     1      -2.381  -0.724  24.733  0.00  0.00    +0.143 C 
BRANCH   4   5
ATOM      5  C   UNL     1      -2.970  -1.275  24.561  0.00  0.00    -0.001 A 
ATOM      6  C   UNL     1      -3.556  -1.094  24.010  0.00  0.00    -0.003 A 
ATOM      7  C   UNL     1      -4.146  -1.646  23.838  0.00  0.00    -0.000 A 
ATOM      8  C   UNL     1      -4.149  -2.377  24.217  0.00  0.00    -0.000 A 
ATOM      9  C   UNL     1      -3.563  -2.559  24.769  0.00  0.00    -0.000 A 
ATOM     10  C   UNL     1      -2.974  -2.008  24.941  0.00  0.00    -0.003 A 
ENDBRANCH   4   5
ENDBRANCH   3   4
TORSDOF 2
ENDMDL
MODEL 4
REMARK VINA RESULT:      -9.6      2.628      3.863
REMARK  Name = 
REMARK  2 active torsions:
REMARK  status: ('A' for Active; 'I' for Inactive)
REMARK    1  A    between atoms: N_3  and  C_4
REMARK    2  A    between atoms: C_4  and  C_5
REMARK                            x       y       z     vdW  Elec       q    Type
REMARK                         _______ _______ _______ _____ _____    ______ ____
ROOT
ATOM      1  O   UNL     1      -2.892   0.825  25.555  0.00  0.00    -0.251 OA
ATOM      2  C   UNL     1      -2.394   0.421  25.037  0.00  0.00    +0.324 C 
ATOM      3  N   UNL     1      -2.623  -0.309  24.729  0.00  0.00    -0.184 NA
ATOM     11  N   UNL     1      -1.665   0.747  24.828  0.00  0.00    -0.259 N 
ATOM     12  C   UNL     1      -1.435   1.477  25.137  0.00  0.00    +0.117 C 
ATOM     13  C   UNL     1      -0.707   1.803  24.927  0.00  0.00    +0.117 C 
ATOM     14  N   UNL     1      -0.208   1.399  24.410  0.00  0.00    -0.259 N 
ATOM     15  C   UNL     1      -0.437   0.669  24.101  0.00  0.00    +0.118 C 
ATOM     16  C   UNL     1       0.166   0.400  23.607  0.00  0.00    +0.138 C 
ATOM     17  N   UNL     1       0.768   0.964  23.610  0.00  0.00    -0.187 NA
ATOM     18  C   UNL     1       0.537   1.581  24.106  0.00  0.00    +0.323 C 
ATOM     19  O   UNL     1       0.974   2.261  24.270  0.00  0.00    -0.251 OA
ATOM     20  C   UNL     1      -1.166   0.343  24.310  0.00  0.00    +0.117 C 
ENDROOT
BRANCH   3   4
ATOM      4  C   UNL     1      -3.351  -0.635  24.938  0.00  0.00    +0.143 C 
BRANCH   4   5
ATOM      5  C   UNL     1      -3.562  -1.384  24.664  0.00  0.00    -0.001 A 
ATOM      6  C   UNL     1      -4.082  -1.460  24.028  0.00  0.00    -0.003 A 
ATOM      7  C   UNL     1      -4.293  -2.209  23.754  0.00  0.00    -0.000 A 
ATOM      8  C   UNL     1      -3.983  -2.882  24.116  0.00  0.00    -0.000 A 
ATOM      9  C   UNL     1      -3.462  -2.807  24.751  0.00  0.00    -0.000 A 
ATOM     10  C   UNL     1      -3.252  -2.058  25.025  0.00  0.00    -0.003 A 
ENDBRANCH   4   5
ENDBRANCH   3   4
TORSDOF 2
ENDMDL
MODEL 5
REMARK VINA RESULT:      -9.6      2.553      4.833
REMARK  Name = 
REMARK  2 active torsions:
REMARK  status: ('A' for Active; 'I' for Inactive)
REMARK    1  A    between atoms: N_3  and  C_4
REMARK    2  A    between atoms: C_4  and  C_5
REMARK                            x       y       z     vdW  Elec       q    Type
REMARK                         _______ _______ _______ _____ _____    ______ ____
ROOT
ATOM      1  O   UNL     1      -0.635   0.946  25.575  0.00  0.00    -0.251 OA
ATOM      2  C   UNL     1      -1.390   1.157  25.318  0.00  0.00    +0.324 C 
ATOM      3  N   UNL     1      -1.608   1.952  25.288  0.00  0.00    -0.184 NA
ATOM     11  N   UNL     1      -1.927   0.573  25.092  0.00  0.00    -0.259 N 
ATOM     12  C   UNL     1      -1.709  -0.222  25.122  0.00  0.00    +0.117 C 
ATOM     13  C   UNL     1      -2.245  -0.806  24.895  0.00  0.00    +0.117 C 
ATOM     14  N   UNL     1      -3.001  -0.595  24.639  0.00  0.00    -0.259 N 
ATOM     15  C   UNL     1      -3.219   0.200  24.609  0.00  0.00    +0.118 C 
ATOM     16  C   UNL     1      -3.996   0.241  24.334  0.00  0.00    +0.138 C 
ATOM     17  N   UNL     1      -4.258  -0.529  24.195  0.00  0.00    -0.187 NA
ATOM     18  C   UNL     1      -3.643  -1.045  24.383  0.00  0.00    +0.323 C 
ATOM     19  O   UNL     1      -3.666  -1.868  24.325  0.00  0.00    -0.251 OA
ATOM     20  C   UNL     1      -2.682   0.784  24.835  0.00  0.00    +0.117 C 
ENDROOT
BRANCH   3   4
ATOM      4  C   UNL     1      -1.071   2.536  25.514  0.00  0.00    +0.143 C 
BRANCH   4   5
ATOM      5  C   UNL     1      -1.264   3.332  25.420  0.00  0.00    -0.001 A 
ATOM      6  C   UNL     1      -0.770   3.828  24.983  0.00  0.00    -0.003 A 
ATOM      7  C   UNL     1      -0.963   4.624  24.888  0.00  0.00    -0.000 A 
ATOM      8  C   UNL     1      -1.650   4.925  25.231  0.00  0.00    -0.000 A 
ATOM      9  C   UNL     1      -2.145   4.431  25.669  0.00  0.00    -0.000 A 
ATOM     10  C   UNL     1      -1.952   3.634  25.763  0.00  0.00    -0.003 A 
ENDBRANCH   4   5
ENDBRANCH   3   4
TORSDOF 2
ENDMDL
MODEL 6
REMARK VINA RESULT:      -9.4      2.088      4.528
REMARK  Name = 
REMARK  2 active torsions:
REMARK  status: ('A' for Active; 'I' for Inactive)
REMARK    1  A    between atoms: N_3  and  C_4
REMARK    2  A    between atoms: C_4  and  C_5
REMARK                            x       y       z     vdW  Elec       q    Type
REMARK                         _______ _______ _______ _____ _____    ______ ____
ROOT
ATOM      1  O   UNL     1      -2.375   2.364  23.502  0.00  0.00    -0.251 OA
ATOM      2  C   UNL     1      -2.559   1.779  24.054  0.00  0.00    +0.324 C 
ATOM      3  N   UNL     1      -3.274   1.809  24.466  0.00  0.00    -0.184 NA
ATOM     11  N   UNL     1      -2.027   1.164  24.195  0.00  0.00    -0.259 N 
ATOM     12  C   UNL     1      -1.313   1.133  23.784  0.00  0.00    +0.117 C 
ATOM     13  C   UNL     1      -0.782   0.519  23.925  0.00  0.00    +0.117 C 
ATOM     14  N   UNL     1      -0.965  -0.067  24.477  0.00  0.00    -0.259 N 
ATOM     15  C   UNL     1      -1.679  -0.037  24.888  0.00  0.00    +0.118 C 
ATOM     16  C   UNL     1      -1.709  -0.686  25.396  0.00  0.00    +0.138 C 
ATOM     17  N   UNL     1      -1.013  -1.117  25.298  0.00  0.00    -0.187 NA
ATOM     18  C   UNL     1      -0.554  -0.734  24.731  0.00  0.00    +0.323 C 
ATOM     19  O   UNL     1       0.189  -0.977  24.463  0.00  0.00    -0.251 OA
ATOM     20  C   UNL     1      -2.211   0.579  24.747  0.00  0.00    +0.117 C 
ENDROOT
BRANCH   3   4
ATOM      4  C   UNL     1      -3.805   2.424  24.325  0.00  0.00    +0.143 C 
BRANCH   4   5
ATOM      5  C   UNL     1      -4.501   2.476  24.763  0.00  0.00    -0.001 A 
ATOM      6  C   UNL     1      -5.107   1.929  24.643  0.00  0.00    -0.003 A 
ATOM      7  C   UNL     1      -5.803   1.980  25.082  0.00  0.00    -0.000 A 
ATOM      8  C   UNL     1      -5.895   2.580  25.641  0.00  0.00    -0.000 A 
ATOM      9  C   UNL     1      -5.290   3.128  25.761  0.00  0.00    -0.000 A 
ATOM     10  C   UNL     1      -4.593   3.076  25.323  0.00  0.00    -0.003 A 
ENDBRANCH   4   5
ENDBRANCH   3   4
TORSDOF 2
ENDMDL
MODEL 7
REMARK VINA RESULT:      -9.3      1.836      4.697
REMARK  Name = 
REMARK  2 active torsions:
REMARK  status: ('A' for Active; 'I' for Inactive)
REMARK    1  A    between atoms: N_3  and  C_4
REMARK    2  A    between atoms: C_4  and  C_5
REMARK                            x       y       z     vdW  Elec       q    Type
REMARK                         _______ _______ _______ _____ _____    ______ ____
ROOT
ATOM      1  O   UNL     1      -4.717   1.475  24.450  0.00  0.00    -0.251 OA
ATOM      2  C   UNL     1      -3.951   1.246  24.652  0.00  0.00    +0.324 C 
ATOM      3  N   UNL     1      -3.387   1.816  24.845  0.00  0.00    -0.184 NA
ATOM     11  N   UNL     1      -3.749   0.445  24.662  0.00  0.00    -0.259 N 
ATOM     12  C   UNL     1      -4.314  -0.125  24.470  0.00  0.00    +0.117 C 
ATOM     13  C   UNL     1      -4.112  -0.924  24.480  0.00  0.00    +0.117 C 
ATOM     14  N   UNL     1      -3.346  -1.155  24.682  0.00  0.00    -0.259 N 
ATOM     15  C   UNL     1      -2.781  -0.584  24.874  0.00  0.00    +0.118 C 
ATOM     16  C   UNL     1      -2.076  -0.973  25.050  0.00  0.00    +0.138 C 
ATOM     17  N   UNL     1      -2.204  -1.784  24.966  0.00  0.00    -0.187 NA
ATOM     18  C   UNL     1      -2.989  -1.895  24.739  0.00  0.00    +0.323 C 
ATOM     19  O   UNL     1      -3.353  -2.621  24.593  0.00  0.00    -0.251 OA
ATOM     20  C   UNL     1      -2.983   0.216  24.864  0.00  0.00    +0.117 C 
ENDROOT
BRANCH   3   4
ATOM      4  C   UNL     1      -3.588   2.615  24.835  0.00  0.00    +0.143 C 
BRANCH   4   5
ATOM      5  C   UNL     1      -3.046   3.180  25.094  0.00  0.00    -0.001 A 
ATOM      6  C   UNL     1      -2.350   3.309  24.672  0.00  0.00    -0.003 A 
ATOM      7  C   UNL     1      -1.808   3.875  24.931  0.00  0.00    -0.000 A 
ATOM      8  C   UNL     1      -1.962   4.311  25.613  0.00  0.00    -0.000 A 
ATOM      9  C   UNL     1      -2.659   4.183  26.037  0.00  0.00    -0.000 A 
ATOM     10  C   UNL     1      -3.201   3.618  25.778  0.00  0.00    -0.003 A 
ENDBRANCH   4   5
ENDBRANCH   3   4
TORSDOF 2
ENDMDL
