MODEL 1
REMARK VINA RESULT:      -9.4      0.000      0.000
REMARK  Name = 
REMARK  5 active torsions:
REMARK  status: ('A' for Active; 'I' for Inactive)
REMARK    1  A    between atoms: C_5  and  N_8
REMARK    2  A    between atoms: N_8  and  C_9
REMARK    3  A    between atoms: C_9  and  C_10
REMARK    4  A    between atoms: C_12  and  C_13
REMARK    5  A    between atoms: C_17  and  N_18
REMARK                            x       y       z     vdW  Elec       q    Type
REMARK                         _______ _______ _______ _____ _____    ______ ____
ROOT
ATOM     10  C   UNL     1      -4.108   1.540  24.760  0.00  0.00    +0.150 C 
ATOM     11  O   UNL     1      -4.733   1.800  25.230  0.00  0.00    -0.350 OA
ATOM     12  C   UNL     1      -4.750   2.625  25.199  0.00  0.00    +0.180 C 
ATOM     15  C   UNL     1      -4.136   2.873  24.709  0.00  0.00    +0.198 C 
ATOM     16  O   UNL     1      -3.950   3.655  24.523  0.00  0.00    -0.219 OA
ATOM     17  C   UNL     1      -3.738   2.203  24.438  0.00  0.00    +0.120 C 
ENDROOT
BRANCH  17  18
ATOM     18  N   UNL     1      -3.086   2.197  23.933  0.00  0.00    -0.270 NA
ATOM     19  C   UNL     1      -2.294   2.228  24.163  0.00  0.00    +0.072 C 
ATOM     20  C   UNL     1      -1.830   2.210  23.481  0.00  0.00    +0.019 C 
ATOM     21  C   UNL     1      -2.334   2.167  22.830  0.00  0.00    +0.019 C 
ATOM     22  C   UNL     1      -3.110   2.159  23.110  0.00  0.00    +0.072 C 
ENDBRANCH  17  18
BRANCH  12  13
ATOM     13  C   UNL     1      -5.288   3.113  25.589  0.00  0.00    +0.214 C 
ATOM     14  O   UNL     1      -5.688   2.838  26.257  0.00  0.00    -0.218 OA
ENDBRANCH  12  13
BRANCH  10   9
ATOM      9  C   UNL     1      -3.890   0.754  24.634  0.00  0.00    +0.120 C 
BRANCH   9   8
ATOM      8  N   UNL     1      -4.318   0.145  24.991  0.00  0.00    -0.217 NA
BRANCH   8   5
ATOM      1  C   UNL     1      -3.396  -2.993  24.555  0.00  0.00    +0.090 C 
ATOM      2  N   UNL     1      -3.627  -2.208  24.664  0.00  0.00    -0.271 NA
ATOM      3  C   UNL     1      -4.073  -1.826  24.084  0.00  0.00    +0.074 C 
ATOM      4  C   UNL     1      -4.303  -1.041  24.194  0.00  0.00    +0.035 C 
ATOM      5  C   UNL     1      -4.088  -0.639  24.882  0.00  0.00    +0.076 C 
ATOM      6  C   UNL     1      -3.642  -1.023  25.460  0.00  0.00    +0.035 C 
ATOM      7  C   UNL     1      -3.411  -1.808  25.351  0.00  0.00    +0.074 C 
ENDBRANCH   8   5
ENDBRANCH   9   8
ENDBRANCH  10   9
TORSDOF 5
ENDMDL
MODEL 2
REMARK VINA RESULT:      -8.4      1.880      2.595
REMARK  Name = 
REMARK  5 active torsions:
REMARK  status: ('A' for Active; 'I' for Inactive)
REMARK    1  A    between atoms: C_5  and  N_8
REMARK    2  A    between atoms: N_8  and  C_9
REMARK    3  A    between atoms: C_9  and  C_10
REMARK    4  A    between atoms: C_12  and  C_13
REMARK    5  A    between atoms: C_17  and  N_18
REMARK                            x       y       z     vdW  Elec       q    Type
REMARK                         _______ _______ _______ _____ _____    ______ ____
ROOT
ATOM     10  C   UNL     1      -1.803   1.447  25.176  0.00  0.00    +0.150 C 
ATOM     11  O   UNL     1      -1.102   1.530  25.602  0.00  0.00    -0.350 OA
ATOM     12  C   UNL     1      -0.903   2.331  25.615  0.00  0.00    +0.180 C 
ATOM     15  C   UNL     1      -1.482   2.743  25.197  0.00  0.00    +0.198 C 
ATOM     16  O   UNL     1      -1.501   3.558  25.072  0.00  0.00    -0.219 OA
ATOM     17  C   UNL     1      -2.038   2.197  24.926  0.00  0.00    +0.120 C 
ENDROOT
BRANCH  17  18
ATOM     18  N   UNL     1      -2.712   2.371  24.482  0.00  0.00    -0.270 NA
ATOM     19  C   UNL     1      -2.766   2.360  23.659  0.00  0.00    +0.072 C 
ATOM     20  C   UNL     1      -3.537   2.569  23.451  0.00  0.00    +0.019 C 
ATOM     21  C   UNL     1      -3.958   2.708  24.146  0.00  0.00    +0.019 C 
ATOM     22  C   UNL     1      -3.448   2.586  24.783  0.00  0.00    +0.072 C 
ENDBRANCH  17  18
BRANCH  12  13
ATOM     13  C   UNL     1      -0.242   2.661  25.981  0.00  0.00    +0.214 C 
ATOM     14  O   UNL     1       0.494   2.292  25.916  0.00  0.00    -0.218 OA
ENDBRANCH  12  13
BRANCH  10   9
ATOM      9  C   UNL     1      -2.199   0.739  25.027  0.00  0.00    +0.120 C 
BRANCH   9   8
ATOM      8  N   UNL     1      -1.950   0.043  25.392  0.00  0.00    -0.217 NA
BRANCH   8   5
ATOM      1  C   UNL     1      -3.489  -2.802  24.737  0.00  0.00    +0.090 C 
ATOM      2  N   UNL     1      -3.104  -2.091  24.901  0.00  0.00    -0.271 NA
ATOM      3  C   UNL     1      -2.407  -1.899  24.503  0.00  0.00    +0.074 C 
ATOM      4  C   UNL     1      -2.022  -1.188  24.667  0.00  0.00    +0.035 C 
ATOM      5  C   UNL     1      -2.335  -0.669  25.228  0.00  0.00    +0.076 C 
ATOM      6  C   UNL     1      -3.032  -0.862  25.624  0.00  0.00    +0.035 C 
ATOM      7  C   UNL     1      -3.417  -1.573  25.461  0.00  0.00    +0.074 C 
ENDBRANCH   8   5
ENDBRANCH   9   8
ENDBRANCH  10   9
TORSDOF 5
ENDMDL
MODEL 3
REMARK VINA RESULT:      -8.4      2.113      4.146
REMARK  Name = 
REMARK  5 active torsions:
REMARK  status: ('A' for Active; 'I' for Inactive)
REMARK    1  A    between atoms: C_5  and  N_8
REMARK    2  A    between atoms: N_8  and  C_9
REMARK    3  A    between atoms: C_9  and  C_10
REMARK    4  A    between atoms: C_12  and  C_13
REMARK    5  A    between atoms: C_17  and  N_18
REMARK                            x       y       z     vdW  Elec       q    Type
REMARK                         _______ _______ _______ _____ _____    ______ ____
ROOT
ATOM     10  C   UNL     1      -3.481  -0.537  24.629  0.00  0.00    +0.150 C 
ATOM     11  O   UNL     1      -4.013  -1.115  24.377  0.00  0.00    -0.350 OA
ATOM     12  C   UNL     1      -3.608  -1.833  24.333  0.00  0.00    +0.180 C 
ATOM     15  C   UNL     1      -2.826  -1.698  24.558  0.00  0.00    +0.198 C 
ATOM     16  O   UNL     1      -2.227  -2.264  24.594  0.00  0.00    -0.219 OA
ATOM     17  C   UNL     1      -2.748  -0.897  24.740  0.00  0.00    +0.120 C 
ENDROOT
BRANCH  17  18
ATOM     18  N   UNL     1      -2.057  -0.522  24.991  0.00  0.00    -0.270 NA
ATOM     19  C   UNL     1      -1.492  -0.170  24.503  0.00  0.00    +0.072 C 
ATOM     20  C   UNL     1      -0.895   0.136  24.984  0.00  0.00    +0.019 C 
ATOM     21  C   UNL     1      -1.091  -0.026  25.768  0.00  0.00    +0.019 C 
ATOM     22  C   UNL     1      -1.809  -0.433  25.772  0.00  0.00    +0.072 C 
ENDBRANCH  17  18
BRANCH  12  13
ATOM     13  C   UNL     1      -3.929  -2.557  24.105  0.00  0.00    +0.214 C 
ATOM     14  O   UNL     1      -4.562  -2.581  23.577  0.00  0.00    -0.218 OA
ENDBRANCH  12  13
BRANCH  10   9
ATOM      9  C   UNL     1      -3.653   0.261  24.748  0.00  0.00    +0.120 C 
BRANCH   9   8
ATOM      8  N   UNL     1      -4.399   0.556  24.553  0.00  0.00    -0.217 NA
BRANCH   8   5
ATOM      1  C   UNL     1      -5.221   3.642  25.383  0.00  0.00    +0.090 C 
ATOM      2  N   UNL     1      -5.015   2.870  25.176  0.00  0.00    -0.271 NA
ATOM      3  C   UNL     1      -5.345   2.233  25.582  0.00  0.00    +0.074 C 
ATOM      4  C   UNL     1      -5.140   1.461  25.374  0.00  0.00    +0.035 C 
ATOM      5  C   UNL     1      -4.604   1.327  24.760  0.00  0.00    +0.076 C 
ATOM      6  C   UNL     1      -4.275   1.966  24.355  0.00  0.00    +0.035 C 
ATOM      7  C   UNL     1      -4.480   2.737  24.562  0.00  0.00    +0.074 C 
ENDBRANCH   8   5
ENDBRANCH   9   8
ENDBRANCH  10   9
TORSDOF 5
ENDMDL
MODEL 4
REMARK VINA RESULT:      -8.3      2.177      4.474
REMARK  Name = 
REMARK  5 active torsions:
REMARK  status: ('A' for Active; 'I' for Inactive)
REMARK    1  A    between atoms: C_5  and  N_8
REMARK    2  A    between atoms: N_8  and  C_9
REMARK    3  A    between atoms: C_9  and  C_10
REMARK    4  A    between atoms: C_12  and  C_13
REMARK    5  A    between atoms: C_17  and  N_18
REMARK                            x       y       z     vdW  Elec       q    Type
REMARK                         _______ _______ _______ _____ _____    ______ ____
ROOT
ATOM     10  C   UNL     1      -2.104   0.595  24.531  0.00  0.00    +0.150 C 
ATOM     11  O   UNL     1      -1.398   0.895  24.228  0.00  0.00    -0.350 OA
ATOM     12  C   UNL     1      -0.858   0.273  24.177  0.00  0.00    +0.180 C 
ATOM     15  C   UNL     1      -1.229  -0.410  24.449  0.00  0.00    +0.198 C 
ATOM     16  O   UNL     1      -0.891  -1.161  24.495  0.00  0.00    -0.219 OA
ATOM     17  C   UNL     1      -2.000  -0.212  24.668  0.00  0.00    +0.120 C 
ENDROOT
BRANCH  17  18
ATOM     18  N   UNL     1      -2.567  -0.729  24.971  0.00  0.00    -0.270 NA
ATOM     19  C   UNL     1      -3.086  -1.192  24.527  0.00  0.00    +0.072 C 
ATOM     20  C   UNL     1      -3.555  -1.624  25.052  0.00  0.00    +0.019 C 
ATOM     21  C   UNL     1      -3.324  -1.428  25.819  0.00  0.00    +0.019 C 
ATOM     22  C   UNL     1      -2.714  -0.875  25.769  0.00  0.00    +0.072 C 
ENDBRANCH  17  18
BRANCH  12  13
ATOM     13  C   UNL     1      -0.082   0.327  23.903  0.00  0.00    +0.214 C 
ATOM     14  O   UNL     1       0.294   1.061  23.868  0.00  0.00    -0.218 OA
ENDBRANCH  12  13
BRANCH  10   9
ATOM      9  C   UNL     1      -2.793   1.026  24.673  0.00  0.00    +0.120 C 
BRANCH   9   8
ATOM      8  N   UNL     1      -2.839   1.817  24.443  0.00  0.00    -0.217 NA
BRANCH   8   5
ATOM      1  C   UNL     1      -5.366   3.684  25.454  0.00  0.00    +0.090 C 
ATOM      2  N   UNL     1      -4.734   3.217  25.201  0.00  0.00    -0.271 NA
ATOM      3  C   UNL     1      -3.986   3.320  25.534  0.00  0.00    +0.074 C 
ATOM      4  C   UNL     1      -3.354   2.854  25.282  0.00  0.00    +0.035 C 
ATOM      5  C   UNL     1      -3.470   2.284  24.696  0.00  0.00    +0.076 C 
ATOM      6  C   UNL     1      -4.218   2.182  24.363  0.00  0.00    +0.035 C 
ATOM      7  C   UNL     1      -4.850   2.648  24.616  0.00  0.00    +0.074 C 
ENDBRANCH   8   5
ENDBRANCH   9   8
ENDBRANCH  10   9
TORSDOF 5
ENDMDL
