MODEL 1
REMARK VINA RESULT:      -9.3      0.000      0.000
REMARK  Name = 
REMARK  3 active torsions:
REMARK  status: ('A' for Active; 'I' for Inactive)
REMARK    1  A    between atoms: O_2  and  C_3
REMARK    2  A    between atoms: C_7  and  C_8
REMARK    3  A    between atoms: C_8  and  N_9
REMARK                            x       y       z     vdW  Elec       q    Type
REMARK                         _______ _______ _______ _____ _____    ______ ____
ROOT
ATOM      9  N   UNL     1      -3.939   0.568  25.038  0.00  0.00    -0.266 NA
ATOM     10  C   UNL     1      -4.580   0.991  24.737  0.00  0.00    +0.094 C 
ATOM     11  C   UNL     1      -4.462   1.731  24.394  0.00  0.00    +0.112 C 
ATOM     12  N   UNL     1      -3.702   2.050  24.351  0.00  0.00    -0.260 N 
ATOM     13  C   UNL     1      -3.060   1.627  24.651  0.00  0.00    +0.115 C 
ATOM     14  C   UNL     1      -2.380   2.076  24.532  0.00  0.00    +0.138 C 
ATOM     15  N   UNL     1      -2.600   2.778  24.158  0.00  0.00    -0.187 NA
ATOM     16  C   UNL     1      -3.417   2.760  24.046  0.00  0.00    +0.323 C 
ATOM     17  O   UNL     1      -3.870   3.352  23.692  0.00  0.00    -0.251 OA
ATOM     18  C   UNL     1      -3.179   0.885  24.995  0.00  0.00    +0.094 C 
ENDROOT
BRANCH   9   8
ATOM      8  C   UNL     1      -4.058  -0.173  25.381  0.00  0.00    +0.099 C 
BRANCH   8   7
ATOM      3  C   UNL     1      -3.097  -2.013  24.705  0.00  0.00    +0.138 A 
ATOM      4  C   UNL     1      -3.594  -2.228  24.082  0.00  0.00    +0.037 A 
ATOM      5  C   UNL     1      -4.245  -1.758  23.893  0.00  0.00    +0.003 A 
ATOM      6  C   UNL     1      -4.400  -1.073  24.326  0.00  0.00    -0.003 A 
ATOM      7  C   UNL     1      -3.903  -0.858  24.948  0.00  0.00    -0.003 A 
ATOM     19  C   UNL     1      -3.252  -1.328  25.138  0.00  0.00    +0.034 A 
BRANCH   3   2
ATOM      1  C   UNL     1      -1.785  -2.489  24.401  0.00  0.00    +0.252 C 
ATOM      2  O   UNL     1      -2.446  -2.483  24.894  0.00  0.00    -0.471 OA
ENDBRANCH   3   2
ENDBRANCH   8   7
ENDBRANCH   9   8
TORSDOF 3
ENDMDL
MODEL 2
REMARK VINA RESULT:      -9.3      1.442      1.751
REMARK  Name = 
REMARK  3 active torsions:
REMARK  status: ('A' for Active; 'I' for Inactive)
REMARK    1  A    between atoms: O_2  and  C_3
REMARK    2  A    between atoms: C_7  and  C_8
REMARK    3  A    between atoms: C_8  and  N_9
REMARK                            x       y       z     vdW  Elec       q    Type
REMARK                         _______ _______ _______ _____ _____    ______ ____
ROOT
ATOM      9  N   UNL     1      -4.240   1.173  24.590  0.00  0.00    -0.266 NA
ATOM     10  C   UNL     1      -4.983   1.141  24.947  0.00  0.00    +0.094 C 
ATOM     11  C   UNL     1      -5.313   1.822  25.274  0.00  0.00    +0.112 C 
ATOM     12  N   UNL     1      -4.901   2.536  25.245  0.00  0.00    -0.260 N 
ATOM     13  C   UNL     1      -4.158   2.568  24.888  0.00  0.00    +0.115 C 
ATOM     14  C   UNL     1      -3.883   3.344  24.941  0.00  0.00    +0.138 C 
ATOM     15  N   UNL     1      -4.455   3.791  25.330  0.00  0.00    -0.187 NA
ATOM     16  C   UNL     1      -5.084   3.292  25.518  0.00  0.00    +0.323 C 
ATOM     17  O   UNL     1      -5.776   3.510  25.911  0.00  0.00    -0.251 OA
ATOM     18  C   UNL     1      -3.827   1.886  24.560  0.00  0.00    +0.094 C 
ENDROOT
BRANCH   9   8
ATOM      8  C   UNL     1      -3.910   0.491  24.263  0.00  0.00    +0.099 C 
BRANCH   8   7
ATOM      3  C   UNL     1      -2.331  -0.524  25.376  0.00  0.00    +0.138 A 
ATOM      4  C   UNL     1      -2.755  -1.146  25.716  0.00  0.00    +0.037 A 
ATOM      5  C   UNL     1      -3.563  -1.221  25.571  0.00  0.00    +0.003 A 
ATOM      6  C   UNL     1      -3.948  -0.675  25.086  0.00  0.00    -0.003 A 
ATOM      7  C   UNL     1      -3.525  -0.055  24.747  0.00  0.00    -0.003 A 
ATOM     19  C   UNL     1      -2.716   0.021  24.892  0.00  0.00    +0.034 A 
BRANCH   3   2
ATOM      1  C   UNL     1      -1.016  -1.084  25.376  0.00  0.00    +0.252 C 
ATOM      2  O   UNL     1      -1.522  -0.450  25.521  0.00  0.00    -0.471 OA
ENDBRANCH   3   2
ENDBRANCH   8   7
ENDBRANCH   9   8
TORSDOF 3
ENDMDL
MODEL 3
REMARK VINA RESULT:      -9.1      2.956      5.075
REMARK  Name = 
REMARK  3 active torsions:
REMARK  status: ('A' for Active; 'I' for Inactive)
REMARK    1  A    between atoms: O_2  and  C_3
REMARK    2  A    between atoms: C_7  and  C_8
REMARK    3  A    between atoms: C_8  and  N_9
REMARK                            x       y       z     vdW  Elec       q    Type
REMARK                         _______ _______ _______ _____ _____    ______ ____
ROOT
ATOM      9  N   UNL     1      -0.389   2.101  25.415  0.00  0.00    -0.266 NA
ATOM     10  C   UNL     1       0.098   2.146  24.751  0.00  0.00    +0.094 C 
ATOM     11  C   UNL     1       0.190   1.489  24.262  0.00  0.00    +0.112 C 
ATOM     12  N   UNL     1      -0.205   0.786  24.436  0.00  0.00    -0.260 N 
ATOM     13  C   UNL     1      -0.693   0.740  25.100  0.00  0.00    +0.115 C 
ATOM     14  C   UNL     1      -1.010  -0.020  25.132  0.00  0.00    +0.138 C 
ATOM     15  N   UNL     1      -0.719  -0.445  24.488  0.00  0.00    -0.187 NA
ATOM     16  C   UNL     1      -0.222   0.053  24.058  0.00  0.00    +0.323 C 
ATOM     17  O   UNL     1       0.188  -0.146  23.370  0.00  0.00    -0.251 OA
ATOM     18  C   UNL     1      -0.785   1.398  25.590  0.00  0.00    +0.094 C 
ENDROOT
BRANCH   9   8
ATOM      8  C   UNL     1      -0.481   2.759  25.905  0.00  0.00    +0.099 C 
BRANCH   8   7
ATOM      3  C   UNL     1      -2.319   3.925  25.741  0.00  0.00    +0.138 A 
ATOM      4  C   UNL     1      -2.061   4.558  25.279  0.00  0.00    +0.037 A 
ATOM      5  C   UNL     1      -1.276   4.591  25.025  0.00  0.00    +0.003 A 
ATOM      6  C   UNL     1      -0.750   3.991  25.234  0.00  0.00    -0.003 A 
ATOM      7  C   UNL     1      -1.008   3.359  25.696  0.00  0.00    -0.003 A 
ATOM     19  C   UNL     1      -1.792   3.325  25.950  0.00  0.00    +0.034 A 
BRANCH   3   2
ATOM      1  C   UNL     1      -3.706   3.737  25.453  0.00  0.00    +0.252 C 
ATOM      2  O   UNL     1      -3.103   3.893  25.994  0.00  0.00    -0.471 OA
ENDBRANCH   3   2
ENDBRANCH   8   7
ENDBRANCH   9   8
TORSDOF 3
ENDMDL
MODEL 4
REMARK VINA RESULT:      -8.8      1.383      4.107
REMARK  Name = 
REMARK  3 active torsions:
REMARK  status: ('A' for Active; 'I' for Inactive)
REMARK    1  A    between atoms: O_2  and  C_3
REMARK    2  A    between atoms: C_7  and  C_8
REMARK    3  A    between atoms: C_8  and  N_9
REMARK                            x       y       z     vdW  Elec       q    Type
REMARK                         _______ _______ _______ _____ _____    ______ ____
ROOT
ATOM      9  N   UNL     1      -3.830   0.948  24.473  0.00  0.00    -0.266 NA
ATOM     10  C   UNL     1      -4.424   0.433  24.721  0.00  0.00    +0.094 C 
ATOM     11  C   UNL     1      -4.226  -0.283  25.079  0.00  0.00    +0.112 C 
ATOM     12  N   UNL     1      -3.433  -0.484  25.189  0.00  0.00    -0.260 N 
ATOM     13  C   UNL     1      -2.839   0.031  24.940  0.00  0.00    +0.115 C 
ATOM     14  C   UNL     1      -2.112  -0.313  25.120  0.00  0.00    +0.138 C 
ATOM     15  N   UNL     1      -2.256  -1.041  25.480  0.00  0.00    -0.187 NA
ATOM     16  C   UNL     1      -3.073  -1.146  25.522  0.00  0.00    +0.323 C 
ATOM     17  O   UNL     1      -3.461  -1.800  25.842  0.00  0.00    -0.251 OA
ATOM     18  C   UNL     1      -3.037   0.748  24.582  0.00  0.00    +0.094 C 
ENDROOT
BRANCH   9   8
ATOM      8  C   UNL     1      -4.028   1.665  24.114  0.00  0.00    +0.099 C 
BRANCH   8   7
ATOM      3  C   UNL     1      -3.789   3.528  25.225  0.00  0.00    +0.138 A 
ATOM      4  C   UNL     1      -4.557   3.641  25.507  0.00  0.00    +0.037 A 
ATOM      5  C   UNL     1      -5.148   3.095  25.324  0.00  0.00    +0.003 A 
ATOM      6  C   UNL     1      -4.971   2.436  24.860  0.00  0.00    -0.003 A 
ATOM      7  C   UNL     1      -4.205   2.324  24.578  0.00  0.00    -0.003 A 
ATOM     19  C   UNL     1      -3.613   2.870  24.761  0.00  0.00    +0.034 A 
BRANCH   3   2
ATOM      1  C   UNL     1      -2.914   4.132  26.180  0.00  0.00    +0.252 C 
ATOM      2  O   UNL     1      -3.199   4.075  25.408  0.00  0.00    -0.471 OA
ENDBRANCH   3   2
ENDBRANCH   8   7
ENDBRANCH   9   8
TORSDOF 3
ENDMDL
MODEL 5
REMARK VINA RESULT:      -8.7      1.223      1.521
REMARK  Name = 
REMARK  3 active torsions:
REMARK  status: ('A' for Active; 'I' for Inactive)
REMARK    1  A    between atoms: O_2  and  C_3
REMARK    2  A    between atoms: C_7  and  C_8
REMARK    3  A    between atoms: C_8  and  N_9
REMARK                            x       y       z     vdW  Elec       q    Type
REMARK                         _______ _______ _______ _____ _____    ______ ____
ROOT
ATOM      9  N   UNL     1      -3.252   1.704  24.286  0.00  0.00    -0.266 NA
ATOM     10  C   UNL     1      -3.933   2.042  24.607  0.00  0.00    +0.094 C 
ATOM     11  C   UNL     1      -3.873   2.702  25.097  0.00  0.00    +0.112 C 
ATOM     12  N   UNL     1      -3.133   3.024  25.268  0.00  0.00    -0.260 N 
ATOM     13  C   UNL     1      -2.452   2.686  24.948  0.00  0.00    +0.115 C 
ATOM     14  C   UNL     1      -1.803   3.120  25.212  0.00  0.00    +0.138 C 
ATOM     15  N   UNL     1      -2.082   3.727  25.695  0.00  0.00    -0.187 NA
ATOM     16  C   UNL     1      -2.904   3.667  25.730  0.00  0.00    +0.323 C 
ATOM     17  O   UNL     1      -3.409   4.164  26.153  0.00  0.00    -0.251 OA
ATOM     18  C   UNL     1      -2.511   2.025  24.456  0.00  0.00    +0.094 C 
ENDROOT
BRANCH   9   8
ATOM      8  C   UNL     1      -3.311   1.043  23.794  0.00  0.00    +0.099 C 
BRANCH   8   7
ATOM      3  C   UNL     1      -2.798  -0.903  24.638  0.00  0.00    +0.138 A 
ATOM      4  C   UNL     1      -3.549  -1.215  24.779  0.00  0.00    +0.037 A 
ATOM      5  C   UNL     1      -4.220  -0.774  24.592  0.00  0.00    +0.003 A 
ATOM      6  C   UNL     1      -4.141  -0.021  24.264  0.00  0.00    -0.003 A 
ATOM      7  C   UNL     1      -3.390   0.290  24.123  0.00  0.00    -0.003 A 
ATOM     19  C   UNL     1      -2.718  -0.151  24.310  0.00  0.00    +0.034 A 
BRANCH   3   2
ATOM      1  C   UNL     1      -2.092  -2.146  24.632  0.00  0.00    +0.252 C 
ATOM      2  O   UNL     1      -2.127  -1.345  24.826  0.00  0.00    -0.471 OA
ENDBRANCH   3   2
ENDBRANCH   8   7
ENDBRANCH   9   8
TORSDOF 3
ENDMDL
