MODEL 1
REMARK VINA RESULT:     -11.1      0.000      0.000
REMARK  Name = 
REMARK  9 active torsions:
REMARK  status: ('A' for Active; 'I' for Inactive)
REMARK    1  A    between atoms: N_2  and  C_4
REMARK    2  A    between atoms: C_7  and  C_8
REMARK    3  A    between atoms: C_8  and  N_9
REMARK    4  A    between atoms: N_9  and  C_10
REMARK    5  A    between atoms: C_15  and  C_16
REMARK    6  A    between atoms: C_16  and  C_17
REMARK    7  A    between atoms: C_17  and  C_18
REMARK    8  A    between atoms: N_20  and  C_21
REMARK    9  A    between atoms: C_21  and  C_22
REMARK                            x       y       z     vdW  Elec       q    Type
REMARK                         _______ _______ _______ _____ _____    ______ ____
ROOT
ATOM     10  C   UNL     1      -1.071   0.987  25.218  0.00  0.00    +0.091 C 
ATOM     11  C   UNL     1      -0.413   1.271  25.628  0.00  0.00    +0.044 C 
ATOM     12  C   UNL     1      -0.453   2.095  25.632  0.00  0.00    +0.138 C 
ATOM     13  N   UNL     1      -1.135   2.320  25.225  0.00  0.00    -0.265 NA
ATOM     14  C   UNL     1      -1.516   1.634  24.969  0.00  0.00    +0.090 C 
ATOM     15  C   UNL     1      -1.320   3.119  25.140  0.00  0.00    +0.080 C 
ATOM     28  C   UNL     1      -0.824   3.694  25.462  0.00  0.00    +0.131 C 
ATOM     29  N   UNL     1      -0.143   3.470  25.869  0.00  0.00    -0.203 NA
ATOM     30  C   UNL     1       0.043   2.670  25.954  0.00  0.00    +0.256 C 
ATOM     31  O   UNL     1       0.724   2.446  26.361  0.00  0.00    -0.272 OA
ENDROOT
BRANCH  10   9
ATOM      9  N   UNL     1      -1.250   0.193  25.081  0.00  0.00    -0.213 NA
BRANCH   9   8
ATOM      8  C   UNL     1      -1.783  -0.201  25.573  0.00  0.00    +0.115 C 
BRANCH   8   7
ATOM      4  C   UNL     1      -3.198  -2.015  24.661  0.00  0.00    +0.048 A 
ATOM      5  C   UNL     1      -2.377  -2.054  24.584  0.00  0.00    +0.014 A 
ATOM      6  C   UNL     1      -1.906  -1.449  24.888  0.00  0.00    -0.002 A 
ATOM      7  C   UNL     1      -2.254  -0.806  25.269  0.00  0.00    -0.005 A 
ATOM     32  C   UNL     1      -3.075  -0.767  25.346  0.00  0.00    -0.002 A 
ATOM     33  C   UNL     1      -3.547  -1.371  25.042  0.00  0.00    +0.014 A 
BRANCH   4   2
ATOM      1  C   UNL     1      -3.529  -3.403  24.574  0.00  0.00    +0.112 C 
ATOM      2  N   UNL     1      -3.670  -2.619  24.357  0.00  0.00    -0.304 N 
ATOM      3  C   UNL     1      -4.285  -2.439  23.836  0.00  0.00    +0.112 C 
ENDBRANCH   4   2
ENDBRANCH   8   7
ENDBRANCH   9   8
ENDBRANCH  10   9
BRANCH  15  16
ATOM     16  C   UNL     1      -2.001   3.343  24.733  0.00  0.00    +0.027 C 
BRANCH  16  17
ATOM     17  C   UNL     1      -2.539   3.862  25.083  0.00  0.00    +0.088 C 
BRANCH  17  18
ATOM     18  C   UNL     1      -3.326   3.874  24.831  0.00  0.00    +0.242 C 
ATOM     19  O   UNL     1      -3.553   4.370  24.214  0.00  0.00    -0.273 OA
ATOM     20  N   UNL     1      -3.883   3.388  25.197  0.00  0.00    -0.201 NA
BRANCH  20  21
ATOM     21  C   UNL     1      -4.668   3.400  24.944  0.00  0.00    +0.141 C 
BRANCH  21  22
ATOM     22  C   UNL     1      -5.186   2.801  25.179  0.00  0.00    -0.001 A 
ATOM     23  C   UNL     1      -5.354   2.178  24.666  0.00  0.00    -0.003 A 
ATOM     24  C   UNL     1      -5.872   1.579  24.900  0.00  0.00    -0.000 A 
ATOM     25  C   UNL     1      -6.221   1.604  25.648  0.00  0.00    -0.000 A 
ATOM     26  C   UNL     1      -6.051   2.228  26.160  0.00  0.00    -0.000 A 
ATOM     27  C   UNL     1      -5.534   2.826  25.926  0.00  0.00    -0.003 A 
ENDBRANCH  21  22
ENDBRANCH  20  21
ENDBRANCH  17  18
ENDBRANCH  16  17
ENDBRANCH  15  16
TORSDOF 9
ENDMDL
MODEL 2
REMARK VINA RESULT:     -11.0      1.329      3.860
REMARK  Name = 
REMARK  9 active torsions:
REMARK  status: ('A' for Active; 'I' for Inactive)
REMARK    1  A    between atoms: N_2  and  C_4
REMARK    2  A    between atoms: C_7  and  C_8
REMARK    3  A    between atoms: C_8  and  N_9
REMARK    4  A    between atoms: N_9  and  C_10
REMARK    5  A    between atoms: C_15  and  C_16
REMARK    6  A    between atoms: C_16  and  C_17
REMARK    7  A    between atoms: C_17  and  C_18
REMARK    8  A    between atoms: N_20  and  C_21
REMARK    9  A    between atoms: C_21  and  C_22
REMARK                            x       y       z     vdW  Elec       q    Type
REMARK                         _______ _______ _______ _____ _____    ______ ____
ROOT
ATOM     10  C   UNL     1      -4.655   1.520  24.919  0.00  0.00    +0.091 C 
ATOM     11  C   UNL     1      -5.359   1.788  25.257  0.00  0.00    +0.044 C 
ATOM     12  C   UNL     1      -5.278   2.594  25.411  0.00  0.00    +0.138 C 
ATOM     13  N   UNL     1      -4.523   2.825  25.168  0.00  0.00    -0.265 NA
ATOM     14  C   UNL     1      -4.139   2.161  24.865  0.00  0.00    +0.090 C 
ATOM     15  C   UNL     1      -4.285   3.610  25.256  0.00  0.00    +0.080 C 
ATOM     28  C   UNL     1      -4.800   4.163  25.586  0.00  0.00    +0.131 C 
ATOM     29  N   UNL     1      -5.553   3.933  25.828  0.00  0.00    -0.203 NA
ATOM     30  C   UNL     1      -5.793   3.148  25.741  0.00  0.00    +0.256 C 
ATOM     31  O   UNL     1      -6.546   2.917  25.983  0.00  0.00    -0.272 OA
ENDROOT
BRANCH  10   9
ATOM      9  N   UNL     1      -4.496   0.747  24.679  0.00  0.00    -0.213 NA
BRANCH   9   8
ATOM      8  C   UNL     1      -4.403   0.151  25.241  0.00  0.00    +0.115 C 
BRANCH   8   7
ATOM      4  C   UNL     1      -3.214  -1.936  24.643  0.00  0.00    +0.048 A 
ATOM      5  C   UNL     1      -3.850  -1.679  24.185  0.00  0.00    +0.014 A 
ATOM      6  C   UNL     1      -4.246  -0.983  24.385  0.00  0.00    -0.002 A 
ATOM      7  C   UNL     1      -4.007  -0.545  25.041  0.00  0.00    -0.005 A 
ATOM     32  C   UNL     1      -3.371  -0.803  25.499  0.00  0.00    -0.002 A 
ATOM     33  C   UNL     1      -2.974  -1.498  25.300  0.00  0.00    +0.014 A 
BRANCH   4   2
ATOM      1  C   UNL     1      -1.994  -2.637  24.392  0.00  0.00    +0.112 C 
ATOM      2  N   UNL     1      -2.817  -2.632  24.445  0.00  0.00    -0.304 N 
ATOM      3  C   UNL     1      -3.245  -3.323  24.299  0.00  0.00    +0.112 C 
ENDBRANCH   4   2
ENDBRANCH   8   7
ENDBRANCH   9   8
ENDBRANCH  10   9
BRANCH  15  16
ATOM     16  C   UNL     1      -3.531   3.840  25.014  0.00  0.00    +0.027 C 
BRANCH  16  17
ATOM     17  C   UNL     1      -3.057   4.293  25.515  0.00  0.00    +0.088 C 
BRANCH  17  18
ATOM     18  C   UNL     1      -2.248   4.365  25.366  0.00  0.00    +0.242 C 
ATOM     19  O   UNL     1      -1.930   5.098  25.160  0.00  0.00    -0.273 OA
ATOM     20  N   UNL     1      -1.758   3.704  25.422  0.00  0.00    -0.201 NA
BRANCH  20  21
ATOM     21  C   UNL     1      -0.951   3.776  25.272  0.00  0.00    +0.141 C 
BRANCH  21  22
ATOM     22  C   UNL     1      -0.486   3.100  25.180  0.00  0.00    -0.001 A 
ATOM     23  C   UNL     1      -0.231   2.682  25.844  0.00  0.00    -0.003 A 
ATOM     24  C   UNL     1       0.233   2.005  25.751  0.00  0.00    -0.000 A 
ATOM     25  C   UNL     1       0.442   1.748  24.996  0.00  0.00    -0.000 A 
ATOM     26  C   UNL     1       0.186   2.167  24.333  0.00  0.00    -0.000 A 
ATOM     27  C   UNL     1      -0.277   2.842  24.424  0.00  0.00    -0.003 A 
ENDBRANCH  21  22
ENDBRANCH  20  21
ENDBRANCH  17  18
ENDBRANCH  16  17
ENDBRANCH  15  16
TORSDOF 9
ENDMDL
MODEL 3
REMARK VINA RESULT:     -10.8      1.698      4.447
REMARK  Name = 
REMARK  9 active torsions:
REMARK  status: ('A' for Active; 'I' for Inactive)
REMARK    1  A    between atoms: N_2  and  C_4
REMARK    2  A    between atoms: C_7  and  C_8
REMARK    3  A    between atoms: C_8  and  N_9
REMARK    4  A    between atoms: N_9  and  C_10
REMARK    5  A    between atoms: C_15  and  C_16
REMARK    6  A    between atoms: C_16  and  C_17
REMARK    7  A    between atoms: C_17  and  C_18
REMARK    8  A    between atoms: N_20  and  C_21
REMARK    9  A    between atoms: C_21  and  C_22
REMARK                            x       y       z     vdW  Elec       q    Type
REMARK                         _______ _______ _______ _____ _____    ______ ____
ROOT
ATOM     10  C   UNL     1      -0.850   0.391  24.809  0.00  0.00    +0.091 C 
ATOM     11  C   UNL     1      -0.438  -0.286  25.040  0.00  0.00    +0.044 C 
ATOM     12  C   UNL     1      -0.950  -0.930  24.975  0.00  0.00    +0.138 C 
ATOM     13  N   UNL     1      -1.678  -0.650  24.705  0.00  0.00    -0.265 NA
ATOM     14  C   UNL     1      -1.616   0.166  24.603  0.00  0.00    +0.090 C 
ATOM     15  C   UNL     1      -2.303  -1.176  24.587  0.00  0.00    +0.080 C 
ATOM     28  C   UNL     1      -2.200  -1.980  24.740  0.00  0.00    +0.131 C 
ATOM     29  N   UNL     1      -1.472  -2.259  25.010  0.00  0.00    -0.203 NA
ATOM     30  C   UNL     1      -0.847  -1.734  25.128  0.00  0.00    +0.256 C 
ATOM     31  O   UNL     1      -0.119  -2.012  25.398  0.00  0.00    -0.272 OA
ENDROOT
BRANCH  10   9
ATOM      9  N   UNL     1      -0.548   1.159  24.790  0.00  0.00    -0.213 NA
BRANCH   9   8
ATOM      8  C   UNL     1      -0.620   1.648  25.450  0.00  0.00    +0.115 C 
BRANCH   8   7
ATOM      4  C   UNL     1      -1.072   4.064  25.156  0.00  0.00    +0.048 A 
ATOM      5  C   UNL     1      -0.587   3.667  24.619  0.00  0.00    +0.014 A 
ATOM      6  C   UNL     1      -0.437   2.861  24.718  0.00  0.00    -0.002 A 
ATOM      7  C   UNL     1      -0.770   2.453  25.351  0.00  0.00    -0.005 A 
ATOM     32  C   UNL     1      -1.255   2.851  25.888  0.00  0.00    -0.002 A 
ATOM     33  C   UNL     1      -1.406   3.656  25.791  0.00  0.00    +0.014 A 
BRANCH   4   2
ATOM      1  C   UNL     1      -1.941   5.188  25.310  0.00  0.00    +0.112 C 
ATOM      2  N   UNL     1      -1.223   4.869  25.058  0.00  0.00    -0.304 N 
ATOM      3  C   UNL     1      -0.655   5.356  24.709  0.00  0.00    +0.112 C 
ENDBRANCH   4   2
ENDBRANCH   8   7
ENDBRANCH   9   8
ENDBRANCH  10   9
BRANCH  15  16
ATOM     16  C   UNL     1      -3.030  -0.897  24.317  0.00  0.00    +0.027 C 
BRANCH  16  17
ATOM     17  C   UNL     1      -3.677  -0.868  24.830  0.00  0.00    +0.088 C 
BRANCH  17  18
ATOM     18  C   UNL     1      -4.339  -0.415  24.634  0.00  0.00    +0.242 C 
ATOM     19  O   UNL     1      -4.911  -0.719  24.125  0.00  0.00    -0.273 OA
ATOM     20  N   UNL     1      -4.426   0.343  24.948  0.00  0.00    -0.201 NA
BRANCH  20  21
ATOM     21  C   UNL     1      -5.088   0.795  24.752  0.00  0.00    +0.141 C 
BRANCH  21  22
ATOM     22  C   UNL     1      -5.127   1.588  24.980  0.00  0.00    -0.001 A 
ATOM     23  C   UNL     1      -4.735   2.163  24.539  0.00  0.00    -0.003 A 
ATOM     24  C   UNL     1      -4.774   2.956  24.767  0.00  0.00    -0.000 A 
ATOM     25  C   UNL     1      -5.206   3.172  25.436  0.00  0.00    -0.000 A 
ATOM     26  C   UNL     1      -5.599   2.595  25.877  0.00  0.00    -0.000 A 
ATOM     27  C   UNL     1      -5.559   1.804  25.649  0.00  0.00    -0.003 A 
ENDBRANCH  21  22
ENDBRANCH  20  21
ENDBRANCH  17  18
ENDBRANCH  16  17
ENDBRANCH  15  16
TORSDOF 9
ENDMDL
MODEL 4
REMARK VINA RESULT:     -10.7      1.783      5.195
REMARK  Name = 
REMARK  9 active torsions:
REMARK  status: ('A' for Active; 'I' for Inactive)
REMARK    1  A    between atoms: N_2  and  C_4
REMARK    2  A    between atoms: C_7  and  C_8
REMARK    3  A    between atoms: C_8  and  N_9
REMARK    4  A    between atoms: N_9  and  C_10
REMARK    5  A    between atoms: C_15  and  C_16
REMARK    6  A    between atoms: C_16  and  C_17
REMARK    7  A    between atoms: C_17  and  C_18
REMARK    8  A    between atoms: N_20  and  C_21
REMARK    9  A    between atoms: C_21  and  C_22
REMARK                            x       y       z     vdW  Elec       q    Type
REMARK                         _______ _______ _______ _____ _____    ______ ____
ROOT
ATOM     10  C   UNL     1      -3.763  -0.614  25.040  0.00  0.00    +0.091 C 
ATOM     11  C   UNL     1      -3.949  -1.395  24.846  0.00  0.00    +0.044 C 
ATOM     12  C   UNL     1      -3.243  -1.797  24.706  0.00  0.00    +0.138 C 
ATOM     13  N   UNL     1      -2.620  -1.266  24.813  0.00  0.00    -0.265 NA
ATOM     14  C   UNL     1      -2.943  -0.535  25.019  0.00  0.00    +0.090 C 
ATOM     15  C   UNL     1      -1.842  -1.517  24.709  0.00  0.00    +0.080 C 
ATOM     28  C   UNL     1      -1.685  -2.299  24.497  0.00  0.00    +0.131 C 
ATOM     29  N   UNL     1      -2.306  -2.829  24.390  0.00  0.00    -0.203 NA
ATOM     30  C   UNL     1      -3.086  -2.579  24.494  0.00  0.00    +0.256 C 
ATOM     31  O   UNL     1      -3.707  -3.110  24.387  0.00  0.00    -0.272 OA
ENDROOT
BRANCH  10   9
ATOM      9  N   UNL     1      -4.304  -0.019  25.222  0.00  0.00    -0.213 NA
BRANCH   9   8
ATOM      8  C   UNL     1      -4.546   0.512  24.639  0.00  0.00    +0.115 C 
BRANCH   8   7
ATOM      4  C   UNL     1      -4.948   2.885  25.217  0.00  0.00    +0.048 A 
ATOM      5  C   UNL     1      -5.406   2.293  25.563  0.00  0.00    +0.014 A 
ATOM      6  C   UNL     1      -5.272   1.502  25.370  0.00  0.00    -0.002 A 
ATOM      7  C   UNL     1      -4.680   1.303  24.832  0.00  0.00    -0.005 A 
ATOM     32  C   UNL     1      -4.222   1.895  24.485  0.00  0.00    -0.002 A 
ATOM     33  C   UNL     1      -4.355   2.686  24.677  0.00  0.00    +0.014 A 
BRANCH   4   2
ATOM      1  C   UNL     1      -5.836   3.927  25.626  0.00  0.00    +0.112 C 
ATOM      2  N   UNL     1      -5.081   3.676  25.409  0.00  0.00    -0.304 N 
ATOM      3  C   UNL     1      -4.458   4.217  25.384  0.00  0.00    +0.112 C 
ENDBRANCH   4   2
ENDBRANCH   8   7
ENDBRANCH   9   8
ENDBRANCH  10   9
BRANCH  15  16
ATOM     16  C   UNL     1      -1.220  -0.985  24.816  0.00  0.00    +0.027 C 
BRANCH  16  17
ATOM     17  C   UNL     1      -0.787  -0.721  24.165  0.00  0.00    +0.088 C 
BRANCH  17  18
ATOM     18  C   UNL     1      -0.244  -0.104  24.253  0.00  0.00    +0.242 C 
ATOM     19  O   UNL     1       0.561  -0.246  24.150  0.00  0.00    -0.273 OA
ATOM     20  N   UNL     1      -0.509   0.653  24.444  0.00  0.00    -0.201 NA
BRANCH  20  21
ATOM     21  C   UNL     1       0.033   1.268  24.532  0.00  0.00    +0.141 C 
BRANCH  21  22
ATOM     22  C   UNL     1      -0.223   2.010  24.787  0.00  0.00    -0.001 A 
ATOM     23  C   UNL     1      -0.210   2.196  25.591  0.00  0.00    -0.003 A 
ATOM     24  C   UNL     1      -0.467   2.938  25.847  0.00  0.00    -0.000 A 
ATOM     25  C   UNL     1      -0.735   3.493  25.299  0.00  0.00    -0.000 A 
ATOM     26  C   UNL     1      -0.747   3.306  24.495  0.00  0.00    -0.000 A 
ATOM     27  C   UNL     1      -0.491   2.566  24.239  0.00  0.00    -0.003 A 
ENDBRANCH  21  22
ENDBRANCH  20  21
ENDBRANCH  17  18
ENDBRANCH  16  17
ENDBRANCH  15  16
TORSDOF 9
ENDMDL
MODEL 5
REMARK VINA RESULT:     -10.5      2.046      3.948
REMARK  Name = 
REMARK  9 active torsions:
REMARK  status: ('A' for Active; 'I' for Inactive)
REMARK    1  A    between atoms: N_2  and  C_4
REMARK    2  A    between atoms: C_7  and  C_8
REMARK    3  A    between atoms: C_8  and  N_9
REMARK    4  A    between atoms: N_9  and  C_10
REMARK    5  A    between atoms: C_15  and  C_16
REMARK    6  A    between atoms: C_16  and  C_17
REMARK    7  A    between atoms: C_17  and  C_18
REMARK    8  A    between atoms: N_20  and  C_21
REMARK    9  A    between atoms: C_21  and  C_22
REMARK                            x       y       z     vdW  Elec       q    Type
REMARK                         _______ _______ _______ _____ _____    ______ ____
ROOT
ATOM     10  C   UNL     1      -1.317   2.711  24.577  0.00  0.00    +0.091 C 
ATOM     11  C   UNL     1      -1.363   3.413  25.009  0.00  0.00    +0.044 C 
ATOM     12  C   UNL     1      -2.155   3.541  25.204  0.00  0.00    +0.138 C 
ATOM     13  N   UNL     1      -2.597   2.917  24.892  0.00  0.00    -0.265 NA
ATOM     14  C   UNL     1      -2.079   2.405  24.505  0.00  0.00    +0.090 C 
ATOM     15  C   UNL     1      -3.415   2.897  25.002  0.00  0.00    +0.080 C 
ATOM     28  C   UNL     1      -3.790   3.500  25.422  0.00  0.00    +0.131 C 
ATOM     29  N   UNL     1      -3.347   4.122  25.733  0.00  0.00    -0.203 NA
ATOM     30  C   UNL     1      -2.530   4.143  25.624  0.00  0.00    +0.256 C 
ATOM     31  O   UNL     1      -2.087   4.765  25.935  0.00  0.00    -0.272 OA
ENDROOT
BRANCH  10   9
ATOM      9  N   UNL     1      -0.628   2.376  24.271  0.00  0.00    -0.213 NA
BRANCH   9   8
ATOM      8  C   UNL     1      -0.430   1.597  24.458  0.00  0.00    +0.115 C 
BRANCH   8   7
ATOM      4  C   UNL     1       1.249   0.388  23.098  0.00  0.00    +0.048 A 
ATOM      5  C   UNL     1       1.433   1.125  23.421  0.00  0.00    +0.014 A 
ATOM      6  C   UNL     1       0.873   1.528  23.874  0.00  0.00    -0.002 A 
ATOM      7  C   UNL     1       0.130   1.194  24.005  0.00  0.00    -0.005 A 
ATOM     32  C   UNL     1      -0.054   0.458  23.682  0.00  0.00    -0.002 A 
ATOM     33  C   UNL     1       0.505   0.054  23.229  0.00  0.00    +0.014 A 
BRANCH   4   2
ATOM      1  C   UNL     1       1.569  -0.451  21.987  0.00  0.00    +0.112 C 
ATOM      2  N   UNL     1       1.808  -0.015  22.645  0.00  0.00    -0.304 N 
ATOM      3  C   UNL     1       2.607   0.018  22.851  0.00  0.00    +0.112 C 
ENDBRANCH   4   2
ENDBRANCH   8   7
ENDBRANCH   9   8
ENDBRANCH  10   9
BRANCH  15  16
ATOM     16  C   UNL     1      -3.856   2.274  24.690  0.00  0.00    +0.027 C 
BRANCH  16  17
ATOM     17  C   UNL     1      -4.366   1.846  25.179  0.00  0.00    +0.088 C 
BRANCH  17  18
ATOM     18  C   UNL     1      -4.707   1.145  24.906  0.00  0.00    +0.242 C 
ATOM     19  O   UNL     1      -5.466   1.153  24.587  0.00  0.00    -0.273 OA
ATOM     20  N   UNL     1      -4.286   0.437  24.954  0.00  0.00    -0.201 NA
BRANCH  20  21
ATOM     21  C   UNL     1      -4.626  -0.263  24.681  0.00  0.00    +0.141 C 
BRANCH  21  22
ATOM     22  C   UNL     1      -4.191  -0.964  24.693  0.00  0.00    -0.001 A 
ATOM     23  C   UNL     1      -3.713  -1.142  25.341  0.00  0.00    -0.003 A 
ATOM     24  C   UNL     1      -3.278  -1.843  25.353  0.00  0.00    -0.000 A 
ATOM     25  C   UNL     1      -3.322  -2.367  24.716  0.00  0.00    -0.000 A 
ATOM     26  C   UNL     1      -3.801  -2.188  24.068  0.00  0.00    -0.000 A 
ATOM     27  C   UNL     1      -4.235  -1.488  24.056  0.00  0.00    -0.003 A 
ENDBRANCH  21  22
ENDBRANCH  20  21
ENDBRANCH  17  18
ENDBRANCH  16  17
ENDBRANCH  15  16
TORSDOF 9
ENDMDL
MODEL 6
REMARK VINA RESULT:     -10.3      1.320      4.289
REMARK  Name = 
REMARK  9 active torsions:
REMARK  status: ('A' for Active; 'I' for Inactive)
REMARK    1  A    between atoms: N_2  and  C_4
REMARK    2  A    between atoms: C_7  and  C_8
REMARK    3  A    between atoms: C_8  and  N_9
REMARK    4  A    between atoms: N_9  and  C_10
REMARK    5  A    between atoms: C_15  and  C_16
REMARK    6  A    between atoms: C_16  and  C_17
REMARK    7  A    between atoms: C_17  and  C_18
REMARK    8  A    between atoms: N_20  and  C_21
REMARK    9  A    between atoms: C_21  and  C_22
REMARK                            x       y       z     vdW  Elec       q    Type
REMARK                         _______ _______ _______ _____ _____    ______ ____
ROOT
ATOM     10  C   UNL     1      -1.892   2.736  25.050  0.00  0.00    +0.091 C 
ATOM     11  C   UNL     1      -1.259   3.134  24.701  0.00  0.00    +0.044 C 
ATOM     12  C   UNL     1      -0.641   2.596  24.607  0.00  0.00    +0.138 C 
ATOM     13  N   UNL     1      -0.892   1.866  24.898  0.00  0.00    -0.265 NA
ATOM     14  C   UNL     1      -1.665   1.953  25.172  0.00  0.00    +0.090 C 
ATOM     15  C   UNL     1      -0.383   1.217  24.876  0.00  0.00    +0.080 C 
ATOM     28  C   UNL     1       0.376   1.298  24.563  0.00  0.00    +0.131 C 
ATOM     29  N   UNL     1       0.626   2.027  24.272  0.00  0.00    -0.203 NA
ATOM     30  C   UNL     1       0.118   2.677  24.293  0.00  0.00    +0.256 C 
ATOM     31  O   UNL     1       0.369   3.407  24.002  0.00  0.00    -0.272 OA
ENDROOT
BRANCH  10   9
ATOM      9  N   UNL     1      -2.623   3.065  25.243  0.00  0.00    -0.213 NA
BRANCH   9   8
ATOM      8  C   UNL     1      -3.227   3.089  24.681  0.00  0.00    +0.115 C 
BRANCH   8   7
ATOM      4  C   UNL     1      -5.511   2.353  25.287  0.00  0.00    +0.048 A 
ATOM      5  C   UNL     1      -5.164   2.988  25.683  0.00  0.00    +0.014 A 
ATOM      6  C   UNL     1      -4.403   3.233  25.480  0.00  0.00    -0.002 A 
ATOM      7  C   UNL     1      -3.988   2.844  24.884  0.00  0.00    -0.005 A 
ATOM     32  C   UNL     1      -4.335   2.208  24.488  0.00  0.00    -0.002 A 
ATOM     33  C   UNL     1      -5.096   1.962  24.689  0.00  0.00    +0.014 A 
BRANCH   4   2
ATOM      1  C   UNL     1      -6.815   1.916  24.897  0.00  0.00    +0.112 C 
ATOM      2  N   UNL     1      -6.272   2.106  25.488  0.00  0.00    -0.304 N 
ATOM      3  C   UNL     1      -6.490   2.050  26.283  0.00  0.00    +0.112 C 
ENDBRANCH   4   2
ENDBRANCH   8   7
ENDBRANCH   9   8
ENDBRANCH  10   9
BRANCH  15  16
ATOM     16  C   UNL     1      -0.634   0.487  25.168  0.00  0.00    +0.027 C 
BRANCH  16  17
ATOM     17  C   UNL     1      -0.560  -0.190  24.701  0.00  0.00    +0.088 C 
BRANCH  17  18
ATOM     18  C   UNL     1      -0.939  -0.888  24.926  0.00  0.00    +0.242 C 
ATOM     19  O   UNL     1      -0.579  -1.399  25.463  0.00  0.00    -0.273 OA
ATOM     20  N   UNL     1      -1.679  -1.074  24.611  0.00  0.00    -0.201 NA
BRANCH  20  21
ATOM     21  C   UNL     1      -2.058  -1.772  24.836  0.00  0.00    +0.141 C 
BRANCH  21  22
ATOM     22  C   UNL     1      -2.813  -1.942  24.548  0.00  0.00    -0.001 A 
ATOM     23  C   UNL     1      -3.330  -1.327  24.360  0.00  0.00    -0.003 A 
ATOM     24  C   UNL     1      -4.085  -1.497  24.072  0.00  0.00    -0.000 A 
ATOM     25  C   UNL     1      -4.322  -2.281  23.974  0.00  0.00    -0.000 A 
ATOM     26  C   UNL     1      -3.804  -2.895  24.162  0.00  0.00    -0.000 A 
ATOM     27  C   UNL     1      -3.050  -2.726  24.449  0.00  0.00    -0.003 A 
ENDBRANCH  21  22
ENDBRANCH  20  21
ENDBRANCH  17  18
ENDBRANCH  16  17
ENDBRANCH  15  16
TORSDOF 9
ENDMDL
MODEL 7
REMARK VINA RESULT:      -9.9      1.515      2.393
REMARK  Name = 
REMARK  9 active torsions:
REMARK  status: ('A' for Active; 'I' for Inactive)
REMARK    1  A    between atoms: N_2  and  C_4
REMARK    2  A    between atoms: C_7  and  C_8
REMARK    3  A    between atoms: C_8  and  N_9
REMARK    4  A    between atoms: N_9  and  C_10
REMARK    5  A    between atoms: C_15  and  C_16
REMARK    6  A    between atoms: C_16  and  C_17
REMARK    7  A    between atoms: C_17  and  C_18
REMARK    8  A    between atoms: N_20  and  C_21
REMARK    9  A    between atoms: C_21  and  C_22
REMARK                            x       y       z     vdW  Elec       q    Type
REMARK                         _______ _______ _______ _____ _____    ______ ____
ROOT
ATOM     10  C   UNL     1      -0.814   2.705  25.295  0.00  0.00    +0.091 C 
ATOM     11  C   UNL     1      -0.472   3.429  25.094  0.00  0.00    +0.044 C 
ATOM     12  C   UNL     1      -1.048   4.014  25.175  0.00  0.00    +0.138 C 
ATOM     13  N   UNL     1      -1.746   3.651  25.426  0.00  0.00    -0.265 NA
ATOM     14  C   UNL     1      -1.601   2.842  25.500  0.00  0.00    +0.090 C 
ATOM     15  C   UNL     1      -2.423   4.105  25.554  0.00  0.00    +0.080 C 
ATOM     28  C   UNL     1      -2.403   4.921  25.432  0.00  0.00    +0.131 C 
ATOM     29  N   UNL     1      -1.705   5.282  25.182  0.00  0.00    -0.203 NA
ATOM     30  C   UNL     1      -1.028   4.829  25.053  0.00  0.00    +0.256 C 
ATOM     31  O   UNL     1      -0.331   5.191  24.802  0.00  0.00    -0.272 OA
ENDROOT
BRANCH  10   9
ATOM      9  N   UNL     1      -0.434   1.973  25.291  0.00  0.00    -0.213 NA
BRANCH   9   8
ATOM      8  C   UNL     1      -0.487   1.484  24.628  0.00  0.00    +0.115 C 
BRANCH   8   7
ATOM      4  C   UNL     1      -0.627  -0.971  24.911  0.00  0.00    +0.048 A 
ATOM      5  C   UNL     1      -0.814  -0.473  25.541  0.00  0.00    +0.014 A 
ATOM      6  C   UNL     1      -0.767   0.346  25.446  0.00  0.00    -0.002 A 
ATOM      7  C   UNL     1      -0.534   0.665  24.723  0.00  0.00    -0.005 A 
ATOM     32  C   UNL     1      -0.346   0.166  24.093  0.00  0.00    -0.002 A 
ATOM     33  C   UNL     1      -0.393  -0.652  24.186  0.00  0.00    +0.014 A 
BRANCH   4   2
ATOM      1  C   UNL     1      -0.105  -2.188  25.450  0.00  0.00    +0.112 C 
ATOM      2  N   UNL     1      -0.673  -1.790  25.004  0.00  0.00    -0.304 N 
ATOM      3  C   UNL     1      -1.290  -2.210  24.651  0.00  0.00    +0.112 C 
ENDBRANCH   4   2
ENDBRANCH   8   7
ENDBRANCH   9   8
ENDBRANCH  10   9
BRANCH  15  16
ATOM     16  C   UNL     1      -3.120   3.742  25.805  0.00  0.00    +0.027 C 
BRANCH  16  17
ATOM     17  C   UNL     1      -3.788   3.754  25.320  0.00  0.00    +0.088 C 
BRANCH  17  18
ATOM     18  C   UNL     1      -4.354   3.156  25.382  0.00  0.00    +0.242 C 
ATOM     19  O   UNL     1      -5.037   3.279  25.827  0.00  0.00    -0.273 OA
ATOM     20  N   UNL     1      -4.235   2.435  24.999  0.00  0.00    -0.201 NA
BRANCH  20  21
ATOM     21  C   UNL     1      -4.801   1.838  25.062  0.00  0.00    +0.141 C 
BRANCH  21  22
ATOM     22  C   UNL     1      -4.607   1.063  24.852  0.00  0.00    -0.001 A 
ATOM     23  C   UNL     1      -4.343   0.897  24.089  0.00  0.00    -0.003 A 
ATOM     24  C   UNL     1      -4.149   0.122  23.879  0.00  0.00    -0.000 A 
ATOM     25  C   UNL     1      -4.219  -0.485  24.433  0.00  0.00    -0.000 A 
ATOM     26  C   UNL     1      -4.483  -0.318  25.197  0.00  0.00    -0.000 A 
ATOM     27  C   UNL     1      -4.677   0.456  25.406  0.00  0.00    -0.003 A 
ENDBRANCH  21  22
ENDBRANCH  20  21
ENDBRANCH  17  18
ENDBRANCH  16  17
ENDBRANCH  15  16
TORSDOF 9
ENDMDL
