MODEL 1
REMARK VINA RESULT:     -13.2      0.000      0.000
REMARK  Name = 
REMARK  5 active torsions:
REMARK  status: ('A' for Active; 'I' for Inactive)
REMARK    1  A    between atoms: C_2  and  C_3
REMARK    2  A    between atoms: C_3  and  S_4
REMARK    3  A    between atoms: S_4  and  N_7
REMARK    4  A    between atoms: N_7  and  C_8
REMARK    5  A    between atoms: C_18  and  C_20
REMARK                            x       y       z     vdW  Elec       q    Type
REMARK                         _______ _______ _______ _____ _____    ______ ____
ROOT
ATOM      8  C   UNL     1      -3.306   0.692  24.908  0.00  0.00    +0.147 A 
ATOM      9  C   UNL     1      -3.950   0.178  24.853  0.00  0.00    +0.024 A 
ATOM     10  C   UNL     1      -4.719   0.475  24.889  0.00  0.00    +0.014 A 
ATOM     11  C   UNL     1      -4.844   1.285  24.979  0.00  0.00    +0.041 A 
ATOM     12  C   UNL     1      -5.525   1.899  25.050  0.00  0.00    +0.058 C 
ATOM     13  C   UNL     1      -6.225   1.945  25.057  0.00  0.00    +0.011 C 
ATOM     14  C   UNL     1      -5.587   2.449  25.112  0.00  0.00    +0.043 C 
ATOM     15  C   UNL     1      -4.958   3.207  25.194  0.00  0.00    +0.096 C 
ATOM     16  N   UNL     1      -4.234   2.793  25.146  0.00  0.00    -0.276 N 
ATOM     17  C   UNL     1      -4.929   2.641  25.131  0.00  0.00    +0.099 C 
ATOM     18  C   UNL     1      -3.418   2.669  25.129  0.00  0.00    +0.249 C 
ATOM     19  O   UNL     1      -3.119   1.904  25.043  0.00  0.00    -0.270 OA
ATOM     27  C   UNL     1      -4.869   1.816  25.039  0.00  0.00    +0.110 C 
ATOM     28  N   UNL     1      -4.200   1.799  25.035  0.00  0.00    -0.298 N 
ATOM     29  C   UNL     1      -3.431   1.502  24.999  0.00  0.00    +0.277 A 
ATOM     30  O   UNL     1      -2.660   1.793  25.029  0.00  0.00    -0.266 OA
ENDROOT
BRANCH  18  20
ATOM     20  C   UNL     1      -2.902   3.308  25.199  0.00  0.00    +0.054 A 
ATOM     21  C   UNL     1      -2.625   3.691  24.523  0.00  0.00    +0.007 A 
ATOM     22  C   UNL     1      -2.108   4.331  24.592  0.00  0.00    +0.030 A 
ATOM     23  C   UNL     1      -1.870   4.588  25.339  0.00  0.00    +0.140 A 
ATOM     24  F   UNL     1      -1.354   5.229  25.409  0.00  0.00    -0.204 F 
ATOM     25  C   UNL     1      -2.147   4.207  26.015  0.00  0.00    +0.030 A 
ATOM     26  C   UNL     1      -2.663   3.567  25.945  0.00  0.00    +0.007 A 
ENDBRANCH  18  20
BRANCH   8   7
ATOM      7  N   UNL     1      -2.538   0.394  24.873  0.00  0.00    -0.096 NA
BRANCH   7   4
ATOM      4  S   UNL     1      -2.412  -0.419  24.812  0.00  0.00    +0.073 S 
ATOM      5  O   UNL     1      -2.391  -0.477  25.635  0.00  0.00    -0.153 OA
ATOM      6  O   UNL     1      -2.434  -0.361  23.990  0.00  0.00    -0.153 OA
BRANCH   4   3
ATOM      3  C   UNL     1      -2.287  -1.232  24.752  0.00  0.00    +0.174 C 
BRANCH   3   2
ATOM      1  C   UNL     1      -1.393  -2.339  24.620  0.00  0.00    +0.002 C 
ATOM      2  C   UNL     1      -1.518  -1.527  24.689  0.00  0.00    +0.027 C 
ENDBRANCH   3   2
ENDBRANCH   4   3
ENDBRANCH   7   4
ENDBRANCH   8   7
TORSDOF 5
ENDMDL
MODEL 2
REMARK VINA RESULT:     -12.9      1.928      3.719
REMARK  Name = 
REMARK  5 active torsions:
REMARK  status: ('A' for Active; 'I' for Inactive)
REMARK    1  A    between atoms: C_2  and  C_3
REMARK    2  A    between atoms: C_3  and  S_4
REMARK    3  A    between atoms: S_4  and  N_7
REMARK    4  A    between atoms: N_7  and  C_8
REMARK    5  A    between atoms: C_18  and  C_20
REMARK                            x       y       z     vdW  Elec       q    Type
REMARK                         _______ _______ _______ _____ _____    ______ ____
ROOT
ATOM      8  C   UNL     1      -3.214   2.549  25.046  0.00  0.00    +0.147 A 
ATOM      9  C   UNL     1      -3.574   3.280  25.177  0.00  0.00    +0.024 A 
ATOM     10  C   UNL     1      -4.392   3.325  25.274  0.00  0.00    +0.014 A 
ATOM     11  C   UNL     1      -4.850   2.640  25.238  0.00  0.00    +0.041 A 
ATOM     12  C   UNL     1      -5.724   2.362  25.299  0.00  0.00    +0.058 C 
ATOM     13  C   UNL     1      -6.373   2.607  25.402  0.00  0.00    +0.011 C 
ATOM     14  C   UNL     1      -6.015   1.887  25.272  0.00  0.00    +0.043 C 
ATOM     15  C   UNL     1      -5.772   0.940  25.126  0.00  0.00    +0.096 C 
ATOM     16  N   UNL     1      -4.944   1.019  25.044  0.00  0.00    -0.276 N 
ATOM     17  C   UNL     1      -5.505   1.443  25.159  0.00  0.00    +0.099 C 
ATOM     18  C   UNL     1      -4.157   0.798  24.929  0.00  0.00    +0.249 C 
ATOM     19  O   UNL     1      -3.562   1.370  24.935  0.00  0.00    -0.270 OA
ATOM     27  C   UNL     1      -5.099   2.168  25.206  0.00  0.00    +0.110 C 
ATOM     28  N   UNL     1      -4.490   1.910  25.106  0.00  0.00    -0.298 N 
ATOM     29  C   UNL     1      -3.672   1.864  25.010  0.00  0.00    +0.277 A 
ATOM     30  O   UNL     1      -3.102   1.283  24.874  0.00  0.00    -0.266 OA
ENDROOT
BRANCH  18  20
ATOM     20  C   UNL     1      -3.966   0.005  24.808  0.00  0.00    +0.054 A 
ATOM     21  C   UNL     1      -3.972  -0.310  24.046  0.00  0.00    +0.007 A 
ATOM     22  C   UNL     1      -3.780  -1.104  23.925  0.00  0.00    +0.030 A 
ATOM     23  C   UNL     1      -3.583  -1.582  24.567  0.00  0.00    +0.140 A 
ATOM     24  F   UNL     1      -3.391  -2.376  24.446  0.00  0.00    -0.204 F 
ATOM     25  C   UNL     1      -3.577  -1.269  25.329  0.00  0.00    +0.030 A 
ATOM     26  C   UNL     1      -3.768  -0.475  25.450  0.00  0.00    +0.007 A 
ENDBRANCH  18  20
BRANCH   8   7
ATOM      7  N   UNL     1      -2.396   2.504  24.949  0.00  0.00    -0.096 NA
BRANCH   7   4
ATOM      4  S   UNL     1      -1.936   3.187  25.002  0.00  0.00    +0.073 S 
ATOM      5  O   UNL     1      -2.025   3.309  24.191  0.00  0.00    -0.153 OA
ATOM      6  O   UNL     1      -1.848   3.065  25.813  0.00  0.00    -0.153 OA
BRANCH   4   3
ATOM      3  C   UNL     1      -1.476   3.870  25.054  0.00  0.00    +0.174 C 
BRANCH   3   2
ATOM      1  C   UNL     1      -0.281   4.577  24.714  0.00  0.00    +0.002 C 
ATOM      2  C   UNL     1      -0.704   3.870  24.763  0.00  0.00    +0.027 C 
ENDBRANCH   3   2
ENDBRANCH   4   3
ENDBRANCH   7   4
ENDBRANCH   8   7
TORSDOF 5
ENDMDL
MODEL 3
REMARK VINA RESULT:     -12.3      1.671      3.053
REMARK  Name = 
REMARK  5 active torsions:
REMARK  status: ('A' for Active; 'I' for Inactive)
REMARK    1  A    between atoms: C_2  and  C_3
REMARK    2  A    between atoms: C_3  and  S_4
REMARK    3  A    between atoms: S_4  and  N_7
REMARK    4  A    between atoms: N_7  and  C_8
REMARK    5  A    between atoms: C_18  and  C_20
REMARK                            x       y       z     vdW  Elec       q    Type
REMARK                         _______ _______ _______ _____ _____    ______ ____
ROOT
ATOM      8  C   UNL     1      -1.474   1.671  25.084  0.00  0.00    +0.147 A 
ATOM      9  C   UNL     1      -0.667   1.839  25.046  0.00  0.00    +0.024 A 
ATOM     10  C   UNL     1      -0.409   2.623  25.034  0.00  0.00    +0.014 A 
ATOM     11  C   UNL     1      -0.957   3.238  25.060  0.00  0.00    +0.041 A 
ATOM     12  C   UNL     1      -1.000   4.156  25.062  0.00  0.00    +0.058 C 
ATOM     13  C   UNL     1      -0.592   4.726  25.043  0.00  0.00    +0.011 C 
ATOM     14  C   UNL     1      -1.388   4.557  25.081  0.00  0.00    +0.043 C 
ATOM     15  C   UNL     1      -2.375   4.557  25.127  0.00  0.00    +0.096 C 
ATOM     16  N   UNL     1      -2.514   3.733  25.134  0.00  0.00    -0.276 N 
ATOM     17  C   UNL     1      -1.954   4.172  25.107  0.00  0.00    +0.099 C 
ATOM     18  C   UNL     1      -2.936   3.024  25.154  0.00  0.00    +0.249 C 
ATOM     19  O   UNL     1      -2.534   2.303  25.135  0.00  0.00    -0.270 OA
ATOM     27  C   UNL     1      -1.353   3.597  25.079  0.00  0.00    +0.110 C 
ATOM     28  N   UNL     1      -1.764   3.070  25.098  0.00  0.00    -0.298 N 
ATOM     29  C   UNL     1      -2.023   2.287  25.110  0.00  0.00    +0.277 A 
ATOM     30  O   UNL     1      -2.738   1.878  25.144  0.00  0.00    -0.266 OA
ENDROOT
BRANCH  18  20
ATOM     20  C   UNL     1      -3.760   3.035  25.193  0.00  0.00    +0.054 A 
ATOM     21  C   UNL     1      -4.207   2.904  24.513  0.00  0.00    +0.007 A 
ATOM     22  C   UNL     1      -5.032   2.916  24.552  0.00  0.00    +0.030 A 
ATOM     23  C   UNL     1      -5.408   3.059  25.272  0.00  0.00    +0.140 A 
ATOM     24  F   UNL     1      -6.232   3.070  25.311  0.00  0.00    -0.204 F 
ATOM     25  C   UNL     1      -4.961   3.190  25.952  0.00  0.00    +0.030 A 
ATOM     26  C   UNL     1      -4.137   3.178  25.913  0.00  0.00    +0.007 A 
ENDBRANCH  18  20
BRANCH   8   7
ATOM      7  N   UNL     1      -1.732   0.888  25.096  0.00  0.00    -0.096 NA
BRANCH   7   4
ATOM      4  S   UNL     1      -1.184   0.273  25.059  0.00  0.00    +0.073 S 
ATOM      5  O   UNL     1      -1.125   0.275  25.882  0.00  0.00    -0.153 OA
ATOM      6  O   UNL     1      -1.243   0.270  24.236  0.00  0.00    -0.153 OA
BRANCH   4   3
ATOM      3  C   UNL     1      -0.636  -0.343  25.022  0.00  0.00    +0.174 C 
BRANCH   3   2
ATOM      1  C   UNL     1      -0.334  -1.737  25.115  0.00  0.00    +0.002 C 
ATOM      2  C   UNL     1      -0.886  -1.124  25.117  0.00  0.00    +0.027 C 
ENDBRANCH   3   2
ENDBRANCH   4   3
ENDBRANCH   7   4
ENDBRANCH   8   7
TORSDOF 5
ENDMDL
