MODEL 1
REMARK VINA RESULT:      -9.9      0.000      0.000
REMARK  Name = 
REMARK  4 active torsions:
REMARK  status: ('A' for Active; 'I' for Inactive)
REMARK    1  A    between atoms: O_2  and  C_3
REMARK    2  A    between atoms: C_4  and  C_10
REMARK    3  A    between atoms: C_18  and  N_24
REMARK    4  A    between atoms: N_27  and  C_28
REMARK                            x       y       z     vdW  Elec       q    Type
REMARK                         _______ _______ _______ _____ _____    ______ ____
ROOT
ATOM     10  C   UNL     1      -3.943   2.342  24.663  0.00  0.00    +0.003 A 
ATOM     11  C   UNL     1      -3.444   1.702  24.813  0.00  0.00    +0.006 A 
ATOM     12  C   UNL     1      -2.684   1.688  24.491  0.00  0.00    +0.069 A 
ATOM     13  C   UNL     1      -2.423   2.312  24.020  0.00  0.00    +0.078 A 
ATOM     14  N   UNL     1      -1.693   2.406  23.649  0.00  0.00    -0.178 NA
ATOM     15  C   UNL     1      -1.042   1.899  23.658  0.00  0.00    +0.265 C 
ATOM     16  O   UNL     1      -0.385   2.151  23.228  0.00  0.00    -0.271 OA
ATOM     17  C   UNL     1      -0.962   1.172  24.040  0.00  0.00    +0.174 C 
ATOM     18  C   UNL     1      -0.277   0.713  24.006  0.00  0.00    +0.126 C 
ATOM     19  C   UNL     1      -0.404   0.031  24.452  0.00  0.00    +0.045 C 
ATOM     20  C   UNL     1      -1.168   0.068  24.762  0.00  0.00    +0.096 C 
ATOM     21  N   UNL     1      -1.512   0.773  24.507  0.00  0.00    -0.268 N 
ATOM     22  C   UNL     1      -2.279   1.002  24.709  0.00  0.00    +0.251 C 
ATOM     23  O   UNL     1      -2.696   0.477  25.190  0.00  0.00    -0.270 OA
ATOM     31  C   UNL     1      -2.922   2.952  23.870  0.00  0.00    +0.017 A 
ATOM     32  C   UNL     1      -3.682   2.967  24.191  0.00  0.00    +0.001 A 
ENDROOT
BRANCH  10   4
ATOM      3  C   UNL     1      -4.877   2.868  25.608  0.00  0.00    +0.139 A 
ATOM      4  C   UNL     1      -4.702   2.357  24.983  0.00  0.00    +0.035 A 
ATOM      5  C   UNL     1      -5.289   1.862  24.680  0.00  0.00    +0.014 A 
ATOM      6  C   UNL     1      -6.049   1.877  25.001  0.00  0.00    +0.058 A 
ATOM      7 CL   UNL     1      -6.634   1.381  24.697  0.00  0.00    -0.082 Cl
ATOM      8  C   UNL     1      -6.222   2.387  25.625  0.00  0.00    +0.015 A 
ATOM      9  C   UNL     1      -5.637   2.883  25.929  0.00  0.00    +0.038 A 
BRANCH   3   2
ATOM      1  C   UNL     1      -4.471   3.888  26.522  0.00  0.00    +0.252 C 
ATOM      2  O   UNL     1      -4.291   3.363  25.911  0.00  0.00    -0.471 OA
ENDBRANCH   3   2
ENDBRANCH  10   4
BRANCH  18  24
ATOM     24  N   UNL     1       0.414   0.903  23.597  0.00  0.00    -0.187 NA
ATOM     25  C   UNL     1       0.874   0.305  23.263  0.00  0.00    +0.339 C 
ATOM     26  O   UNL     1       0.643  -0.483  23.338  0.00  0.00    -0.249 OA
ATOM     27  N   UNL     1       1.565   0.495  22.854  0.00  0.00    -0.189 NA
BRANCH  27  28
ATOM     28  C   UNL     1       2.024  -0.102  22.520  0.00  0.00    +0.097 C 
ATOM     29  C   UNL     1       1.785  -0.464  21.819  0.00  0.00    +0.023 C 
ATOM     30  C   UNL     1       2.724  -0.338  22.888  0.00  0.00    +0.023 C 
ENDBRANCH  27  28
ENDBRANCH  18  24
TORSDOF 4
ENDMDL
MODEL 2
REMARK VINA RESULT:      -9.6      1.326      1.768
REMARK  Name = 
REMARK  4 active torsions:
REMARK  status: ('A' for Active; 'I' for Inactive)
REMARK    1  A    between atoms: O_2  and  C_3
REMARK    2  A    between atoms: C_4  and  C_10
REMARK    3  A    between atoms: C_18  and  N_24
REMARK    4  A    between atoms: N_27  and  C_28
REMARK                            x       y       z     vdW  Elec       q    Type
REMARK                         _______ _______ _______ _____ _____    ______ ____
ROOT
ATOM     10  C   UNL     1      -2.690   1.897  24.675  0.00  0.00    +0.003 A 
ATOM     11  C   UNL     1      -2.238   1.339  24.271  0.00  0.00    +0.006 A 
ATOM     12  C   UNL     1      -1.419   1.426  24.225  0.00  0.00    +0.069 A 
ATOM     13  C   UNL     1      -1.052   2.072  24.583  0.00  0.00    +0.078 A 
ATOM     14  N   UNL     1      -0.250   2.262  24.603  0.00  0.00    -0.178 NA
ATOM     15  C   UNL     1       0.385   1.853  24.269  0.00  0.00    +0.265 C 
ATOM     16  O   UNL     1       1.129   2.188  24.387  0.00  0.00    -0.271 OA
ATOM     17  C   UNL     1       0.372   1.152  23.833  0.00  0.00    +0.174 C 
ATOM     18  C   UNL     1       1.051   0.795  23.527  0.00  0.00    +0.126 C 
ATOM     19  C   UNL     1       0.821   0.111  23.128  0.00  0.00    +0.045 C 
ATOM     20  C   UNL     1       0.000   0.045  23.188  0.00  0.00    +0.096 C 
ATOM     21  N   UNL     1      -0.276   0.688  23.623  0.00  0.00    -0.268 N 
ATOM     22  C   UNL     1      -1.074   0.810  23.797  0.00  0.00    +0.251 C 
ATOM     23  O   UNL     1      -1.595   0.240  23.506  0.00  0.00    -0.270 OA
ATOM     31  C   UNL     1      -1.504   2.631  24.987  0.00  0.00    +0.017 A 
ATOM     32  C   UNL     1      -2.323   2.544  25.034  0.00  0.00    +0.001 A 
ENDROOT
BRANCH  10   4
ATOM      3  C   UNL     1      -4.004   2.358  24.351  0.00  0.00    +0.139 A 
ATOM      4  C   UNL     1      -3.509   1.810  24.721  0.00  0.00    +0.035 A 
ATOM      5  C   UNL     1      -3.834   1.176  25.138  0.00  0.00    +0.014 A 
ATOM      6  C   UNL     1      -4.653   1.089  25.184  0.00  0.00    +0.058 A 
ATOM      7 CL   UNL     1      -4.977   0.455  25.600  0.00  0.00    -0.082 Cl
ATOM      8  C   UNL     1      -5.147   1.636  24.814  0.00  0.00    +0.015 A 
ATOM      9  C   UNL     1      -4.823   2.270  24.398  0.00  0.00    +0.038 A 
BRANCH   3   2
ATOM      1  C   UNL     1      -4.174   3.530  23.552  0.00  0.00    +0.252 C 
ATOM      2  O   UNL     1      -3.679   2.991  23.935  0.00  0.00    -0.471 OA
ENDBRANCH   3   2
ENDBRANCH  10   4
BRANCH  18  24
ATOM     24  N   UNL     1       1.823   1.074  23.606  0.00  0.00    -0.187 NA
ATOM     25  C   UNL     1       2.435   0.722  23.179  0.00  0.00    +0.339 C 
ATOM     26  O   UNL     1       2.273   0.092  22.672  0.00  0.00    -0.249 OA
ATOM     27  N   UNL     1       3.207   1.001  23.258  0.00  0.00    -0.189 NA
BRANCH  27  28
ATOM     28  C   UNL     1       3.818   0.650  22.830  0.00  0.00    +0.097 C 
ATOM     29  C   UNL     1       3.890   0.791  22.021  0.00  0.00    +0.023 C 
ATOM     30  C   UNL     1       4.358   0.157  23.213  0.00  0.00    +0.023 C 
ENDBRANCH  27  28
ENDBRANCH  18  24
TORSDOF 4
ENDMDL
MODEL 3
REMARK VINA RESULT:      -9.0      2.625      4.393
REMARK  Name = 
REMARK  4 active torsions:
REMARK  status: ('A' for Active; 'I' for Inactive)
REMARK    1  A    between atoms: O_2  and  C_3
REMARK    2  A    between atoms: C_4  and  C_10
REMARK    3  A    between atoms: C_18  and  N_24
REMARK    4  A    between atoms: N_27  and  C_28
REMARK                            x       y       z     vdW  Elec       q    Type
REMARK                         _______ _______ _______ _____ _____    ______ ____
ROOT
ATOM     10  C   UNL     1      -3.789  -0.744  24.665  0.00  0.00    +0.003 A 
ATOM     11  C   UNL     1      -3.073  -0.348  24.567  0.00  0.00    +0.006 A 
ATOM     12  C   UNL     1      -3.020   0.457  24.743  0.00  0.00    +0.069 A 
ATOM     13  C   UNL     1      -3.682   0.864  25.017  0.00  0.00    +0.078 A 
ATOM     14  N   UNL     1      -3.748   1.660  25.223  0.00  0.00    -0.178 NA
ATOM     15  C   UNL     1      -3.167   2.246  25.205  0.00  0.00    +0.265 C 
ATOM     16  O   UNL     1      -3.407   2.997  25.448  0.00  0.00    -0.271 OA
ATOM     17  C   UNL     1      -2.376   2.179  24.977  0.00  0.00    +0.174 C 
ATOM     18  C   UNL     1      -1.847   2.812  24.985  0.00  0.00    +0.126 C 
ATOM     19  C   UNL     1      -1.115   2.535  24.723  0.00  0.00    +0.045 C 
ATOM     20  C   UNL     1      -1.193   1.731  24.554  0.00  0.00    +0.096 C 
ATOM     21  N   UNL     1      -1.972   1.512  24.711  0.00  0.00    -0.268 N 
ATOM     22  C   UNL     1      -2.258   0.745  24.606  0.00  0.00    +0.251 C 
ATOM     23  O   UNL     1      -1.711   0.193  24.329  0.00  0.00    -0.270 OA
ATOM     31  C   UNL     1      -4.399   0.467  25.116  0.00  0.00    +0.017 A 
ATOM     32  C   UNL     1      -4.453  -0.337  24.940  0.00  0.00    +0.001 A 
ENDROOT
BRANCH  10   4
ATOM      3  C   UNL     1      -3.582  -2.109  25.036  0.00  0.00    +0.139 A 
ATOM      4  C   UNL     1      -3.843  -1.548  24.490  0.00  0.00    +0.035 A 
ATOM      5  C   UNL     1      -4.158  -1.793  23.767  0.00  0.00    +0.014 A 
ATOM      6  C   UNL     1      -4.212  -2.597  23.591  0.00  0.00    +0.058 A 
ATOM      7 CL   UNL     1      -4.527  -2.840  22.869  0.00  0.00    -0.082 Cl
ATOM      8  C   UNL     1      -3.951  -3.157  24.137  0.00  0.00    +0.015 A 
ATOM      9  C   UNL     1      -3.636  -2.913  24.860  0.00  0.00    +0.038 A 
BRANCH   3   2
ATOM      1  C   UNL     1      -3.011  -2.425  26.307  0.00  0.00    +0.252 C 
ATOM      2  O   UNL     1      -3.267  -1.865  25.758  0.00  0.00    -0.471 OA
ENDBRANCH   3   2
ENDBRANCH  10   4
BRANCH  18  24
ATOM     24  N   UNL     1      -2.018   3.586  25.214  0.00  0.00    -0.187 NA
ATOM     25  C   UNL     1      -1.543   4.209  24.954  0.00  0.00    +0.339 C 
ATOM     26  O   UNL     1      -0.897   4.057  24.464  0.00  0.00    -0.249 OA
ATOM     27  N   UNL     1      -1.715   4.982  25.183  0.00  0.00    -0.189 NA
BRANCH  27  28
ATOM     28  C   UNL     1      -1.241   5.604  24.923  0.00  0.00    +0.097 C 
ATOM     29  C   UNL     1      -0.420   5.522  24.914  0.00  0.00    +0.023 C 
ATOM     30  C   UNL     1      -1.588   6.309  24.671  0.00  0.00    +0.023 C 
ENDBRANCH  27  28
ENDBRANCH  18  24
TORSDOF 4
ENDMDL
MODEL 4
REMARK VINA RESULT:      -8.9      2.875      4.057
REMARK  Name = 
REMARK  4 active torsions:
REMARK  status: ('A' for Active; 'I' for Inactive)
REMARK    1  A    between atoms: O_2  and  C_3
REMARK    2  A    between atoms: C_4  and  C_10
REMARK    3  A    between atoms: C_18  and  N_24
REMARK    4  A    between atoms: N_27  and  C_28
REMARK                            x       y       z     vdW  Elec       q    Type
REMARK                         _______ _______ _______ _____ _____    ______ ____
ROOT
ATOM     10  C   UNL     1      -1.408   3.271  25.291  0.00  0.00    +0.003 A 
ATOM     11  C   UNL     1      -1.929   2.811  24.846  0.00  0.00    +0.006 A 
ATOM     12  C   UNL     1      -1.906   1.988  24.905  0.00  0.00    +0.069 A 
ATOM     13  C   UNL     1      -1.363   1.625  25.409  0.00  0.00    +0.078 A 
ATOM     14  N   UNL     1      -1.249   0.821  25.550  0.00  0.00    -0.178 NA
ATOM     15  C   UNL     1      -1.650   0.179  25.220  0.00  0.00    +0.265 C 
ATOM     16  O   UNL     1      -1.406  -0.566  25.475  0.00  0.00    -0.271 OA
ATOM     17  C   UNL     1      -2.264   0.185  24.669  0.00  0.00    +0.174 C 
ATOM     18  C   UNL     1      -2.622  -0.501  24.381  0.00  0.00    +0.126 C 
ATOM     19  C   UNL     1      -3.208  -0.276  23.845  0.00  0.00    +0.045 C 
ATOM     20  C   UNL     1      -3.212   0.548  23.802  0.00  0.00    +0.096 C 
ATOM     21  N   UNL     1      -2.629   0.832  24.311  0.00  0.00    -0.268 N 
ATOM     22  C   UNL     1      -2.470   1.635  24.416  0.00  0.00    +0.251 C 
ATOM     23  O   UNL     1      -2.935   2.154  23.974  0.00  0.00    -0.270 OA
ATOM     31  C   UNL     1      -0.842   2.086  25.855  0.00  0.00    +0.017 A 
ATOM     32  C   UNL     1      -0.865   2.908  25.796  0.00  0.00    +0.001 A 
ENDROOT
BRANCH  10   4
ATOM      3  C   UNL     1      -2.020   4.519  25.621  0.00  0.00    +0.139 A 
ATOM      4  C   UNL     1      -1.431   4.093  25.232  0.00  0.00    +0.035 A 
ATOM      5  C   UNL     1      -0.863   4.490  24.783  0.00  0.00    +0.014 A 
ATOM      6  C   UNL     1      -0.886   5.313  24.724  0.00  0.00    +0.058 A 
ATOM      7 CL   UNL     1      -0.318   5.709  24.275  0.00  0.00    -0.082 Cl
ATOM      8  C   UNL     1      -1.475   5.738  25.113  0.00  0.00    +0.015 A 
ATOM      9  C   UNL     1      -2.042   5.342  25.562  0.00  0.00    +0.038 A 
BRANCH   3   2
ATOM      1  C   UNL     1      -3.193   4.546  26.437  0.00  0.00    +0.252 C 
ATOM      2  O   UNL     1      -2.587   4.122  26.070  0.00  0.00    -0.471 OA
ENDBRANCH   3   2
ENDBRANCH  10   4
BRANCH  18  24
ATOM     24  N   UNL     1      -2.429  -1.274  24.591  0.00  0.00    -0.187 NA
ATOM     25  C   UNL     1      -2.957  -1.889  24.437  0.00  0.00    +0.339 C 
ATOM     26  O   UNL     1      -3.679  -1.729  24.072  0.00  0.00    -0.249 OA
ATOM     27  N   UNL     1      -2.764  -2.662  24.647  0.00  0.00    -0.189 NA
BRANCH  27  28
ATOM     28  C   UNL     1      -3.292  -3.276  24.493  0.00  0.00    +0.097 C 
ATOM     29  C   UNL     1      -3.838  -3.505  25.066  0.00  0.00    +0.023 C 
ATOM     30  C   UNL     1      -3.273  -3.663  23.764  0.00  0.00    +0.023 C 
ENDBRANCH  27  28
ENDBRANCH  18  24
TORSDOF 4
ENDMDL
MODEL 5
REMARK VINA RESULT:      -7.8      2.079      6.194
REMARK  Name = 
REMARK  4 active torsions:
REMARK  status: ('A' for Active; 'I' for Inactive)
REMARK    1  A    between atoms: O_2  and  C_3
REMARK    2  A    between atoms: C_4  and  C_10
REMARK    3  A    between atoms: C_18  and  N_24
REMARK    4  A    between atoms: N_27  and  C_28
REMARK                            x       y       z     vdW  Elec       q    Type
REMARK                         _______ _______ _______ _____ _____    ______ ____
ROOT
ATOM     10  C   UNL     1       0.696   0.174  23.405  0.00  0.00    +0.003 A 
ATOM     11  C   UNL     1       0.181   0.817  23.376  0.00  0.00    +0.006 A 
ATOM     12  C   UNL     1      -0.550   0.777  23.756  0.00  0.00    +0.069 A 
ATOM     13  C   UNL     1      -0.766   0.094  24.165  0.00  0.00    +0.078 A 
ATOM     14  N   UNL     1      -1.463  -0.060  24.578  0.00  0.00    -0.178 NA
ATOM     15  C   UNL     1      -2.117   0.432  24.685  0.00  0.00    +0.265 C 
ATOM     16  O   UNL     1      -2.735   0.116  25.131  0.00  0.00    -0.271 OA
ATOM     17  C   UNL     1      -2.234   1.199  24.405  0.00  0.00    +0.174 C 
ATOM     18  C   UNL     1      -2.919   1.637  24.551  0.00  0.00    +0.126 C 
ATOM     19  C   UNL     1      -2.835   2.371  24.186  0.00  0.00    +0.045 C 
ATOM     20  C   UNL     1      -2.099   2.388  23.813  0.00  0.00    +0.096 C 
ATOM     21  N   UNL     1      -1.728   1.664  23.949  0.00  0.00    -0.268 N 
ATOM     22  C   UNL     1      -0.979   1.476  23.660  0.00  0.00    +0.251 C 
ATOM     23  O   UNL     1      -0.607   2.065  23.216  0.00  0.00    -0.270 OA
ATOM     31  C   UNL     1      -0.251  -0.550  24.194  0.00  0.00    +0.017 A 
ATOM     32  C   UNL     1       0.480  -0.510  23.814  0.00  0.00    +0.001 A 
ENDROOT
BRANCH  10   4
ATOM      3  C   UNL     1       1.528  -0.141  22.286  0.00  0.00    +0.139 A 
ATOM      4  C   UNL     1       1.427   0.213  23.025  0.00  0.00    +0.035 A 
ATOM      5  C   UNL     1       2.058   0.607  23.383  0.00  0.00    +0.014 A 
ATOM      6  C   UNL     1       2.789   0.646  23.003  0.00  0.00    +0.058 A 
ATOM      7 CL   UNL     1       3.419   1.040  23.362  0.00  0.00    -0.082 Cl
ATOM      8  C   UNL     1       2.890   0.293  22.265  0.00  0.00    +0.015 A 
ATOM      9  C   UNL     1       2.260  -0.101  21.906  0.00  0.00    +0.038 A 
BRANCH   3   2
ATOM      1  C   UNL     1       0.975  -0.820  21.158  0.00  0.00    +0.252 C 
ATOM      2  O   UNL     1       0.898  -0.534  21.928  0.00  0.00    -0.471 OA
ENDBRANCH   3   2
ENDBRANCH  10   4
BRANCH  18  24
ATOM     24  N   UNL     1      -3.572   1.384  24.987  0.00  0.00    -0.187 NA
ATOM     25  C   UNL     1      -4.267   1.829  24.986  0.00  0.00    +0.339 C 
ATOM     26  O   UNL     1      -4.307   2.527  24.549  0.00  0.00    -0.249 OA
ATOM     27  N   UNL     1      -4.920   1.576  25.421  0.00  0.00    -0.189 NA
BRANCH  27  28
ATOM     28  C   UNL     1      -5.614   2.021  25.420  0.00  0.00    +0.097 C 
ATOM     29  C   UNL     1      -5.697   2.658  25.937  0.00  0.00    +0.023 C 
ATOM     30  C   UNL     1      -6.226   1.829  24.901  0.00  0.00    +0.023 C 
ENDBRANCH  27  28
ENDBRANCH  18  24
TORSDOF 4
ENDMDL
MODEL 6
REMARK VINA RESULT:      -6.4      2.813      5.966
REMARK  Name = 
REMARK  4 active torsions:
REMARK  status: ('A' for Active; 'I' for Inactive)
REMARK    1  A    between atoms: O_2  and  C_3
REMARK    2  A    between atoms: C_4  and  C_10
REMARK    3  A    between atoms: C_18  and  N_24
REMARK    4  A    between atoms: N_27  and  C_28
REMARK                            x       y       z     vdW  Elec       q    Type
REMARK                         _______ _______ _______ _____ _____    ______ ____
ROOT
ATOM     10  C   UNL     1      -2.815  -1.133  25.048  0.00  0.00    +0.003 A 
ATOM     11  C   UNL     1      -2.809  -0.399  24.672  0.00  0.00    +0.006 A 
ATOM     12  C   UNL     1      -3.399   0.154  24.839  0.00  0.00    +0.069 A 
ATOM     13  C   UNL     1      -3.994  -0.027  25.380  0.00  0.00    +0.078 A 
ATOM     14  N   UNL     1      -4.628   0.440  25.623  0.00  0.00    -0.178 NA
ATOM     15  C   UNL     1      -4.824   1.206  25.385  0.00  0.00    +0.265 C 
ATOM     16  O   UNL     1      -5.500   1.528  25.733  0.00  0.00    -0.271 OA
ATOM     17  C   UNL     1      -4.434   1.692  24.845  0.00  0.00    +0.174 C 
ATOM     18  C   UNL     1      -4.688   2.453  24.652  0.00  0.00    +0.126 C 
ATOM     19  C   UNL     1      -4.163   2.765  24.098  0.00  0.00    +0.045 C 
ATOM     20  C   UNL     1      -3.584   2.196  23.948  0.00  0.00    +0.096 C 
ATOM     21  N   UNL     1      -3.752   1.533  24.409  0.00  0.00    -0.268 N 
ATOM     22  C   UNL     1      -3.291   0.849  24.406  0.00  0.00    +0.251 C 
ATOM     23  O   UNL     1      -2.635   0.860  23.905  0.00  0.00    -0.270 OA
ATOM     31  C   UNL     1      -4.000  -0.762  25.756  0.00  0.00    +0.017 A 
ATOM     32  C   UNL     1      -3.411  -1.315  25.590  0.00  0.00    +0.001 A 
ENDROOT
BRANCH  10   4
ATOM      3  C   UNL     1      -2.409  -2.370  24.458  0.00  0.00    +0.139 A 
ATOM      4  C   UNL     1      -2.226  -1.686  24.882  0.00  0.00    +0.035 A 
ATOM      5  C   UNL     1      -1.453  -1.555  25.139  0.00  0.00    +0.014 A 
ATOM      6  C   UNL     1      -0.864  -2.108  24.973  0.00  0.00    +0.058 A 
ATOM      7 CL   UNL     1      -0.091  -1.977  25.231  0.00  0.00    -0.082 Cl
ATOM      8  C   UNL     1      -1.047  -2.791  24.550  0.00  0.00    +0.015 A 
ATOM      9  C   UNL     1      -1.819  -2.923  24.292  0.00  0.00    +0.038 A 
BRANCH   3   2
ATOM      1  C   UNL     1      -3.373  -3.202  23.811  0.00  0.00    +0.252 C 
ATOM      2  O   UNL     1      -3.182  -2.500  24.201  0.00  0.00    -0.471 OA
ENDBRANCH   3   2
ENDBRANCH  10   4
BRANCH  18  24
ATOM     24  N   UNL     1      -5.351   2.836  24.960  0.00  0.00    -0.187 NA
ATOM     25  C   UNL     1      -5.322   3.644  25.125  0.00  0.00    +0.339 C 
ATOM     26  O   UNL     1      -4.630   4.069  24.982  0.00  0.00    -0.249 OA
ATOM     27  N   UNL     1      -5.985   4.026  25.433  0.00  0.00    -0.189 NA
BRANCH  27  28
ATOM     28  C   UNL     1      -5.956   4.833  25.597  0.00  0.00    +0.097 C 
ATOM     29  C   UNL     1      -5.515   5.109  26.237  0.00  0.00    +0.023 C 
ATOM     30  C   UNL     1      -6.370   5.366  25.122  0.00  0.00    +0.023 C 
ENDBRANCH  27  28
ENDBRANCH  18  24
TORSDOF 4
ENDMDL
