MODEL 1
REMARK VINA RESULT:     -10.7      0.000      0.000
REMARK  Name = 
REMARK  9 active torsions:
REMARK  status: ('A' for Active; 'I' for Inactive)
REMARK    1  A    between atoms: O_2  and  C_3
REMARK    2  A    between atoms: C_5  and  N_6
REMARK    3  A    between atoms: C_7  and  O_9
REMARK    4  A    between atoms: O_9  and  C_10
REMARK    5  A    between atoms: C_15  and  C_16
REMARK    6  A    between atoms: C_16  and  C_17
REMARK    7  A    between atoms: C_29  and  C_31
REMARK    8  A    between atoms: C_34  and  O_35
REMARK    9  A    between atoms: C_37  and  O_38
REMARK                            x       y       z     vdW  Elec       q    Type
REMARK                         _______ _______ _______ _____ _____    ______ ____
ROOT
ATOM     10  C   UNL     1      -4.629   1.251  24.788  0.00  0.00    +0.173 C 
ATOM     11  C   UNL     1      -3.874   1.495  24.562  0.00  0.00    +0.044 C 
ATOM     12  C   UNL     1      -3.658   2.288  24.634  0.00  0.00    +0.004 C 
ATOM     13  C   UNL     1      -4.197   2.836  24.932  0.00  0.00    +0.003 C 
ATOM     14  C   UNL     1      -3.443   3.080  24.706  0.00  0.00    +0.000 C 
ATOM     15  C   UNL     1      -3.982   3.630  25.004  0.00  0.00    +0.040 C 
ATOM     24  C   UNL     1      -4.520   4.178  25.302  0.00  0.00    +0.152 C 
ATOM     25  O   UNL     1      -4.305   4.971  25.375  0.00  0.00    -0.223 OA
ATOM     26  C   UNL     1      -5.276   3.933  25.529  0.00  0.00    +0.033 C 
ATOM     27  C   UNL     1      -5.491   3.141  25.456  0.00  0.00    +0.003 C 
ATOM     28  C   UNL     1      -4.953   2.592  25.158  0.00  0.00    +0.006 C 
ATOM     29  C   UNL     1      -5.168   1.799  25.086  0.00  0.00    +0.068 C 
ATOM     30  C   UNL     1      -5.922   1.947  25.386  0.00  0.00    +0.006 C 
ENDROOT
BRANCH  29  31
ATOM     31  C   UNL     1      -5.746   1.220  25.185  0.00  0.00    +0.185 C 
ATOM     32  O   UNL     1      -6.540   1.437  25.252  0.00  0.00    -0.220 OA
ENDBRANCH  29  31
BRANCH  10   9
ATOM      9  O   UNL     1      -4.844   0.457  24.716  0.00  0.00    -0.437 OA
BRANCH   9   7
ATOM      6  N   UNL     1      -4.036  -0.633  25.163  0.00  0.00    -0.142 NA
ATOM      7  C   UNL     1      -4.270  -0.115  24.564  0.00  0.00    +0.425 C 
ATOM      8  O   UNL     1      -3.929  -0.170  23.816  0.00  0.00    -0.224 OA
BRANCH   6   5
ATOM      3  C   UNL     1      -2.102  -1.639  25.075  0.00  0.00    +0.177 A 
ATOM      4  C   UNL     1      -2.677  -1.068  25.225  0.00  0.00    +0.057 A 
ATOM      5  C   UNL     1      -3.462  -1.205  25.013  0.00  0.00    +0.083 A 
ATOM     33  C   UNL     1      -3.672  -1.915  24.649  0.00  0.00    +0.057 A 
ATOM     34  C   UNL     1      -3.097  -2.488  24.498  0.00  0.00    +0.177 A 
ATOM     37  C   UNL     1      -2.312  -2.350  24.711  0.00  0.00    +0.206 A 
BRANCH   3   2
ATOM      1  C   UNL     1      -1.130  -0.874  25.789  0.00  0.00    +0.253 C 
ATOM      2  O   UNL     1      -1.317  -1.502  25.287  0.00  0.00    -0.468 OA
ENDBRANCH   3   2
BRANCH  34  35
ATOM     35  O   UNL     1      -3.307  -3.197  24.135  0.00  0.00    -0.468 OA
ATOM     36  C   UNL     1      -4.103  -3.399  24.050  0.00  0.00    +0.253 C 
ENDBRANCH  34  35
BRANCH  37  38
ATOM     38  O   UNL     1      -1.737  -2.922  24.560  0.00  0.00    -0.465 OA
ATOM     39  C   UNL     1      -1.260  -2.861  23.891  0.00  0.00    +0.253 C 
ENDBRANCH  37  38
ENDBRANCH   6   5
ENDBRANCH   9   7
ENDBRANCH  10   9
BRANCH  15  16
ATOM     16  C   UNL     1      -3.227   3.874  24.779  0.00  0.00    +0.088 C 
BRANCH  16  17
ATOM     17  C   UNL     1      -2.726   4.229  25.329  0.00  0.00    +0.226 C 
ATOM     18  O   UNL     1      -2.957   4.287  26.120  0.00  0.00    -0.275 OA
ATOM     19  N   UNL     1      -1.995   4.527  25.090  0.00  0.00    -0.280 N 
ATOM     20  C   UNL     1      -1.692   4.509  24.324  0.00  0.00    +0.093 C 
ATOM     21  C   UNL     1      -0.947   4.866  24.336  0.00  0.00    +0.023 C 
ATOM     22  C   UNL     1      -0.792   5.105  25.110  0.00  0.00    +0.023 C 
ATOM     23  C   UNL     1      -1.439   4.895  25.577  0.00  0.00    +0.093 C 
ENDBRANCH  16  17
ENDBRANCH  15  16
TORSDOF 9
ENDMDL
MODEL 2
REMARK VINA RESULT:      -8.9      2.572      4.294
REMARK  Name = 
REMARK  9 active torsions:
REMARK  status: ('A' for Active; 'I' for Inactive)
REMARK    1  A    between atoms: O_2  and  C_3
REMARK    2  A    between atoms: C_5  and  N_6
REMARK    3  A    between atoms: C_7  and  O_9
REMARK    4  A    between atoms: O_9  and  C_10
REMARK    5  A    between atoms: C_15  and  C_16
REMARK    6  A    between atoms: C_16  and  C_17
REMARK    7  A    between atoms: C_29  and  C_31
REMARK    8  A    between atoms: C_34  and  O_35
REMARK    9  A    between atoms: C_37  and  O_38
REMARK                            x       y       z     vdW  Elec       q    Type
REMARK                         _______ _______ _______ _____ _____    ______ ____
ROOT
ATOM     10  C   UNL     1      -1.115   3.176  24.709  0.00  0.00    +0.173 C 
ATOM     11  C   UNL     1      -1.626   2.535  24.602  0.00  0.00    +0.044 C 
ATOM     12  C   UNL     1      -2.408   2.584  24.860  0.00  0.00    +0.004 C 
ATOM     13  C   UNL     1      -2.680   3.272  25.224  0.00  0.00    +0.003 C 
ATOM     14  C   UNL     1      -3.189   2.633  25.118  0.00  0.00    +0.000 C 
ATOM     15  C   UNL     1      -3.462   3.321  25.483  0.00  0.00    +0.040 C 
ATOM     24  C   UNL     1      -3.734   4.009  25.847  0.00  0.00    +0.152 C 
ATOM     25  O   UNL     1      -4.516   4.058  26.105  0.00  0.00    -0.223 OA
ATOM     26  C   UNL     1      -3.223   4.649  25.954  0.00  0.00    +0.033 C 
ATOM     27  C   UNL     1      -2.442   4.600  25.696  0.00  0.00    +0.003 C 
ATOM     28  C   UNL     1      -2.169   3.912  25.331  0.00  0.00    +0.006 C 
ATOM     29  C   UNL     1      -1.387   3.863  25.074  0.00  0.00    +0.068 C 
ATOM     30  C   UNL     1      -1.223   4.627  25.337  0.00  0.00    +0.006 C 
ENDROOT
BRANCH  29  31
ATOM     31  C   UNL     1      -0.652   4.228  24.999  0.00  0.00    +0.185 C 
ATOM     32  O   UNL     1      -0.601   5.051  24.958  0.00  0.00    -0.220 OA
ENDBRANCH  29  31
BRANCH  10   9
ATOM      9  O   UNL     1      -0.333   3.126  24.451  0.00  0.00    -0.437 OA
BRANCH   9   7
ATOM      6  N   UNL     1       0.478   1.953  24.351  0.00  0.00    -0.142 NA
ATOM      7  C   UNL     1      -0.079   2.468  24.024  0.00  0.00    +0.425 C 
ATOM      8  O   UNL     1      -0.381   2.323  23.270  0.00  0.00    -0.224 OA
BRANCH   6   5
ATOM      3  C   UNL     1       1.697   0.666  23.079  0.00  0.00    +0.177 A 
ATOM      4  C   UNL     1       1.442   1.324  23.506  0.00  0.00    +0.057 A 
ATOM      5  C   UNL     1       0.732   1.295  23.925  0.00  0.00    +0.083 A 
ATOM     33  C   UNL     1       0.276   0.608  23.916  0.00  0.00    +0.057 A 
ATOM     34  C   UNL     1       0.530  -0.051  23.489  0.00  0.00    +0.177 A 
ATOM     37  C   UNL     1       1.240  -0.022  23.071  0.00  0.00    +0.206 A 
BRANCH   3   2
ATOM      1  C   UNL     1       3.072   1.047  23.001  0.00  0.00    +0.253 C 
ATOM      2  O   UNL     1       2.406   0.695  22.661  0.00  0.00    -0.468 OA
ENDBRANCH   3   2
BRANCH  34  35
ATOM     35  O   UNL     1       0.074  -0.738  23.480  0.00  0.00    -0.468 OA
ATOM     36  C   UNL     1      -0.332  -0.973  24.159  0.00  0.00    +0.253 C 
ENDBRANCH  34  35
BRANCH  37  38
ATOM     38  O   UNL     1       1.495  -0.680  22.644  0.00  0.00    -0.465 OA
ATOM     39  C   UNL     1       1.392  -0.707  21.826  0.00  0.00    +0.253 C 
ENDBRANCH  37  38
ENDBRANCH   6   5
ENDBRANCH   9   7
ENDBRANCH  10   9
BRANCH  15  16
ATOM     16  C   UNL     1      -3.972   2.682  25.376  0.00  0.00    +0.088 C 
BRANCH  16  17
ATOM     17  C   UNL     1      -4.708   2.795  25.021  0.00  0.00    +0.226 C 
ATOM     18  O   UNL     1      -4.864   3.495  24.611  0.00  0.00    -0.275 OA
ATOM     19  N   UNL     1      -5.287   2.212  25.077  0.00  0.00    -0.280 N 
ATOM     20  C   UNL     1      -5.212   1.489  25.467  0.00  0.00    +0.093 C 
ATOM     21  C   UNL     1      -5.923   1.078  25.383  0.00  0.00    +0.023 C 
ATOM     22  C   UNL     1      -6.438   1.548  24.942  0.00  0.00    +0.023 C 
ATOM     23  C   UNL     1      -6.045   2.248  24.752  0.00  0.00    +0.093 C 
ENDBRANCH  16  17
ENDBRANCH  15  16
TORSDOF 9
ENDMDL
MODEL 3
REMARK VINA RESULT:      -8.7      1.671      3.313
REMARK  Name = 
REMARK  9 active torsions:
REMARK  status: ('A' for Active; 'I' for Inactive)
REMARK    1  A    between atoms: O_2  and  C_3
REMARK    2  A    between atoms: C_5  and  N_6
REMARK    3  A    between atoms: C_7  and  O_9
REMARK    4  A    between atoms: O_9  and  C_10
REMARK    5  A    between atoms: C_15  and  C_16
REMARK    6  A    between atoms: C_16  and  C_17
REMARK    7  A    between atoms: C_29  and  C_31
REMARK    8  A    between atoms: C_34  and  O_35
REMARK    9  A    between atoms: C_37  and  O_38
REMARK                            x       y       z     vdW  Elec       q    Type
REMARK                         _______ _______ _______ _____ _____    ______ ____
ROOT
ATOM     10  C   UNL     1      -0.946   1.655  25.182  0.00  0.00    +0.173 C 
ATOM     11  C   UNL     1      -1.737   1.678  25.419  0.00  0.00    +0.044 C 
ATOM     12  C   UNL     1      -2.121   2.402  25.505  0.00  0.00    +0.004 C 
ATOM     13  C   UNL     1      -1.716   3.104  25.354  0.00  0.00    +0.003 C 
ATOM     14  C   UNL     1      -2.505   3.126  25.591  0.00  0.00    +0.000 C 
ATOM     15  C   UNL     1      -2.100   3.829  25.440  0.00  0.00    +0.040 C 
ATOM     24  C   UNL     1      -1.695   4.531  25.289  0.00  0.00    +0.152 C 
ATOM     25  O   UNL     1      -2.079   5.257  25.375  0.00  0.00    -0.223 OA
ATOM     26  C   UNL     1      -0.904   4.509  25.052  0.00  0.00    +0.033 C 
ATOM     27  C   UNL     1      -0.520   3.785  24.966  0.00  0.00    +0.003 C 
ATOM     28  C   UNL     1      -0.925   3.082  25.117  0.00  0.00    +0.006 C 
ATOM     29  C   UNL     1      -0.541   2.357  25.031  0.00  0.00    +0.068 C 
ATOM     30  C   UNL     1       0.162   2.724  24.804  0.00  0.00    +0.006 C 
ENDROOT
BRANCH  29  31
ATOM     31  C   UNL     1       0.151   1.951  24.839  0.00  0.00    +0.185 C 
ATOM     32  O   UNL     1       0.758   2.338  24.436  0.00  0.00    -0.220 OA
ENDBRANCH  29  31
BRANCH  10   9
ATOM      9  O   UNL     1      -0.562   0.930  25.096  0.00  0.00    -0.437 OA
BRANCH   9   7
ATOM      6  N   UNL     1      -1.197  -0.164  24.428  0.00  0.00    -0.142 NA
ATOM      7  C   UNL     1      -0.993   0.227  25.127  0.00  0.00    +0.425 C 
ATOM      8  O   UNL     1      -1.221  -0.085  25.855  0.00  0.00    -0.224 OA
BRANCH   6   5
ATOM      3  C   UNL     1      -1.676  -2.279  24.664  0.00  0.00    +0.177 A 
ATOM      4  C   UNL     1      -1.246  -1.576  24.633  0.00  0.00    +0.057 A 
ATOM      5  C   UNL     1      -1.628  -0.866  24.459  0.00  0.00    +0.083 A 
ATOM     33  C   UNL     1      -2.439  -0.858  24.317  0.00  0.00    +0.057 A 
ATOM     34  C   UNL     1      -2.871  -1.561  24.348  0.00  0.00    +0.177 A 
ATOM     37  C   UNL     1      -2.490  -2.271  24.521  0.00  0.00    +0.206 A 
BRANCH   3   2
ATOM      1  C   UNL     1      -0.474  -3.007  24.920  0.00  0.00    +0.253 C 
ATOM      2  O   UNL     1      -1.295  -2.989  24.837  0.00  0.00    -0.468 OA
ENDBRANCH   3   2
BRANCH  34  35
ATOM     35  O   UNL     1      -3.683  -1.553  24.205  0.00  0.00    -0.468 OA
ATOM     36  C   UNL     1      -4.046  -0.869  23.921  0.00  0.00    +0.253 C 
ENDBRANCH  34  35
BRANCH  37  38
ATOM     38  O   UNL     1      -2.920  -2.974  24.552  0.00  0.00    -0.465 OA
ATOM     39  C   UNL     1      -3.391  -3.141  25.207  0.00  0.00    +0.253 C 
ENDBRANCH  37  38
ENDBRANCH   6   5
ENDBRANCH   9   7
ENDBRANCH  10   9
BRANCH  15  16
ATOM     16  C   UNL     1      -2.890   3.852  25.677  0.00  0.00    +0.088 C 
BRANCH  16  17
ATOM     17  C   UNL     1      -3.473   4.093  25.146  0.00  0.00    +0.226 C 
ATOM     18  O   UNL     1      -3.259   4.417  24.418  0.00  0.00    -0.275 OA
ATOM     19  N   UNL     1      -4.269   4.010  25.343  0.00  0.00    -0.280 N 
ATOM     20  C   UNL     1      -4.565   3.698  26.046  0.00  0.00    +0.093 C 
ATOM     21  C   UNL     1      -5.389   3.720  26.009  0.00  0.00    +0.023 C 
ATOM     22  C   UNL     1      -5.603   4.046  25.282  0.00  0.00    +0.023 C 
ATOM     23  C   UNL     1      -4.910   4.226  24.870  0.00  0.00    +0.093 C 
ENDBRANCH  16  17
ENDBRANCH  15  16
TORSDOF 9
ENDMDL
MODEL 4
REMARK VINA RESULT:      -8.0      1.965      5.359
REMARK  Name = 
REMARK  9 active torsions:
REMARK  status: ('A' for Active; 'I' for Inactive)
REMARK    1  A    between atoms: O_2  and  C_3
REMARK    2  A    between atoms: C_5  and  N_6
REMARK    3  A    between atoms: C_7  and  O_9
REMARK    4  A    between atoms: O_9  and  C_10
REMARK    5  A    between atoms: C_15  and  C_16
REMARK    6  A    between atoms: C_16  and  C_17
REMARK    7  A    between atoms: C_29  and  C_31
REMARK    8  A    between atoms: C_34  and  O_35
REMARK    9  A    between atoms: C_37  and  O_38
REMARK                            x       y       z     vdW  Elec       q    Type
REMARK                         _______ _______ _______ _____ _____    ______ ____
ROOT
ATOM     10  C   UNL     1      -3.190  -0.335  24.690  0.00  0.00    +0.173 C 
ATOM     11  C   UNL     1      -2.637   0.238  24.472  0.00  0.00    +0.044 C 
ATOM     12  C   UNL     1      -1.842   0.035  24.395  0.00  0.00    +0.004 C 
ATOM     13  C   UNL     1      -1.598  -0.740  24.535  0.00  0.00    +0.003 C 
ATOM     14  C   UNL     1      -1.046  -0.168  24.318  0.00  0.00    +0.000 C 
ATOM     15  C   UNL     1      -0.802  -0.944  24.459  0.00  0.00    +0.040 C 
ATOM     24  C   UNL     1      -0.559  -1.719  24.599  0.00  0.00    +0.152 C 
ATOM     25  O   UNL     1       0.237  -1.922  24.523  0.00  0.00    -0.223 OA
ATOM     26  C   UNL     1      -1.112  -2.292  24.817  0.00  0.00    +0.033 C 
ATOM     27  C   UNL     1      -1.908  -2.089  24.894  0.00  0.00    +0.003 C 
ATOM     28  C   UNL     1      -2.152  -1.313  24.754  0.00  0.00    +0.006 C 
ATOM     29  C   UNL     1      -2.947  -1.110  24.830  0.00  0.00    +0.068 C 
ATOM     30  C   UNL     1      -3.153  -1.880  25.040  0.00  0.00    +0.006 C 
ENDROOT
BRANCH  29  31
ATOM     31  C   UNL     1      -3.716  -1.350  25.005  0.00  0.00    +0.185 C 
ATOM     32  O   UNL     1      -3.925  -2.146  24.939  0.00  0.00    -0.220 OA
ENDBRANCH  29  31
BRANCH  10   9
ATOM      9  O   UNL     1      -3.986  -0.131  24.766  0.00  0.00    -0.437 OA
BRANCH   9   7
ATOM      6  N   UNL     1      -4.734   1.082  24.649  0.00  0.00    -0.142 NA
ATOM      7  C   UNL     1      -4.197   0.610  25.063  0.00  0.00    +0.425 C 
ATOM      8  O   UNL     1      -3.872   0.879  25.771  0.00  0.00    -0.224 OA
BRANCH   6   5
ATOM      3  C   UNL     1      -4.783   3.242  24.954  0.00  0.00    +0.177 A 
ATOM      4  C   UNL     1      -4.572   2.501  24.659  0.00  0.00    +0.057 A 
ATOM      5  C   UNL     1      -4.945   1.822  24.944  0.00  0.00    +0.083 A 
ATOM     33  C   UNL     1      -5.527   1.884  25.524  0.00  0.00    +0.057 A 
ATOM     34  C   UNL     1      -5.739   2.625  25.820  0.00  0.00    +0.177 A 
ATOM     37  C   UNL     1      -5.366   3.304  25.535  0.00  0.00    +0.206 A 
BRANCH   3   2
ATOM      1  C   UNL     1      -3.680   3.862  24.290  0.00  0.00    +0.253 C 
ATOM      2  O   UNL     1      -4.411   3.920  24.670  0.00  0.00    -0.468 OA
ENDBRANCH   3   2
BRANCH  34  35
ATOM     35  O   UNL     1      -6.321   2.687  26.400  0.00  0.00    -0.468 OA
ATOM     36  C   UNL     1      -6.616   2.007  26.764  0.00  0.00    +0.253 C 
ENDBRANCH  34  35
BRANCH  37  38
ATOM     38  O   UNL     1      -5.577   4.045  25.830  0.00  0.00    -0.465 OA
ATOM     39  C   UNL     1      -6.145   4.497  25.441  0.00  0.00    +0.253 C 
ENDBRANCH  37  38
ENDBRANCH   6   5
ENDBRANCH   9   7
ENDBRANCH  10   9
BRANCH  15  16
ATOM     16  C   UNL     1      -0.250  -0.371  24.241  0.00  0.00    +0.088 C 
BRANCH  16  17
ATOM     17  C   UNL     1       0.227  -0.488  23.578  0.00  0.00    +0.226 C 
ATOM     18  O   UNL     1       0.081  -1.125  23.073  0.00  0.00    -0.275 OA
ATOM     19  N   UNL     1       0.847   0.030  23.419  0.00  0.00    -0.280 N 
ATOM     20  C   UNL     1       1.058   0.688  23.870  0.00  0.00    +0.093 C 
ATOM     21  C   UNL     1       1.708   1.047  23.510  0.00  0.00    +0.023 C 
ATOM     22  C   UNL     1       1.899   0.612  22.836  0.00  0.00    +0.023 C 
ATOM     23  C   UNL     1       1.367  -0.017  22.779  0.00  0.00    +0.093 C 
ENDBRANCH  16  17
ENDBRANCH  15  16
TORSDOF 9
ENDMDL
MODEL 5
REMARK VINA RESULT:      -7.6      2.509      4.493
REMARK  Name = 
REMARK  9 active torsions:
REMARK  status: ('A' for Active; 'I' for Inactive)
REMARK    1  A    between atoms: O_2  and  C_3
REMARK    2  A    between atoms: C_5  and  N_6
REMARK    3  A    between atoms: C_7  and  O_9
REMARK    4  A    between atoms: O_9  and  C_10
REMARK    5  A    between atoms: C_15  and  C_16
REMARK    6  A    between atoms: C_16  and  C_17
REMARK    7  A    between atoms: C_29  and  C_31
REMARK    8  A    between atoms: C_34  and  O_35
REMARK    9  A    between atoms: C_37  and  O_38
REMARK                            x       y       z     vdW  Elec       q    Type
REMARK                         _______ _______ _______ _____ _____    ______ ____
ROOT
ATOM     10  C   UNL     1      -2.018  -0.767  24.516  0.00  0.00    +0.173 C 
ATOM     11  C   UNL     1      -2.055   0.051  24.623  0.00  0.00    +0.044 C 
ATOM     12  C   UNL     1      -2.787   0.431  24.647  0.00  0.00    +0.004 C 
ATOM     13  C   UNL     1      -3.481  -0.006  24.564  0.00  0.00    +0.003 C 
ATOM     14  C   UNL     1      -3.518   0.810  24.671  0.00  0.00    +0.000 C 
ATOM     15  C   UNL     1      -4.213   0.374  24.588  0.00  0.00    +0.040 C 
ATOM     24  C   UNL     1      -4.908  -0.063  24.505  0.00  0.00    +0.152 C 
ATOM     25  O   UNL     1      -5.640   0.317  24.529  0.00  0.00    -0.223 OA
ATOM     26  C   UNL     1      -4.871  -0.881  24.398  0.00  0.00    +0.033 C 
ATOM     27  C   UNL     1      -4.139  -1.261  24.374  0.00  0.00    +0.003 C 
ATOM     28  C   UNL     1      -3.444  -0.824  24.457  0.00  0.00    +0.006 C 
ATOM     29  C   UNL     1      -2.713  -1.204  24.433  0.00  0.00    +0.068 C 
ATOM     30  C   UNL     1      -3.066  -1.940  24.322  0.00  0.00    +0.006 C 
ENDROOT
BRANCH  29  31
ATOM     31  C   UNL     1      -2.293  -1.909  24.354  0.00  0.00    +0.185 C 
ATOM     32  O   UNL     1      -2.694  -2.631  24.366  0.00  0.00    -0.220 OA
ENDBRANCH  29  31
BRANCH  10   9
ATOM      9  O   UNL     1      -1.286  -1.147  24.492  0.00  0.00    -0.437 OA
BRANCH   9   7
ATOM      6  N   UNL     1      -0.404  -0.442  23.615  0.00  0.00    -0.142 NA
ATOM      7  C   UNL     1      -0.597  -0.709  24.372  0.00  0.00    +0.425 C 
ATOM      8  O   UNL     1      -0.101  -0.538  25.008  0.00  0.00    -0.224 OA
BRANCH   6   5
ATOM      3  C   UNL     1       1.562   0.147  22.871  0.00  0.00    +0.177 A 
ATOM      4  C   UNL     1       0.872  -0.290  22.992  0.00  0.00    +0.057 A 
ATOM      5  C   UNL     1       0.285  -0.004  23.495  0.00  0.00    +0.083 A 
ATOM     33  C   UNL     1       0.386   0.718  23.879  0.00  0.00    +0.057 A 
ATOM     34  C   UNL     1       1.075   1.156  23.759  0.00  0.00    +0.177 A 
ATOM     37  C   UNL     1       1.663   0.871  23.255  0.00  0.00    +0.206 A 
BRANCH   3   2
ATOM      1  C   UNL     1       1.941  -0.501  21.656  0.00  0.00    +0.253 C 
ATOM      2  O   UNL     1       2.148  -0.139  22.368  0.00  0.00    -0.468 OA
ENDBRANCH   3   2
BRANCH  34  35
ATOM     35  O   UNL     1       1.177   1.879  24.142  0.00  0.00    -0.468 OA
ATOM     36  C   UNL     1       0.526   2.366  24.286  0.00  0.00    +0.253 C 
ENDBRANCH  34  35
BRANCH  37  38
ATOM     38  O   UNL     1       2.352   1.308  23.135  0.00  0.00    -0.465 OA
ATOM     39  C   UNL     1       3.086   0.977  23.311  0.00  0.00    +0.253 C 
ENDBRANCH  37  38
ENDBRANCH   6   5
ENDBRANCH   9   7
ENDBRANCH  10   9
BRANCH  15  16
ATOM     16  C   UNL     1      -4.250   1.191  24.696  0.00  0.00    +0.088 C 
BRANCH  16  17
ATOM     17  C   UNL     1      -4.772   1.512  25.249  0.00  0.00    +0.226 C 
ATOM     18  O   UNL     1      -5.163   1.017  25.781  0.00  0.00    -0.275 OA
ATOM     19  N   UNL     1      -4.901   2.325  25.270  0.00  0.00    -0.280 N 
ATOM     20  C   UNL     1      -4.552   2.885  24.776  0.00  0.00    +0.093 C 
ATOM     21  C   UNL     1      -4.838   3.629  24.990  0.00  0.00    +0.023 C 
ATOM     22  C   UNL     1      -5.365   3.528  25.617  0.00  0.00    +0.023 C 
ATOM     23  C   UNL     1      -5.404   2.722  25.790  0.00  0.00    +0.093 C 
ENDBRANCH  16  17
ENDBRANCH  15  16
TORSDOF 9
ENDMDL
MODEL 6
REMARK VINA RESULT:      -7.4      1.419      5.463
REMARK  Name = 
REMARK  9 active torsions:
REMARK  status: ('A' for Active; 'I' for Inactive)
REMARK    1  A    between atoms: O_2  and  C_3
REMARK    2  A    between atoms: C_5  and  N_6
REMARK    3  A    between atoms: C_7  and  O_9
REMARK    4  A    between atoms: O_9  and  C_10
REMARK    5  A    between atoms: C_15  and  C_16
REMARK    6  A    between atoms: C_16  and  C_17
REMARK    7  A    between atoms: C_29  and  C_31
REMARK    8  A    between atoms: C_34  and  O_35
REMARK    9  A    between atoms: C_37  and  O_38
REMARK                            x       y       z     vdW  Elec       q    Type
REMARK                         _______ _______ _______ _____ _____    ______ ____
ROOT
ATOM     10  C   UNL     1      -3.909   1.603  24.773  0.00  0.00    +0.173 C 
ATOM     11  C   UNL     1      -3.176   1.235  24.681  0.00  0.00    +0.044 C 
ATOM     12  C   UNL     1      -3.138   0.426  24.525  0.00  0.00    +0.004 C 
ATOM     13  C   UNL     1      -3.831  -0.015  24.461  0.00  0.00    +0.003 C 
ATOM     14  C   UNL     1      -3.099  -0.382  24.369  0.00  0.00    +0.000 C 
ATOM     15  C   UNL     1      -3.793  -0.824  24.305  0.00  0.00    +0.040 C 
ATOM     24  C   UNL     1      -4.487  -1.265  24.241  0.00  0.00    +0.152 C 
ATOM     25  O   UNL     1      -4.449  -2.074  24.085  0.00  0.00    -0.223 OA
ATOM     26  C   UNL     1      -5.220  -0.897  24.333  0.00  0.00    +0.033 C 
ATOM     27  C   UNL     1      -5.259  -0.088  24.489  0.00  0.00    +0.003 C 
ATOM     28  C   UNL     1      -4.565   0.354  24.553  0.00  0.00    +0.006 C 
ATOM     29  C   UNL     1      -4.603   1.162  24.709  0.00  0.00    +0.068 C 
ATOM     30  C   UNL     1      -5.427   1.149  24.730  0.00  0.00    +0.006 C 
ENDROOT
BRANCH  29  31
ATOM     31  C   UNL     1      -5.072   1.826  24.849  0.00  0.00    +0.185 C 
ATOM     32  O   UNL     1      -5.880   1.738  24.990  0.00  0.00    -0.220 OA
ENDBRANCH  29  31
BRANCH  10   9
ATOM      9  O   UNL     1      -3.947   2.413  24.929  0.00  0.00    -0.437 OA
BRANCH   9   7
ATOM      6  N   UNL     1      -2.881   3.189  25.482  0.00  0.00    -0.142 NA
ATOM      7  C   UNL     1      -3.279   2.886  24.824  0.00  0.00    +0.425 C 
ATOM      8  O   UNL     1      -3.009   3.057  24.065  0.00  0.00    -0.224 OA
BRANCH   6   5
ATOM      3  C   UNL     1      -1.632   4.944  25.135  0.00  0.00    +0.177 A 
ATOM      4  C   UNL     1      -2.299   4.471  25.240  0.00  0.00    +0.057 A 
ATOM      5  C   UNL     1      -2.214   3.662  25.378  0.00  0.00    +0.083 A 
ATOM     33  C   UNL     1      -1.462   3.327  25.412  0.00  0.00    +0.057 A 
ATOM     34  C   UNL     1      -0.793   3.799  25.309  0.00  0.00    +0.177 A 
ATOM     37  C   UNL     1      -0.879   4.608  25.170  0.00  0.00    +0.206 A 
BRANCH   3   2
ATOM      1  C   UNL     1      -2.391   6.148  25.264  0.00  0.00    +0.253 C 
ATOM      2  O   UNL     1      -1.717   5.752  24.997  0.00  0.00    -0.468 OA
ENDBRANCH   3   2
BRANCH  34  35
ATOM     35  O   UNL     1      -0.041   3.464  25.343  0.00  0.00    -0.468 OA
ATOM     36  C   UNL     1       0.078   2.756  25.749  0.00  0.00    +0.253 C 
ENDBRANCH  34  35
BRANCH  37  38
ATOM     38  O   UNL     1      -0.212   5.082  25.066  0.00  0.00    -0.465 OA
ATOM     39  C   UNL     1       0.066   5.243  24.307  0.00  0.00    +0.253 C 
ENDBRANCH  37  38
ENDBRANCH   6   5
ENDBRANCH   9   7
ENDBRANCH  10   9
BRANCH  15  16
ATOM     16  C   UNL     1      -3.061  -1.192  24.213  0.00  0.00    +0.088 C 
BRANCH  16  17
ATOM     17  C   UNL     1      -2.840  -1.806  24.719  0.00  0.00    +0.226 C 
ATOM     18  O   UNL     1      -3.373  -2.084  25.286  0.00  0.00    -0.275 OA
ATOM     19  N   UNL     1      -2.090  -2.141  24.658  0.00  0.00    -0.280 N 
ATOM     20  C   UNL     1      -1.503  -1.922  24.122  0.00  0.00    +0.093 C 
ATOM     21  C   UNL     1      -0.844  -2.401  24.255  0.00  0.00    +0.023 C 
ATOM     22  C   UNL     1      -1.024  -2.916  24.874  0.00  0.00    +0.023 C 
ATOM     23  C   UNL     1      -1.795  -2.755  25.124  0.00  0.00    +0.093 C 
ENDBRANCH  16  17
ENDBRANCH  15  16
TORSDOF 9
ENDMDL
MODEL 7
REMARK VINA RESULT:      -6.7      1.933      5.752
REMARK  Name = 
REMARK  9 active torsions:
REMARK  status: ('A' for Active; 'I' for Inactive)
REMARK    1  A    between atoms: O_2  and  C_3
REMARK    2  A    between atoms: C_5  and  N_6
REMARK    3  A    between atoms: C_7  and  O_9
REMARK    4  A    between atoms: O_9  and  C_10
REMARK    5  A    between atoms: C_15  and  C_16
REMARK    6  A    between atoms: C_16  and  C_17
REMARK    7  A    between atoms: C_29  and  C_31
REMARK    8  A    between atoms: C_34  and  O_35
REMARK    9  A    between atoms: C_37  and  O_38
REMARK                            x       y       z     vdW  Elec       q    Type
REMARK                         _______ _______ _______ _____ _____    ______ ____
ROOT
ATOM     10  C   UNL     1      -1.699   2.457  24.501  0.00  0.00    +0.173 C 
ATOM     11  C   UNL     1      -2.066   1.717  24.492  0.00  0.00    +0.044 C 
ATOM     12  C   UNL     1      -1.628   1.043  24.307  0.00  0.00    +0.004 C 
ATOM     13  C   UNL     1      -0.826   1.108  24.131  0.00  0.00    +0.003 C 
ATOM     14  C   UNL     1      -1.191   0.369  24.122  0.00  0.00    +0.000 C 
ATOM     15  C   UNL     1      -0.387   0.433  23.946  0.00  0.00    +0.040 C 
ATOM     24  C   UNL     1       0.415   0.498  23.770  0.00  0.00    +0.152 C 
ATOM     25  O   UNL     1       0.854  -0.176  23.585  0.00  0.00    -0.223 OA
ATOM     26  C   UNL     1       0.782   1.238  23.780  0.00  0.00    +0.033 C 
ATOM     27  C   UNL     1       0.344   1.912  23.965  0.00  0.00    +0.003 C 
ATOM     28  C   UNL     1      -0.459   1.848  24.140  0.00  0.00    +0.006 C 
ATOM     29  C   UNL     1      -0.897   2.522  24.325  0.00  0.00    +0.068 C 
ATOM     30  C   UNL     1      -0.238   3.009  24.236  0.00  0.00    +0.006 C 
ENDROOT
BRANCH  29  31
ATOM     31  C   UNL     1      -0.910   3.339  24.431  0.00  0.00    +0.185 C 
ATOM     32  O   UNL     1      -0.276   3.800  24.171  0.00  0.00    -0.220 OA
ENDBRANCH  29  31
BRANCH  10   9
ATOM      9  O   UNL     1      -2.138   3.131  24.686  0.00  0.00    -0.437 OA
BRANCH   9   7
ATOM      6  N   UNL     1      -3.562   3.093  24.576  0.00  0.00    -0.142 NA
ATOM      7  C   UNL     1      -2.880   3.058  25.040  0.00  0.00    +0.425 C 
ATOM      8  O   UNL     1      -2.940   2.951  25.855  0.00  0.00    -0.224 OA
BRANCH   6   5
ATOM      3  C   UNL     1      -5.410   2.207  25.327  0.00  0.00    +0.177 A 
ATOM      4  C   UNL     1      -4.668   2.281  24.974  0.00  0.00    +0.057 A 
ATOM      5  C   UNL     1      -4.304   3.020  24.928  0.00  0.00    +0.083 A 
ATOM     33  C   UNL     1      -4.682   3.685  25.235  0.00  0.00    +0.057 A 
ATOM     34  C   UNL     1      -5.425   3.612  25.588  0.00  0.00    +0.177 A 
ATOM     37  C   UNL     1      -5.789   2.873  25.634  0.00  0.00    +0.206 A 
BRANCH   3   2
ATOM      1  C   UNL     1      -5.472   0.833  24.941  0.00  0.00    +0.253 C 
ATOM      2  O   UNL     1      -5.774   1.469  25.373  0.00  0.00    -0.468 OA
ENDBRANCH   3   2
BRANCH  34  35
ATOM     35  O   UNL     1      -5.803   4.278  25.895  0.00  0.00    -0.468 OA
ATOM     36  C   UNL     1      -5.806   4.984  25.469  0.00  0.00    +0.253 C 
ENDBRANCH  34  35
BRANCH  37  38
ATOM     38  O   UNL     1      -6.531   2.800  25.987  0.00  0.00    -0.465 OA
ATOM     39  C   UNL     1      -6.615   2.371  26.685  0.00  0.00    +0.253 C 
ENDBRANCH  37  38
ENDBRANCH   6   5
ENDBRANCH   9   7
ENDBRANCH  10   9
BRANCH  15  16
ATOM     16  C   UNL     1      -0.753  -0.306  23.936  0.00  0.00    +0.088 C 
BRANCH  16  17
ATOM     17  C   UNL     1      -0.523  -0.888  24.474  0.00  0.00    +0.226 C 
ATOM     18  O   UNL     1       0.124  -0.757  24.971  0.00  0.00    -0.275 OA
ATOM     19  N   UNL     1      -0.937  -1.599  24.515  0.00  0.00    -0.280 N 
ATOM     20  C   UNL     1      -1.590  -1.807  24.057  0.00  0.00    +0.093 C 
ATOM     21  C   UNL     1      -1.829  -2.565  24.280  0.00  0.00    +0.023 C 
ATOM     22  C   UNL     1      -1.322  -2.825  24.878  0.00  0.00    +0.023 C 
ATOM     23  C   UNL     1      -0.771  -2.228  25.023  0.00  0.00    +0.093 C 
ENDBRANCH  16  17
ENDBRANCH  15  16
TORSDOF 9
ENDMDL
