MODEL 1
REMARK VINA RESULT:     -11.4      0.000      0.000
REMARK  Name = 
REMARK  5 active torsions:
REMARK  status: ('A' for Active; 'I' for Inactive)
REMARK    1  A    between atoms: C_3  and  C_4
REMARK    2  A    between atoms: C_4  and  N_5
REMARK    3  A    between atoms: C_6  and  C_8
REMARK    4  A    between atoms: C_15  and  N_16
REMARK    5  A    between atoms: N_16  and  C_17
REMARK                            x       y       z     vdW  Elec       q    Type
REMARK                         _______ _______ _______ _____ _____    ______ ____
ROOT
ATOM      1  O   UNL     1      -4.886   1.370  25.387  0.00  0.00    -0.219 OA
ATOM      2  C   UNL     1      -4.228   1.195  24.922  0.00  0.00    +0.199 C 
ATOM      3  C   UNL     1      -3.607   1.709  24.746  0.00  0.00    +0.169 C 
ATOM     13  O   UNL     1      -3.070   1.306  24.266  0.00  0.00    -0.350 OA
ATOM     14  C   UNL     1      -3.358   0.543  24.145  0.00  0.00    +0.162 C 
ATOM     15  C   UNL     1      -4.074   0.474  24.551  0.00  0.00    +0.135 C 
ENDROOT
BRANCH   3   4
ATOM      4  C   UNL     1      -3.536   2.490  25.005  0.00  0.00    +0.148 C 
BRANCH   4   5
ATOM      5  N   UNL     1      -2.818   2.887  24.926  0.00  0.00    -0.199 NA
ATOM      6  C   UNL     1      -2.720   3.632  25.264  0.00  0.00    +0.271 C 
ATOM      7  O   UNL     1      -3.340   3.982  25.681  0.00  0.00    -0.268 OA
BRANCH   6   8
ATOM      8  C   UNL     1      -2.000   4.030  25.185  0.00  0.00    +0.084 A 
ATOM      9  C   UNL     1      -1.903   4.844  25.090  0.00  0.00    +0.012 A 
ATOM     10  C   UNL     1      -1.095   4.999  25.034  0.00  0.00    +0.008 A 
ATOM     11  C   UNL     1      -0.693   4.282  25.095  0.00  0.00    +0.036 A 
ATOM     12  S   UNL     1      -1.252   3.682  25.189  0.00  0.00    -0.082 S 
ENDBRANCH   6   8
ENDBRANCH   4   5
ENDBRANCH   3   4
BRANCH  15  16
ATOM     16  N   UNL     1      -4.552  -0.198  24.580  0.00  0.00    -0.216 NA
BRANCH  16  17
ATOM     17  C   UNL     1      -4.209  -0.948  24.597  0.00  0.00    +0.073 C 
ATOM     18  C   UNL     1      -3.825  -1.211  25.278  0.00  0.00    +0.023 C 
ATOM     19  C   UNL     1      -3.482  -1.961  25.296  0.00  0.00    +0.068 C 
ATOM     20  C   UNL     1      -3.524  -2.449  24.632  0.00  0.00    +0.264 C 
ATOM     21  F   UNL     1      -3.104  -2.940  25.144  0.00  0.00    -0.204 F 
ATOM     22  F   UNL     1      -3.420  -3.107  24.146  0.00  0.00    -0.204 F 
ATOM     23  C   UNL     1      -3.909  -2.186  23.950  0.00  0.00    +0.068 C 
ATOM     24  C   UNL     1      -4.251  -1.436  23.934  0.00  0.00    +0.023 C 
ENDBRANCH  16  17
ENDBRANCH  15  16
TORSDOF 5
ENDMDL
MODEL 2
REMARK VINA RESULT:     -10.7      3.203      5.798
REMARK  Name = 
REMARK  5 active torsions:
REMARK  status: ('A' for Active; 'I' for Inactive)
REMARK    1  A    between atoms: C_3  and  C_4
REMARK    2  A    between atoms: C_4  and  N_5
REMARK    3  A    between atoms: C_6  and  C_8
REMARK    4  A    between atoms: C_15  and  N_16
REMARK    5  A    between atoms: N_16  and  C_17
REMARK                            x       y       z     vdW  Elec       q    Type
REMARK                         _______ _______ _______ _____ _____    ______ ____
ROOT
ATOM      1  O   UNL     1      -0.648   0.907  25.851  0.00  0.00    -0.219 OA
ATOM      2  C   UNL     1      -1.281   1.219  25.423  0.00  0.00    +0.199 C 
ATOM      3  C   UNL     1      -1.767   0.802  24.903  0.00  0.00    +0.169 C 
ATOM     13  O   UNL     1      -2.325   1.328  24.598  0.00  0.00    -0.350 OA
ATOM     14  C   UNL     1      -2.185   2.070  24.931  0.00  0.00    +0.162 C 
ATOM     15  C   UNL     1      -1.539   2.003  25.441  0.00  0.00    +0.135 C 
ENDROOT
BRANCH   3   4
ATOM      4  C   UNL     1      -1.705  -0.000  24.718  0.00  0.00    +0.148 C 
BRANCH   4   5
ATOM      5  N   UNL     1      -2.386  -0.452  24.607  0.00  0.00    -0.199 NA
ATOM      6  C   UNL     1      -2.325  -1.262  24.470  0.00  0.00    +0.271 C 
ATOM      7  O   UNL     1      -1.583  -1.623  24.445  0.00  0.00    -0.268 OA
BRANCH   6   8
ATOM      8  C   UNL     1      -3.007  -1.715  24.358  0.00  0.00    +0.084 A 
ATOM      9  C   UNL     1      -3.691  -1.473  23.967  0.00  0.00    +0.012 A 
ATOM     10  C   UNL     1      -4.230  -2.097  23.985  0.00  0.00    +0.008 A 
ATOM     11  C   UNL     1      -3.878  -2.725  24.389  0.00  0.00    +0.036 A 
ATOM     12  S   UNL     1      -3.122  -2.489  24.620  0.00  0.00    -0.082 S 
ENDBRANCH   6   8
ENDBRANCH   4   5
ENDBRANCH   3   4
BRANCH  15  16
ATOM     16  N   UNL     1      -1.210   2.611  25.889  0.00  0.00    -0.216 NA
BRANCH  16  17
ATOM     17  C   UNL     1      -1.245   3.390  25.617  0.00  0.00    +0.073 C 
ATOM     18  C   UNL     1      -1.896   3.862  25.800  0.00  0.00    +0.023 C 
ATOM     19  C   UNL     1      -1.931   4.640  25.528  0.00  0.00    +0.068 C 
ATOM     20  C   UNL     1      -1.314   4.946  25.074  0.00  0.00    +0.264 C 
ATOM     21  F   UNL     1      -1.811   5.604  25.102  0.00  0.00    -0.204 F 
ATOM     22  F   UNL     1      -0.870   5.480  24.630  0.00  0.00    -0.204 F 
ATOM     23  C   UNL     1      -0.663   4.474  24.891  0.00  0.00    +0.068 C 
ATOM     24  C   UNL     1      -0.629   3.696  25.163  0.00  0.00    +0.023 C 
ENDBRANCH  16  17
ENDBRANCH  15  16
TORSDOF 5
ENDMDL
MODEL 3
REMARK VINA RESULT:     -10.5      1.782      2.106
REMARK  Name = 
REMARK  5 active torsions:
REMARK  status: ('A' for Active; 'I' for Inactive)
REMARK    1  A    between atoms: C_3  and  C_4
REMARK    2  A    between atoms: C_4  and  N_5
REMARK    3  A    between atoms: C_6  and  C_8
REMARK    4  A    between atoms: C_15  and  N_16
REMARK    5  A    between atoms: N_16  and  C_17
REMARK                            x       y       z     vdW  Elec       q    Type
REMARK                         _______ _______ _______ _____ _____    ______ ____
ROOT
ATOM      1  O   UNL     1      -1.233  -0.190  26.366  0.00  0.00    -0.219 OA
ATOM      2  C   UNL     1      -1.421  -0.035  25.578  0.00  0.00    +0.199 C 
ATOM      3  C   UNL     1      -1.246   0.657  25.165  0.00  0.00    +0.169 C 
ATOM     13  O   UNL     1      -1.534   0.575  24.396  0.00  0.00    -0.350 OA
ATOM     14  C   UNL     1      -1.888  -0.168  24.334  0.00  0.00    +0.162 C 
ATOM     15  C   UNL     1      -1.819  -0.545  25.065  0.00  0.00    +0.135 C 
ENDROOT
BRANCH   3   4
ATOM      4  C   UNL     1      -0.850   1.316  25.467  0.00  0.00    +0.148 C 
BRANCH   4   5
ATOM      5  N   UNL     1      -1.122   2.075  25.293  0.00  0.00    -0.199 NA
ATOM      6  C   UNL     1      -0.733   2.732  25.603  0.00  0.00    +0.271 C 
ATOM      7  O   UNL     1      -0.072   2.631  26.087  0.00  0.00    -0.268 OA
BRANCH   6   8
ATOM      8  C   UNL     1      -1.004   3.493  25.430  0.00  0.00    +0.084 A 
ATOM      9  C   UNL     1      -0.600   4.064  24.993  0.00  0.00    +0.012 A 
ATOM     10  C   UNL     1      -1.073   4.738  24.956  0.00  0.00    +0.008 A 
ATOM     11  C   UNL     1      -1.770   4.584  25.371  0.00  0.00    +0.036 A 
ATOM     12  S   UNL     1      -1.728   3.814  25.664  0.00  0.00    -0.082 S 
ENDBRANCH   6   8
ENDBRANCH   4   5
ENDBRANCH   3   4
BRANCH  15  16
ATOM     16  N   UNL     1      -2.097  -1.298  25.250  0.00  0.00    -0.216 NA
BRANCH  16  17
ATOM     17  C   UNL     1      -2.755  -1.604  24.857  0.00  0.00    +0.073 C 
ATOM     18  C   UNL     1      -2.699  -2.318  24.450  0.00  0.00    +0.023 C 
ATOM     19  C   UNL     1      -3.357  -2.623  24.057  0.00  0.00    +0.068 C 
ATOM     20  C   UNL     1      -4.073  -2.213  24.072  0.00  0.00    +0.264 C 
ATOM     21  F   UNL     1      -4.290  -2.864  23.614  0.00  0.00    -0.204 F 
ATOM     22  F   UNL     1      -4.863  -2.029  23.928  0.00  0.00    -0.204 F 
ATOM     23  C   UNL     1      -4.130  -1.498  24.480  0.00  0.00    +0.068 C 
ATOM     24  C   UNL     1      -3.471  -1.193  24.872  0.00  0.00    +0.023 C 
ENDBRANCH  16  17
ENDBRANCH  15  16
TORSDOF 5
ENDMDL
MODEL 4
REMARK VINA RESULT:      -8.1     16.805     19.104
REMARK  Name = 
REMARK  5 active torsions:
REMARK  status: ('A' for Active; 'I' for Inactive)
REMARK    1  A    between atoms: C_3  and  C_4
REMARK    2  A    between atoms: C_4  and  N_5
REMARK    3  A    between atoms: C_6  and  C_8
REMARK    4  A    between atoms: C_15  and  N_16
REMARK    5  A    between atoms: N_16  and  C_17
REMARK                            x       y       z     vdW  Elec       q    Type
REMARK                         _______ _______ _______ _____ _____    ______ ____
ROOT
ATOM      1  O   UNL     1      13.713   8.876  18.950  0.00  0.00    -0.219 OA
ATOM      2  C   UNL     1      13.646   8.074  19.134  0.00  0.00    +0.199 C 
ATOM      3  C   UNL     1      12.971   7.697  19.421  0.00  0.00    +0.169 C 
ATOM     13  O   UNL     1      13.151   6.899  19.528  0.00  0.00    -0.350 OA
ATOM     14  C   UNL     1      13.937   6.783  19.307  0.00  0.00    +0.162 C 
ATOM     15  C   UNL     1      14.244   7.509  19.064  0.00  0.00    +0.135 C 
ENDROOT
BRANCH   3   4
ATOM      4  C   UNL     1      12.244   8.056  19.574  0.00  0.00    +0.148 C 
BRANCH   4   5
ATOM      5  N   UNL     1      11.939   8.059  20.341  0.00  0.00    -0.199 NA
ATOM      6  C   UNL     1      11.159   8.291  20.473  0.00  0.00    +0.271 C 
ATOM      7  O   UNL     1      10.683   8.521  19.839  0.00  0.00    -0.268 OA
BRANCH   6   8
ATOM      8  C   UNL     1      10.853   8.295  21.240  0.00  0.00    +0.084 A 
ATOM      9  C   UNL     1      10.525   7.649  21.635  0.00  0.00    +0.012 A 
ATOM     10  C   UNL     1      10.292   7.900  22.385  0.00  0.00    +0.008 A 
ATOM     11  C   UNL     1      10.475   8.702  22.454  0.00  0.00    +0.036 A 
ATOM     12  S   UNL     1      10.823   8.946  21.746  0.00  0.00    -0.082 S 
ENDBRANCH   6   8
ENDBRANCH   4   5
ENDBRANCH   3   4
BRANCH  15  16
ATOM     16  N   UNL     1      15.012   7.646  18.797  0.00  0.00    -0.216 NA
BRANCH  16  17
ATOM     17  C   UNL     1      15.640   7.210  19.105  0.00  0.00    +0.073 C 
ATOM     18  C   UNL     1      15.990   7.435  19.816  0.00  0.00    +0.023 C 
ATOM     19  C   UNL     1      16.619   6.998  20.124  0.00  0.00    +0.068 C 
ATOM     20  C   UNL     1      16.897   6.335  19.720  0.00  0.00    +0.264 C 
ATOM     21  F   UNL     1      17.405   6.330  20.370  0.00  0.00    -0.204 F 
ATOM     22  F   UNL     1      17.352   5.672  19.541  0.00  0.00    -0.204 F 
ATOM     23  C   UNL     1      16.548   6.110  19.007  0.00  0.00    +0.068 C 
ATOM     24  C   UNL     1      15.919   6.547  18.700  0.00  0.00    +0.023 C 
ENDBRANCH  16  17
ENDBRANCH  15  16
TORSDOF 5
ENDMDL
MODEL 5
REMARK VINA RESULT:      -7.7     17.940     19.210
REMARK  Name = 
REMARK  5 active torsions:
REMARK  status: ('A' for Active; 'I' for Inactive)
REMARK    1  A    between atoms: C_3  and  C_4
REMARK    2  A    between atoms: C_4  and  N_5
REMARK    3  A    between atoms: C_6  and  C_8
REMARK    4  A    between atoms: C_15  and  N_16
REMARK    5  A    between atoms: N_16  and  C_17
REMARK                            x       y       z     vdW  Elec       q    Type
REMARK                         _______ _______ _______ _____ _____    ______ ____
ROOT
ATOM      1  O   UNL     1      12.438   8.475  19.976  0.00  0.00    -0.219 OA
ATOM      2  C   UNL     1      12.623   8.028  19.308  0.00  0.00    +0.199 C 
ATOM      3  C   UNL     1      13.194   7.435  19.263  0.00  0.00    +0.169 C 
ATOM     13  O   UNL     1      13.192   7.137  18.493  0.00  0.00    -0.350 OA
ATOM     14  C   UNL     1      12.620   7.546  18.062  0.00  0.00    +0.162 C 
ATOM     15  C   UNL     1      12.267   8.097  18.566  0.00  0.00    +0.135 C 
ENDROOT
BRANCH   3   4
ATOM      4  C   UNL     1      13.682   7.184  19.879  0.00  0.00    +0.148 C 
BRANCH   4   5
ATOM      5  N   UNL     1      14.468   6.986  19.728  0.00  0.00    -0.199 NA
ATOM      6  C   UNL     1      14.953   6.727  20.343  0.00  0.00    +0.271 C 
ATOM      7  O   UNL     1      14.652   6.665  21.108  0.00  0.00    -0.268 OA
BRANCH   6   8
ATOM      8  C   UNL     1      15.740   6.529  20.192  0.00  0.00    +0.084 A 
ATOM      9  C   UNL     1      16.067   6.364  19.453  0.00  0.00    +0.012 A 
ATOM     10  C   UNL     1      16.867   6.194  19.560  0.00  0.00    +0.008 A 
ATOM     11  C   UNL     1      17.035   6.253  20.365  0.00  0.00    +0.036 A 
ATOM     12  S   UNL     1      16.339   6.460  20.757  0.00  0.00    -0.082 S 
ENDBRANCH   6   8
ENDBRANCH   4   5
ENDBRANCH   3   4
BRANCH  15  16
ATOM     16  N   UNL     1      11.666   8.624  18.363  0.00  0.00    -0.216 NA
BRANCH  16  17
ATOM     17  C   UNL     1      11.422   8.689  17.578  0.00  0.00    +0.073 C 
ATOM     18  C   UNL     1      11.925   9.021  17.015  0.00  0.00    +0.023 C 
ATOM     19  C   UNL     1      11.680   9.087  16.230  0.00  0.00    +0.068 C 
ATOM     20  C   UNL     1      10.932   8.821  16.007  0.00  0.00    +0.264 C 
ATOM     21  F   UNL     1      11.209   9.093  15.280  0.00  0.00    -0.204 F 
ATOM     22  F   UNL     1      10.281   8.649  15.532  0.00  0.00    -0.204 F 
ATOM     23  C   UNL     1      10.428   8.488  16.570  0.00  0.00    +0.068 C 
ATOM     24  C   UNL     1      10.673   8.423  17.355  0.00  0.00    +0.023 C 
ENDBRANCH  16  17
ENDBRANCH  15  16
TORSDOF 5
ENDMDL
MODEL 6
REMARK VINA RESULT:      -7.6     18.096     19.326
REMARK  Name = 
REMARK  5 active torsions:
REMARK  status: ('A' for Active; 'I' for Inactive)
REMARK    1  A    between atoms: C_3  and  C_4
REMARK    2  A    between atoms: C_4  and  N_5
REMARK    3  A    between atoms: C_6  and  C_8
REMARK    4  A    between atoms: C_15  and  N_16
REMARK    5  A    between atoms: N_16  and  C_17
REMARK                            x       y       z     vdW  Elec       q    Type
REMARK                         _______ _______ _______ _____ _____    ______ ____
ROOT
ATOM      1  O   UNL     1      12.770   8.113  20.709  0.00  0.00    -0.219 OA
ATOM      2  C   UNL     1      13.085   7.656  20.098  0.00  0.00    +0.199 C 
ATOM      3  C   UNL     1      12.748   7.544  19.353  0.00  0.00    +0.169 C 
ATOM     13  O   UNL     1      13.247   7.050  18.920  0.00  0.00    -0.350 OA
ATOM     14  C   UNL     1      13.892   6.857  19.396  0.00  0.00    +0.162 C 
ATOM     15  C   UNL     1      13.792   7.232  20.125  0.00  0.00    +0.135 C 
ENDROOT
BRANCH   3   4
ATOM      4  C   UNL     1      12.037   7.868  19.089  0.00  0.00    +0.148 C 
BRANCH   4   5
ATOM      5  N   UNL     1      11.946   8.069  18.294  0.00  0.00    -0.199 NA
ATOM      6  C   UNL     1      11.230   8.379  18.027  0.00  0.00    +0.271 C 
ATOM      7  O   UNL     1      10.605   8.489  18.554  0.00  0.00    -0.268 OA
BRANCH   6   8
ATOM      8  C   UNL     1      11.138   8.580  17.231  0.00  0.00    +0.084 A 
ATOM      9  C   UNL     1      10.483   8.409  16.760  0.00  0.00    +0.012 A 
ATOM     10  C   UNL     1      10.626   8.711  16.006  0.00  0.00    +0.008 A 
ATOM     11  C   UNL     1      11.369   9.068  16.011  0.00  0.00    +0.036 A 
ATOM     12  S   UNL     1      11.687   8.987  16.768  0.00  0.00    -0.082 S 
ENDBRANCH   6   8
ENDBRANCH   4   5
ENDBRANCH   3   4
BRANCH  15  16
ATOM     16  N   UNL     1      14.308   7.190  20.766  0.00  0.00    -0.216 NA
BRANCH  16  17
ATOM     17  C   UNL     1      15.123   7.154  20.640  0.00  0.00    +0.073 C 
ATOM     18  C   UNL     1      15.552   7.847  20.517  0.00  0.00    +0.023 C 
ATOM     19  C   UNL     1      16.367   7.811  20.391  0.00  0.00    +0.068 C 
ATOM     20  C   UNL     1      16.752   7.082  20.387  0.00  0.00    +0.264 C 
ATOM     21  F   UNL     1      17.392   7.582  20.246  0.00  0.00    -0.204 F 
ATOM     22  F   UNL     1      17.359   6.526  20.335  0.00  0.00    -0.204 F 
ATOM     23  C   UNL     1      16.322   6.388  20.510  0.00  0.00    +0.068 C 
ATOM     24  C   UNL     1      15.508   6.424  20.637  0.00  0.00    +0.023 C 
ENDBRANCH  16  17
ENDBRANCH  15  16
TORSDOF 5
ENDMDL
