MODEL 1
REMARK VINA RESULT:     -11.1      0.000      0.000
REMARK  Name = 
REMARK  6 active torsions:
REMARK  status: ('A' for Active; 'I' for Inactive)
REMARK    1  A    between atoms: C_2  and  C_4
REMARK    2  A    between atoms: C_4  and  C_5
REMARK    3  A    between atoms: C_5  and  N_6
REMARK    4  A    between atoms: C_7  and  C_9
REMARK    5  A    between atoms: C_11  and  N_12
REMARK    6  A    between atoms: N_15  and  C_16
REMARK                            x       y       z     vdW  Elec       q    Type
REMARK                         _______ _______ _______ _____ _____    ______ ____
ROOT
ATOM      9  C   UNL     1      -4.306   3.010  24.963  0.00  0.00    +0.033 C 
ATOM     10  C   UNL     1      -4.398   2.241  24.678  0.00  0.00    -0.002 C 
ATOM     11  C   UNL     1      -5.013   1.768  24.959  0.00  0.00    +0.152 C 
ATOM     22  C   UNL     1      -5.535   2.064  25.523  0.00  0.00    +0.206 C 
ATOM     23  O   UNL     1      -6.150   1.591  25.804  0.00  0.00    -0.218 OA
ATOM     24  C   UNL     1      -5.443   2.832  25.809  0.00  0.00    +0.189 C 
ATOM     25  O   UNL     1      -5.966   3.128  26.374  0.00  0.00    -0.220 OA
ATOM     26  C   UNL     1      -4.828   3.306  25.528  0.00  0.00    +0.066 C 
ENDROOT
BRANCH  11  12
ATOM     12  N   UNL     1      -5.105   0.999  24.673  0.00  0.00    -0.182 NA
ATOM     13  C   UNL     1      -4.518   0.436  24.813  0.00  0.00    +0.340 C 
ATOM     14  O   UNL     1      -3.842   0.640  25.236  0.00  0.00    -0.249 OA
ATOM     15  N   UNL     1      -4.611  -0.333  24.527  0.00  0.00    -0.189 NA
BRANCH  15  16
ATOM     16  C   UNL     1      -4.024  -0.897  24.666  0.00  0.00    +0.097 C 
ATOM     17  C   UNL     1      -3.569  -1.183  24.039  0.00  0.00    +0.022 C 
ATOM     18  C   UNL     1      -2.984  -1.746  24.179  0.00  0.00    +0.002 C 
ATOM     19  C   UNL     1      -2.852  -2.025  24.943  0.00  0.00    +0.000 C 
ATOM     20  C   UNL     1      -3.306  -1.740  25.570  0.00  0.00    +0.002 C 
ATOM     21  C   UNL     1      -3.893  -1.175  25.431  0.00  0.00    +0.022 C 
ENDBRANCH  15  16
ENDBRANCH  11  12
BRANCH   9   7
ATOM      6  N   UNL     1      -3.051   3.661  25.172  0.00  0.00    -0.201 NA
ATOM      7  C   UNL     1      -3.691   3.483  24.682  0.00  0.00    +0.261 C 
ATOM      8  O   UNL     1      -3.715   3.777  23.911  0.00  0.00    -0.269 OA
BRANCH   6   5
ATOM      5  C   UNL     1      -2.436   4.134  24.891  0.00  0.00    +0.125 C 
BRANCH   5   4
ATOM      4  C   UNL     1      -1.799   4.316  25.384  0.00  0.00    +0.112 C 
BRANCH   4   2
ATOM      1  N   UNL     1      -0.484   4.375  24.826  0.00  0.00    -0.088 NA
ATOM      2  C   UNL     1      -1.166   4.758  25.091  0.00  0.00    +0.263 C 
ATOM      3  O   UNL     1      -1.215   5.581  25.064  0.00  0.00    -0.272 OA
ENDBRANCH   4   2
ENDBRANCH   5   4
ENDBRANCH   6   5
ENDBRANCH   9   7
TORSDOF 6
ENDMDL
MODEL 2
REMARK VINA RESULT:     -10.9      1.223      4.804
REMARK  Name = 
REMARK  6 active torsions:
REMARK  status: ('A' for Active; 'I' for Inactive)
REMARK    1  A    between atoms: C_2  and  C_4
REMARK    2  A    between atoms: C_4  and  C_5
REMARK    3  A    between atoms: C_5  and  N_6
REMARK    4  A    between atoms: C_7  and  C_9
REMARK    5  A    between atoms: C_11  and  N_12
REMARK    6  A    between atoms: N_15  and  C_16
REMARK                            x       y       z     vdW  Elec       q    Type
REMARK                         _______ _______ _______ _____ _____    ______ ____
ROOT
ATOM      9  C   UNL     1      -4.374   1.164  24.688  0.00  0.00    +0.033 C 
ATOM     10  C   UNL     1      -3.912   1.703  25.110  0.00  0.00    -0.002 C 
ATOM     11  C   UNL     1      -4.256   2.385  25.420  0.00  0.00    +0.152 C 
ATOM     22  C   UNL     1      -5.059   2.530  25.309  0.00  0.00    +0.206 C 
ATOM     23  O   UNL     1      -5.403   3.213  25.620  0.00  0.00    -0.218 OA
ATOM     24  C   UNL     1      -5.521   1.992  24.888  0.00  0.00    +0.189 C 
ATOM     25  O   UNL     1      -6.326   2.136  24.776  0.00  0.00    -0.220 OA
ATOM     26  C   UNL     1      -5.177   1.309  24.577  0.00  0.00    +0.066 C 
ENDROOT
BRANCH  11  12
ATOM     12  N   UNL     1      -3.794   2.924  25.843  0.00  0.00    -0.182 NA
ATOM     13  C   UNL     1      -3.140   3.276  25.484  0.00  0.00    +0.340 C 
ATOM     14  O   UNL     1      -2.947   3.089  24.705  0.00  0.00    -0.249 OA
ATOM     15  N   UNL     1      -2.678   3.814  25.906  0.00  0.00    -0.189 NA
BRANCH  15  16
ATOM     16  C   UNL     1      -2.023   4.166  25.547  0.00  0.00    +0.097 C 
ATOM     17  C   UNL     1      -2.067   4.947  25.284  0.00  0.00    +0.022 C 
ATOM     18  C   UNL     1      -1.413   5.298  24.926  0.00  0.00    +0.002 C 
ATOM     19  C   UNL     1      -0.715   4.870  24.830  0.00  0.00    +0.000 C 
ATOM     20  C   UNL     1      -0.671   4.089  25.092  0.00  0.00    +0.002 C 
ATOM     21  C   UNL     1      -1.326   3.737  25.451  0.00  0.00    +0.022 C 
ENDBRANCH  15  16
ENDBRANCH  11  12
BRANCH   9   7
ATOM      6  N   UNL     1      -4.020  -0.214  24.823  0.00  0.00    -0.201 NA
ATOM      7  C   UNL     1      -4.030   0.482  24.377  0.00  0.00    +0.261 C 
ATOM      8  O   UNL     1      -3.697   0.494  23.623  0.00  0.00    -0.269 OA
BRANCH   6   5
ATOM      5  C   UNL     1      -3.676  -0.896  24.512  0.00  0.00    +0.125 C 
BRANCH   5   4
ATOM      4  C   UNL     1      -3.630  -1.580  24.972  0.00  0.00    +0.112 C 
BRANCH   4   2
ATOM      1  N   UNL     1      -2.557  -2.480  24.689  0.00  0.00    -0.088 NA
ATOM      2  C   UNL     1      -3.357  -2.283  24.638  0.00  0.00    +0.263 C 
ATOM      3  O   UNL     1      -3.883  -2.789  24.254  0.00  0.00    -0.272 OA
ENDBRANCH   4   2
ENDBRANCH   5   4
ENDBRANCH   6   5
ENDBRANCH   9   7
TORSDOF 6
ENDMDL
MODEL 3
REMARK VINA RESULT:      -9.9      2.661      6.024
REMARK  Name = 
REMARK  6 active torsions:
REMARK  status: ('A' for Active; 'I' for Inactive)
REMARK    1  A    between atoms: C_2  and  C_4
REMARK    2  A    between atoms: C_4  and  C_5
REMARK    3  A    between atoms: C_5  and  N_6
REMARK    4  A    between atoms: C_7  and  C_9
REMARK    5  A    between atoms: C_11  and  N_12
REMARK    6  A    between atoms: N_15  and  C_16
REMARK                            x       y       z     vdW  Elec       q    Type
REMARK                         _______ _______ _______ _____ _____    ______ ____
ROOT
ATOM      9  C   UNL     1      -0.813  -0.162  24.685  0.00  0.00    +0.033 C 
ATOM     10  C   UNL     1      -0.701   0.556  25.077  0.00  0.00    -0.002 C 
ATOM     11  C   UNL     1      -0.151   1.100  24.791  0.00  0.00    +0.152 C 
ATOM     22  C   UNL     1       0.288   0.927  24.116  0.00  0.00    +0.206 C 
ATOM     23  O   UNL     1       0.839   1.471  23.831  0.00  0.00    -0.218 OA
ATOM     24  C   UNL     1       0.177   0.209  23.724  0.00  0.00    +0.189 C 
ATOM     25  O   UNL     1       0.617   0.036  23.047  0.00  0.00    -0.220 OA
ATOM     26  C   UNL     1      -0.374  -0.335  24.009  0.00  0.00    +0.066 C 
ENDROOT
BRANCH  11  12
ATOM     12  N   UNL     1      -0.039   1.818  25.184  0.00  0.00    -0.182 NA
ATOM     13  C   UNL     1      -0.616   2.405  25.138  0.00  0.00    +0.340 C 
ATOM     14  O   UNL     1      -1.303   2.276  24.702  0.00  0.00    -0.249 OA
ATOM     15  N   UNL     1      -0.505   3.123  25.530  0.00  0.00    -0.189 NA
BRANCH  15  16
ATOM     16  C   UNL     1      -1.082   3.711  25.485  0.00  0.00    +0.097 C 
ATOM     17  C   UNL     1      -0.950   4.385  25.026  0.00  0.00    +0.022 C 
ATOM     18  C   UNL     1      -1.527   4.972  24.981  0.00  0.00    +0.002 C 
ATOM     19  C   UNL     1      -2.235   4.888  25.394  0.00  0.00    +0.000 C 
ATOM     20  C   UNL     1      -2.367   4.215  25.853  0.00  0.00    +0.002 C 
ATOM     21  C   UNL     1      -1.790   3.626  25.898  0.00  0.00    +0.022 C 
ENDBRANCH  15  16
ENDBRANCH  11  12
BRANCH   9   7
ATOM      6  N   UNL     1      -2.050  -0.862  24.539  0.00  0.00    -0.201 NA
ATOM      7  C   UNL     1      -1.364  -0.706  24.970  0.00  0.00    +0.261 C 
ATOM      8  O   UNL     1      -1.229  -1.094  25.686  0.00  0.00    -0.269 OA
BRANCH   6   5
ATOM      5  C   UNL     1      -2.601  -1.406  24.824  0.00  0.00    +0.125 C 
BRANCH   5   4
ATOM      4  C   UNL     1      -3.371  -1.408  24.525  0.00  0.00    +0.112 C 
BRANCH   4   2
ATOM      1  N   UNL     1      -4.275  -2.230  23.785  0.00  0.00    -0.088 NA
ATOM      2  C   UNL     1      -3.774  -2.121  24.432  0.00  0.00    +0.263 C 
ATOM      3  O   UNL     1      -3.677  -2.726  24.984  0.00  0.00    -0.272 OA
ENDBRANCH   4   2
ENDBRANCH   5   4
ENDBRANCH   6   5
ENDBRANCH   9   7
TORSDOF 6
ENDMDL
MODEL 4
REMARK VINA RESULT:      -9.8      2.025      3.389
REMARK  Name = 
REMARK  6 active torsions:
REMARK  status: ('A' for Active; 'I' for Inactive)
REMARK    1  A    between atoms: C_2  and  C_4
REMARK    2  A    between atoms: C_4  and  C_5
REMARK    3  A    between atoms: C_5  and  N_6
REMARK    4  A    between atoms: C_7  and  C_9
REMARK    5  A    between atoms: C_11  and  N_12
REMARK    6  A    between atoms: N_15  and  C_16
REMARK                            x       y       z     vdW  Elec       q    Type
REMARK                         _______ _______ _______ _____ _____    ______ ____
ROOT
ATOM      9  C   UNL     1      -2.230   2.305  24.555  0.00  0.00    +0.033 C 
ATOM     10  C   UNL     1      -2.199   1.565  24.920  0.00  0.00    -0.002 C 
ATOM     11  C   UNL     1      -1.475   1.179  25.009  0.00  0.00    +0.152 C 
ATOM     22  C   UNL     1      -0.783   1.532  24.733  0.00  0.00    +0.206 C 
ATOM     23  O   UNL     1      -0.059   1.146  24.823  0.00  0.00    -0.218 OA
ATOM     24  C   UNL     1      -0.814   2.272  24.369  0.00  0.00    +0.189 C 
ATOM     25  O   UNL     1      -0.121   2.625  24.093  0.00  0.00    -0.220 OA
ATOM     26  C   UNL     1      -1.538   2.658  24.279  0.00  0.00    +0.066 C 
ENDROOT
BRANCH  11  12
ATOM     12  N   UNL     1      -1.444   0.440  25.374  0.00  0.00    -0.182 NA
ATOM     13  C   UNL     1      -1.893  -0.185  25.077  0.00  0.00    +0.340 C 
ATOM     14  O   UNL     1      -2.373  -0.071  24.417  0.00  0.00    -0.249 OA
ATOM     15  N   UNL     1      -1.862  -0.924  25.442  0.00  0.00    -0.189 NA
BRANCH  15  16
ATOM     16  C   UNL     1      -2.312  -1.550  25.146  0.00  0.00    +0.097 C 
ATOM     17  C   UNL     1      -3.096  -1.645  25.387  0.00  0.00    +0.022 C 
ATOM     18  C   UNL     1      -3.544  -2.270  25.090  0.00  0.00    +0.002 C 
ATOM     19  C   UNL     1      -3.211  -2.800  24.554  0.00  0.00    +0.000 C 
ATOM     20  C   UNL     1      -2.428  -2.705  24.312  0.00  0.00    +0.002 C 
ATOM     21  C   UNL     1      -1.978  -2.079  24.609  0.00  0.00    +0.022 C 
ENDBRANCH  15  16
ENDBRANCH  11  12
BRANCH   9   7
ATOM      6  N   UNL     1      -3.385   2.915  25.133  0.00  0.00    -0.201 NA
ATOM      7  C   UNL     1      -2.954   2.690  24.466  0.00  0.00    +0.261 C 
ATOM      8  O   UNL     1      -3.246   2.850  23.711  0.00  0.00    -0.269 OA
BRANCH   6   5
ATOM      5  C   UNL     1      -4.109   3.300  25.044  0.00  0.00    +0.125 C 
BRANCH   5   4
ATOM      4  C   UNL     1      -4.511   3.581  25.709  0.00  0.00    +0.112 C 
BRANCH   4   2
ATOM      1  N   UNL     1      -5.755   2.956  26.029  0.00  0.00    -0.088 NA
ATOM      2  C   UNL     1      -5.336   3.595  25.716  0.00  0.00    +0.263 C 
ATOM      3  O   UNL     1      -5.741   4.245  25.412  0.00  0.00    -0.272 OA
ENDBRANCH   4   2
ENDBRANCH   5   4
ENDBRANCH   6   5
ENDBRANCH   9   7
TORSDOF 6
ENDMDL
MODEL 5
REMARK VINA RESULT:      -9.8      2.631      3.811
REMARK  Name = 
REMARK  6 active torsions:
REMARK  status: ('A' for Active; 'I' for Inactive)
REMARK    1  A    between atoms: C_2  and  C_4
REMARK    2  A    between atoms: C_4  and  C_5
REMARK    3  A    between atoms: C_5  and  N_6
REMARK    4  A    between atoms: C_7  and  C_9
REMARK    5  A    between atoms: C_11  and  N_12
REMARK    6  A    between atoms: N_15  and  C_16
REMARK                            x       y       z     vdW  Elec       q    Type
REMARK                         _______ _______ _______ _____ _____    ______ ____
ROOT
ATOM      9  C   UNL     1      -0.299   1.424  24.871  0.00  0.00    +0.033 C 
ATOM     10  C   UNL     1      -0.716   0.753  25.109  0.00  0.00    -0.002 C 
ATOM     11  C   UNL     1      -0.576   0.029  24.740  0.00  0.00    +0.152 C 
ATOM     22  C   UNL     1      -0.020  -0.025  24.133  0.00  0.00    +0.206 C 
ATOM     23  O   UNL     1       0.119  -0.750  23.764  0.00  0.00    -0.218 OA
ATOM     24  C   UNL     1       0.396   0.646  23.895  0.00  0.00    +0.189 C 
ATOM     25  O   UNL     1       0.952   0.593  23.287  0.00  0.00    -0.220 OA
ATOM     26  C   UNL     1       0.256   1.371  24.264  0.00  0.00    +0.066 C 
ENDROOT
BRANCH  11  12
ATOM     12  N   UNL     1      -0.992  -0.643  24.978  0.00  0.00    -0.182 NA
ATOM     13  C   UNL     1      -1.761  -0.769  24.706  0.00  0.00    +0.340 C 
ATOM     14  O   UNL     1      -2.112  -0.226  24.196  0.00  0.00    -0.249 OA
ATOM     15  N   UNL     1      -2.176  -1.441  24.944  0.00  0.00    -0.189 NA
BRANCH  15  16
ATOM     16  C   UNL     1      -2.946  -1.567  24.672  0.00  0.00    +0.097 C 
ATOM     17  C   UNL     1      -3.120  -2.241  24.227  0.00  0.00    +0.022 C 
ATOM     18  C   UNL     1      -3.888  -2.367  23.955  0.00  0.00    +0.002 C 
ATOM     19  C   UNL     1      -4.482  -1.822  24.127  0.00  0.00    +0.000 C 
ATOM     20  C   UNL     1      -4.308  -1.149  24.571  0.00  0.00    +0.002 C 
ATOM     21  C   UNL     1      -3.539  -1.022  24.843  0.00  0.00    +0.022 C 
ENDBRANCH  15  16
ENDBRANCH  11  12
BRANCH   9   7
ATOM      6  N   UNL     1      -0.944   2.699  24.889  0.00  0.00    -0.201 NA
ATOM      7  C   UNL     1      -0.439   2.148  25.240  0.00  0.00    +0.261 C 
ATOM      8  O   UNL     1      -0.075   2.322  25.960  0.00  0.00    -0.269 OA
BRANCH   6   5
ATOM      5  C   UNL     1      -1.084   3.423  25.259  0.00  0.00    +0.125 C 
BRANCH   5   4
ATOM      4  C   UNL     1      -1.557   3.990  24.889  0.00  0.00    +0.112 C 
BRANCH   4   2
ATOM      1  N   UNL     1      -2.418   4.685  25.794  0.00  0.00    -0.088 NA
ATOM      2  C   UNL     1      -1.763   4.680  25.290  0.00  0.00    +0.263 C 
ATOM      3  O   UNL     1      -1.316   5.366  25.190  0.00  0.00    -0.272 OA
ENDBRANCH   4   2
ENDBRANCH   5   4
ENDBRANCH   6   5
ENDBRANCH   9   7
TORSDOF 6
ENDMDL
MODEL 6
REMARK VINA RESULT:      -9.7      2.323      4.977
REMARK  Name = 
REMARK  6 active torsions:
REMARK  status: ('A' for Active; 'I' for Inactive)
REMARK    1  A    between atoms: C_2  and  C_4
REMARK    2  A    between atoms: C_4  and  C_5
REMARK    3  A    between atoms: C_5  and  N_6
REMARK    4  A    between atoms: C_7  and  C_9
REMARK    5  A    between atoms: C_11  and  N_12
REMARK    6  A    between atoms: N_15  and  C_16
REMARK                            x       y       z     vdW  Elec       q    Type
REMARK                         _______ _______ _______ _____ _____    ______ ____
ROOT
ATOM      9  C   UNL     1      -0.727   1.243  24.777  0.00  0.00    +0.033 C 
ATOM     10  C   UNL     1      -1.369   1.721  24.576  0.00  0.00    -0.002 C 
ATOM     11  C   UNL     1      -1.419   2.489  24.871  0.00  0.00    +0.152 C 
ATOM     22  C   UNL     1      -0.828   2.780  25.367  0.00  0.00    +0.206 C 
ATOM     23  O   UNL     1      -0.879   3.549  25.663  0.00  0.00    -0.218 OA
ATOM     24  C   UNL     1      -0.187   2.302  25.569  0.00  0.00    +0.189 C 
ATOM     25  O   UNL     1       0.404   2.593  26.066  0.00  0.00    -0.220 OA
ATOM     26  C   UNL     1      -0.136   1.533  25.273  0.00  0.00    +0.066 C 
ENDROOT
BRANCH  11  12
ATOM     12  N   UNL     1      -2.061   2.967  24.669  0.00  0.00    -0.182 NA
ATOM     13  C   UNL     1      -2.824   2.749  24.895  0.00  0.00    +0.340 C 
ATOM     14  O   UNL     1      -2.945   2.055  25.321  0.00  0.00    -0.249 OA
ATOM     15  N   UNL     1      -3.465   3.227  24.693  0.00  0.00    -0.189 NA
BRANCH  15  16
ATOM     16  C   UNL     1      -4.229   3.009  24.919  0.00  0.00    +0.097 C 
ATOM     17  C   UNL     1      -4.651   2.460  24.469  0.00  0.00    +0.022 C 
ATOM     18  C   UNL     1      -5.414   2.243  24.695  0.00  0.00    +0.002 C 
ATOM     19  C   UNL     1      -5.755   2.573  25.369  0.00  0.00    +0.000 C 
ATOM     20  C   UNL     1      -5.333   3.121  25.818  0.00  0.00    +0.002 C 
ATOM     21  C   UNL     1      -4.569   3.339  25.593  0.00  0.00    +0.022 C 
ENDBRANCH  15  16
ENDBRANCH  11  12
BRANCH   9   7
ATOM      6  N   UNL     1      -1.064  -0.143  24.871  0.00  0.00    -0.201 NA
ATOM      7  C   UNL     1      -0.677   0.474  24.482  0.00  0.00    +0.261 C 
ATOM      8  O   UNL     1      -0.240   0.322  23.798  0.00  0.00    -0.269 OA
BRANCH   6   5
ATOM      5  C   UNL     1      -1.014  -0.911  24.575  0.00  0.00    +0.125 C 
BRANCH   5   4
ATOM      4  C   UNL     1      -1.326  -1.541  25.009  0.00  0.00    +0.112 C 
BRANCH   4   2
ATOM      1  N   UNL     1      -2.544  -2.236  24.732  0.00  0.00    -0.088 NA
ATOM      2  C   UNL     1      -1.730  -2.147  24.622  0.00  0.00    +0.263 C 
ATOM      3  O   UNL     1      -1.321  -2.664  24.126  0.00  0.00    -0.272 OA
ENDBRANCH   4   2
ENDBRANCH   5   4
ENDBRANCH   6   5
ENDBRANCH   9   7
TORSDOF 6
ENDMDL
MODEL 7
REMARK VINA RESULT:      -8.3     16.078     19.433
REMARK  Name = 
REMARK  6 active torsions:
REMARK  status: ('A' for Active; 'I' for Inactive)
REMARK    1  A    between atoms: C_2  and  C_4
REMARK    2  A    between atoms: C_4  and  C_5
REMARK    3  A    between atoms: C_5  and  N_6
REMARK    4  A    between atoms: C_7  and  C_9
REMARK    5  A    between atoms: C_11  and  N_12
REMARK    6  A    between atoms: N_15  and  C_16
REMARK                            x       y       z     vdW  Elec       q    Type
REMARK                         _______ _______ _______ _____ _____    ______ ____
ROOT
ATOM      9  C   UNL     1      12.499   7.343  19.314  0.00  0.00    +0.033 C 
ATOM     10  C   UNL     1      13.283   7.571  19.436  0.00  0.00    -0.002 C 
ATOM     11  C   UNL     1      13.771   7.731  18.790  0.00  0.00    +0.152 C 
ATOM     22  C   UNL     1      13.475   7.663  18.023  0.00  0.00    +0.206 C 
ATOM     23  O   UNL     1      13.964   7.823  17.377  0.00  0.00    -0.218 OA
ATOM     24  C   UNL     1      12.692   7.436  17.901  0.00  0.00    +0.189 C 
ATOM     25  O   UNL     1      12.396   7.368  17.134  0.00  0.00    -0.220 OA
ATOM     26  C   UNL     1      12.204   7.276  18.548  0.00  0.00    +0.066 C 
ENDROOT
BRANCH  11  12
ATOM     12  N   UNL     1      14.555   7.959  18.912  0.00  0.00    -0.182 NA
ATOM     13  C   UNL     1      15.071   7.458  19.316  0.00  0.00    +0.340 C 
ATOM     14  O   UNL     1      14.804   6.731  19.598  0.00  0.00    -0.249 OA
ATOM     15  N   UNL     1      15.854   7.686  19.437  0.00  0.00    -0.189 NA
BRANCH  15  16
ATOM     16  C   UNL     1      16.371   7.186  19.842  0.00  0.00    +0.097 C 
ATOM     17  C   UNL     1      16.501   7.293  20.651  0.00  0.00    +0.022 C 
ATOM     18  C   UNL     1      17.017   6.792  21.055  0.00  0.00    +0.002 C 
ATOM     19  C   UNL     1      17.404   6.186  20.652  0.00  0.00    +0.000 C 
ATOM     20  C   UNL     1      17.275   6.079  19.844  0.00  0.00    +0.002 C 
ATOM     21  C   UNL     1      16.758   6.579  19.440  0.00  0.00    +0.022 C 
ENDBRANCH  15  16
ENDBRANCH  11  12
BRANCH   9   7
ATOM      6  N   UNL     1      11.743   7.802  20.436  0.00  0.00    -0.201 NA
ATOM      7  C   UNL     1      12.012   7.184  19.960  0.00  0.00    +0.261 C 
ATOM      8  O   UNL     1      11.793   6.407  20.130  0.00  0.00    -0.269 OA
BRANCH   6   5
ATOM      5  C   UNL     1      11.255   7.643  21.082  0.00  0.00    +0.125 C 
BRANCH   5   4
ATOM      4  C   UNL     1      10.851   8.258  21.456  0.00  0.00    +0.112 C 
BRANCH   4   2
ATOM      1  N   UNL     1      10.785   8.693  22.815  0.00  0.00    -0.088 NA
ATOM      2  C   UNL     1      10.568   8.159  22.224  0.00  0.00    +0.263 C 
ATOM      3  O   UNL     1      10.070   7.526  22.402  0.00  0.00    -0.272 OA
ENDBRANCH   4   2
ENDBRANCH   5   4
ENDBRANCH   6   5
ENDBRANCH   9   7
TORSDOF 6
ENDMDL
MODEL 8
REMARK VINA RESULT:      -7.9     16.621     19.532
REMARK  Name = 
REMARK  6 active torsions:
REMARK  status: ('A' for Active; 'I' for Inactive)
REMARK    1  A    between atoms: C_2  and  C_4
REMARK    2  A    between atoms: C_4  and  C_5
REMARK    3  A    between atoms: C_5  and  N_6
REMARK    4  A    between atoms: C_7  and  C_9
REMARK    5  A    between atoms: C_11  and  N_12
REMARK    6  A    between atoms: N_15  and  C_16
REMARK                            x       y       z     vdW  Elec       q    Type
REMARK                         _______ _______ _______ _____ _____    ______ ____
ROOT
ATOM      9  C   UNL     1      14.773   7.752  18.886  0.00  0.00    +0.033 C 
ATOM     10  C   UNL     1      14.366   7.797  19.603  0.00  0.00    -0.002 C 
ATOM     11  C   UNL     1      14.538   7.265  20.208  0.00  0.00    +0.152 C 
ATOM     22  C   UNL     1      15.116   6.688  20.098  0.00  0.00    +0.206 C 
ATOM     23  O   UNL     1      15.288   6.155  20.705  0.00  0.00    -0.218 OA
ATOM     24  C   UNL     1      15.523   6.642  19.382  0.00  0.00    +0.189 C 
ATOM     25  O   UNL     1      16.102   6.064  19.272  0.00  0.00    -0.220 OA
ATOM     26  C   UNL     1      15.351   7.175  18.776  0.00  0.00    +0.066 C 
ENDROOT
BRANCH  11  12
ATOM     12  N   UNL     1      14.131   7.310  20.925  0.00  0.00    -0.182 NA
ATOM     13  C   UNL     1      13.314   7.201  20.942  0.00  0.00    +0.340 C 
ATOM     14  O   UNL     1      12.903   7.048  20.244  0.00  0.00    -0.249 OA
ATOM     15  N   UNL     1      12.907   7.247  21.659  0.00  0.00    -0.189 NA
BRANCH  15  16
ATOM     16  C   UNL     1      12.089   7.138  21.676  0.00  0.00    +0.097 C 
ATOM     17  C   UNL     1      11.586   7.793  21.699  0.00  0.00    +0.022 C 
ATOM     18  C   UNL     1      10.769   7.684  21.716  0.00  0.00    +0.002 C 
ATOM     19  C   UNL     1      10.454   6.923  21.710  0.00  0.00    +0.000 C 
ATOM     20  C   UNL     1      10.956   6.268  21.688  0.00  0.00    +0.002 C 
ATOM     21  C   UNL     1      11.774   6.377  21.670  0.00  0.00    +0.022 C 
ENDBRANCH  15  16
ENDBRANCH  11  12
BRANCH   9   7
ATOM      6  N   UNL     1      14.256   8.015  17.580  0.00  0.00    -0.201 NA
ATOM      7  C   UNL     1      14.601   8.285  18.280  0.00  0.00    +0.261 C 
ATOM      8  O   UNL     1      14.772   9.086  18.374  0.00  0.00    -0.269 OA
BRANCH   6   5
ATOM      5  C   UNL     1      14.084   8.548  16.974  0.00  0.00    +0.125 C 
BRANCH   5   4
ATOM      4  C   UNL     1      13.963   8.273  16.205  0.00  0.00    +0.112 C 
BRANCH   4   2
ATOM      1  N   UNL     1      12.862   8.976  15.626  0.00  0.00    -0.088 NA
ATOM      2  C   UNL     1      13.664   8.781  15.628  0.00  0.00    +0.263 C 
ATOM      3  O   UNL     1      14.166   9.094  15.053  0.00  0.00    -0.272 OA
ENDBRANCH   4   2
ENDBRANCH   5   4
ENDBRANCH   6   5
ENDBRANCH   9   7
TORSDOF 6
ENDMDL
MODEL 9
REMARK VINA RESULT:      -7.8     16.496     19.191
REMARK  Name = 
REMARK  6 active torsions:
REMARK  status: ('A' for Active; 'I' for Inactive)
REMARK    1  A    between atoms: C_2  and  C_4
REMARK    2  A    between atoms: C_4  and  C_5
REMARK    3  A    between atoms: C_5  and  N_6
REMARK    4  A    between atoms: C_7  and  C_9
REMARK    5  A    between atoms: C_11  and  N_12
REMARK    6  A    between atoms: N_15  and  C_16
REMARK                            x       y       z     vdW  Elec       q    Type
REMARK                         _______ _______ _______ _____ _____    ______ ____
ROOT
ATOM      9  C   UNL     1      13.938   7.987  18.595  0.00  0.00    +0.033 C 
ATOM     10  C   UNL     1      13.342   8.360  19.028  0.00  0.00    -0.002 C 
ATOM     11  C   UNL     1      12.573   8.389  18.729  0.00  0.00    +0.152 C 
ATOM     22  C   UNL     1      12.401   8.045  18.000  0.00  0.00    +0.206 C 
ATOM     23  O   UNL     1      11.631   8.074  17.702  0.00  0.00    -0.218 OA
ATOM     24  C   UNL     1      12.996   7.672  17.568  0.00  0.00    +0.189 C 
ATOM     25  O   UNL     1      12.824   7.329  16.838  0.00  0.00    -0.220 OA
ATOM     26  C   UNL     1      13.766   7.644  17.866  0.00  0.00    +0.066 C 
ENDROOT
BRANCH  11  12
ATOM     12  N   UNL     1      11.977   8.762  19.162  0.00  0.00    -0.182 NA
ATOM     13  C   UNL     1      11.779   8.485  19.913  0.00  0.00    +0.340 C 
ATOM     14  O   UNL     1      12.175   7.837  20.232  0.00  0.00    -0.249 OA
ATOM     15  N   UNL     1      11.183   8.858  20.344  0.00  0.00    -0.189 NA
BRANCH  15  16
ATOM     16  C   UNL     1      10.984   8.581  21.097  0.00  0.00    +0.097 C 
ATOM     17  C   UNL     1      11.192   9.019  21.765  0.00  0.00    +0.022 C 
ATOM     18  C   UNL     1      10.993   8.742  22.516  0.00  0.00    +0.002 C 
ATOM     19  C   UNL     1      10.587   8.030  22.600  0.00  0.00    +0.000 C 
ATOM     20  C   UNL     1      10.380   7.592  21.932  0.00  0.00    +0.002 C 
ATOM     21  C   UNL     1      10.578   7.869  21.180  0.00  0.00    +0.022 C 
ENDBRANCH  15  16
ENDBRANCH  11  12
BRANCH   9   7
ATOM      6  N   UNL     1      15.031   7.237  19.130  0.00  0.00    -0.201 NA
ATOM      7  C   UNL     1      14.707   7.959  18.894  0.00  0.00    +0.261 C 
ATOM      8  O   UNL     1      15.151   8.651  18.956  0.00  0.00    -0.269 OA
BRANCH   6   5
ATOM      5  C   UNL     1      15.799   7.209  19.429  0.00  0.00    +0.125 C 
BRANCH   5   4
ATOM      4  C   UNL     1      16.118   6.489  19.678  0.00  0.00    +0.112 C 
BRANCH   4   2
ATOM      1  N   UNL     1      17.404   6.052  19.233  0.00  0.00    -0.088 NA
ATOM      2  C   UNL     1      16.931   6.420  19.801  0.00  0.00    +0.263 C 
ATOM      3  O   UNL     1      17.271   6.718  20.491  0.00  0.00    -0.272 OA
ENDBRANCH   4   2
ENDBRANCH   5   4
ENDBRANCH   6   5
ENDBRANCH   9   7
TORSDOF 6
ENDMDL
MODEL 10
REMARK VINA RESULT:      -7.6     17.104     18.942
REMARK  Name = 
REMARK  6 active torsions:
REMARK  status: ('A' for Active; 'I' for Inactive)
REMARK    1  A    between atoms: C_2  and  C_4
REMARK    2  A    between atoms: C_4  and  C_5
REMARK    3  A    between atoms: C_5  and  N_6
REMARK    4  A    between atoms: C_7  and  C_9
REMARK    5  A    between atoms: C_11  and  N_12
REMARK    6  A    between atoms: N_15  and  C_16
REMARK                            x       y       z     vdW  Elec       q    Type
REMARK                         _______ _______ _______ _____ _____    ______ ____
ROOT
ATOM      9  C   UNL     1      13.280   7.170  20.568  0.00  0.00    +0.033 C 
ATOM     10  C   UNL     1      12.900   7.758  20.130  0.00  0.00    -0.002 C 
ATOM     11  C   UNL     1      12.076   7.804  20.131  0.00  0.00    +0.152 C 
ATOM     22  C   UNL     1      11.633   7.265  20.569  0.00  0.00    +0.206 C 
ATOM     23  O   UNL     1      10.809   7.312  20.570  0.00  0.00    -0.218 OA
ATOM     24  C   UNL     1      12.012   6.678  21.007  0.00  0.00    +0.189 C 
ATOM     25  O   UNL     1      11.569   6.138  21.445  0.00  0.00    -0.220 OA
ATOM     26  C   UNL     1      12.837   6.631  21.006  0.00  0.00    +0.066 C 
ENDROOT
BRANCH  11  12
ATOM     12  N   UNL     1      11.696   8.392  19.693  0.00  0.00    -0.182 NA
ATOM     13  C   UNL     1      11.678   8.345  18.870  0.00  0.00    +0.340 C 
ATOM     14  O   UNL     1      12.038   7.712  18.485  0.00  0.00    -0.249 OA
ATOM     15  N   UNL     1      11.298   8.932  18.433  0.00  0.00    -0.189 NA
BRANCH  15  16
ATOM     16  C   UNL     1      11.279   8.885  17.609  0.00  0.00    +0.097 C 
ATOM     17  C   UNL     1      11.950   9.080  17.169  0.00  0.00    +0.022 C 
ATOM     18  C   UNL     1      11.931   9.033  16.346  0.00  0.00    +0.002 C 
ATOM     19  C   UNL     1      11.243   8.792  15.962  0.00  0.00    +0.000 C 
ATOM     20  C   UNL     1      10.572   8.598  16.401  0.00  0.00    +0.002 C 
ATOM     21  C   UNL     1      10.591   8.645  17.225  0.00  0.00    +0.022 C 
ENDBRANCH  15  16
ENDBRANCH  11  12
BRANCH   9   7
ATOM      6  N   UNL     1      14.494   6.746  19.945  0.00  0.00    -0.201 NA
ATOM      7  C   UNL     1      14.103   7.123  20.567  0.00  0.00    +0.261 C 
ATOM      8  O   UNL     1      14.537   7.453  21.186  0.00  0.00    -0.269 OA
BRANCH   6   5
ATOM      5  C   UNL     1      15.317   6.699  19.943  0.00  0.00    +0.125 C 
BRANCH   5   4
ATOM      4  C   UNL     1      15.719   6.525  19.244  0.00  0.00    +0.112 C 
BRANCH   4   2
ATOM      1  N   UNL     1      16.747   5.610  18.858  0.00  0.00    -0.088 NA
ATOM      2  C   UNL     1      16.508   6.284  19.271  0.00  0.00    +0.263 C 
ATOM      3  O   UNL     1      17.057   6.716  19.710  0.00  0.00    -0.272 OA
ENDBRANCH   4   2
ENDBRANCH   5   4
ENDBRANCH   6   5
ENDBRANCH   9   7
TORSDOF 6
ENDMDL
