MODEL 1
REMARK VINA RESULT:     -12.8      0.000      0.000
REMARK  Name = 
REMARK  7 active torsions:
REMARK  status: ('A' for Active; 'I' for Inactive)
REMARK    1  A    between atoms: C_5  and  C_6
REMARK    2  A    between atoms: C_6  and  C_7
REMARK    3  A    between atoms: C_10  and  C_12
REMARK    4  A    between atoms: C_20  and  C_21
REMARK    5  A    between atoms: C_21  and  N_22
REMARK    6  A    between atoms: N_22  and  C_23
REMARK    7  A    between atoms: C_23  and  C_24
REMARK                            x       y       z     vdW  Elec       q    Type
REMARK                         _______ _______ _______ _____ _____    ______ ____
ROOT
ATOM      1  O   UNL     1      -5.782   3.450  26.111  0.00  0.00    -0.220 OA
ATOM      2  C   UNL     1      -5.457   2.831  25.676  0.00  0.00    +0.180 C 
ATOM      3  C   UNL     1      -5.930   2.196  25.445  0.00  0.00    +0.038 C 
ATOM      4  C   UNL     1      -5.604   1.575  25.008  0.00  0.00    +0.033 C 
ATOM      5  C   UNL     1      -4.805   1.591  24.803  0.00  0.00    +0.121 C 
ATOM     19  O   UNL     1      -4.332   2.226  25.034  0.00  0.00    -0.354 OA
ATOM     20  C   UNL     1      -4.657   2.845  25.470  0.00  0.00    +0.163 C 
ENDROOT
BRANCH   5   6
ATOM      6  C   UNL     1      -4.479   0.971  24.367  0.00  0.00    +0.079 C 
BRANCH   6   7
ATOM      7  C   UNL     1      -4.038   0.386  24.747  0.00  0.00    +0.103 A 
ATOM      8  N   UNL     1      -4.320  -0.143  25.314  0.00  0.00    -0.081 NA
ATOM      9  O   UNL     1      -3.694  -0.628  25.543  0.00  0.00    -0.354 OA
ATOM     10  C   UNL     1      -3.025  -0.398  25.118  0.00  0.00    +0.177 A 
ATOM     11  C   UNL     1      -3.237   0.228  24.626  0.00  0.00    +0.058 A 
BRANCH  10  12
ATOM     12  C   UNL     1      -2.274  -0.737  25.176  0.00  0.00    +0.037 A 
ATOM     13  C   UNL     1      -2.122  -1.466  24.823  0.00  0.00    +0.005 A 
ATOM     14  C   UNL     1      -1.371  -1.805  24.881  0.00  0.00    +0.030 A 
ATOM     15  C   UNL     1      -0.773  -1.413  25.292  0.00  0.00    +0.140 A 
ATOM     16  F   UNL     1      -0.023  -1.751  25.350  0.00  0.00    -0.204 F 
ATOM     17  C   UNL     1      -0.925  -0.683  25.645  0.00  0.00    +0.030 A 
ATOM     18  C   UNL     1      -1.675  -0.344  25.588  0.00  0.00    +0.005 A 
ENDBRANCH  10  12
ENDBRANCH   6   7
ENDBRANCH   5   6
BRANCH  20  21
ATOM     21  C   UNL     1      -4.184   3.481  25.701  0.00  0.00    +0.121 C 
BRANCH  21  22
ATOM     22  N   UNL     1      -3.391   3.508  25.475  0.00  0.00    -0.211 NA
BRANCH  22  23
ATOM     23  C   UNL     1      -2.868   4.014  25.864  0.00  0.00    +0.115 C 
BRANCH  23  24
ATOM     24  C   UNL     1      -2.094   4.095  25.592  0.00  0.00    -0.005 A 
ATOM     25  C   UNL     1      -1.561   3.471  25.675  0.00  0.00    -0.003 A 
ATOM     26  C   UNL     1      -0.785   3.552  25.403  0.00  0.00    -0.000 A 
ATOM     27  C   UNL     1      -0.544   4.256  25.048  0.00  0.00    -0.000 A 
ATOM     28  C   UNL     1      -1.078   4.880  24.965  0.00  0.00    -0.000 A 
ATOM     29  C   UNL     1      -1.852   4.800  25.237  0.00  0.00    -0.003 A 
ENDBRANCH  23  24
ENDBRANCH  22  23
ENDBRANCH  21  22
ENDBRANCH  20  21
TORSDOF 7
ENDMDL
MODEL 2
REMARK VINA RESULT:     -12.6      1.811      3.510
REMARK  Name = 
REMARK  7 active torsions:
REMARK  status: ('A' for Active; 'I' for Inactive)
REMARK    1  A    between atoms: C_5  and  C_6
REMARK    2  A    between atoms: C_6  and  C_7
REMARK    3  A    between atoms: C_10  and  C_12
REMARK    4  A    between atoms: C_20  and  C_21
REMARK    5  A    between atoms: C_21  and  N_22
REMARK    6  A    between atoms: N_22  and  C_23
REMARK    7  A    between atoms: C_23  and  C_24
REMARK                            x       y       z     vdW  Elec       q    Type
REMARK                         _______ _______ _______ _____ _____    ______ ____
ROOT
ATOM      1  O   UNL     1      -1.074   3.860  25.765  0.00  0.00    -0.220 OA
ATOM      2  C   UNL     1      -0.974   3.077  25.528  0.00  0.00    +0.180 C 
ATOM      3  C   UNL     1      -0.299   2.661  25.756  0.00  0.00    +0.038 C 
ATOM      4  C   UNL     1      -0.198   1.876  25.519  0.00  0.00    +0.033 C 
ATOM      5  C   UNL     1      -0.772   1.510  25.054  0.00  0.00    +0.121 C 
ATOM     19  O   UNL     1      -1.447   1.926  24.826  0.00  0.00    -0.354 OA
ATOM     20  C   UNL     1      -1.547   2.709  25.063  0.00  0.00    +0.163 C 
ENDROOT
BRANCH   5   6
ATOM      6  C   UNL     1      -0.671   0.725  24.817  0.00  0.00    +0.079 C 
BRANCH   6   7
ATOM      7  C   UNL     1      -1.218   0.151  25.045  0.00  0.00    +0.103 A 
ATOM      8  N   UNL     1      -1.342  -0.123  25.814  0.00  0.00    -0.081 NA
ATOM      9  O   UNL     1      -1.937  -0.692  25.789  0.00  0.00    -0.354 OA
ATOM     10  C   UNL     1      -2.182  -0.770  25.005  0.00  0.00    +0.177 A 
ATOM     11  C   UNL     1      -1.738  -0.249  24.546  0.00  0.00    +0.058 A 
BRANCH  10  12
ATOM     12  C   UNL     1      -2.769  -1.281  24.729  0.00  0.00    +0.037 A 
ATOM     13  C   UNL     1      -2.640  -2.095  24.726  0.00  0.00    +0.005 A 
ATOM     14  C   UNL     1      -3.227  -2.605  24.450  0.00  0.00    +0.030 A 
ATOM     15  C   UNL     1      -3.943  -2.301  24.177  0.00  0.00    +0.140 A 
ATOM     16  F   UNL     1      -4.530  -2.811  23.901  0.00  0.00    -0.204 F 
ATOM     17  C   UNL     1      -4.073  -1.486  24.179  0.00  0.00    +0.030 A 
ATOM     18  C   UNL     1      -3.486  -0.975  24.455  0.00  0.00    +0.005 A 
ENDBRANCH  10  12
ENDBRANCH   6   7
ENDBRANCH   5   6
BRANCH  20  21
ATOM     21  C   UNL     1      -2.222   3.126  24.835  0.00  0.00    +0.121 C 
BRANCH  21  22
ATOM     22  N   UNL     1      -2.967   2.878  25.091  0.00  0.00    -0.211 NA
BRANCH  22  23
ATOM     23  C   UNL     1      -3.647   3.165  24.723  0.00  0.00    +0.115 C 
BRANCH  23  24
ATOM     24  C   UNL     1      -4.388   2.884  24.949  0.00  0.00    -0.005 A 
ATOM     25  C   UNL     1      -4.763   2.302  24.500  0.00  0.00    -0.003 A 
ATOM     26  C   UNL     1      -5.505   2.020  24.726  0.00  0.00    -0.000 A 
ATOM     27  C   UNL     1      -5.871   2.320  25.401  0.00  0.00    -0.000 A 
ATOM     28  C   UNL     1      -5.497   2.902  25.850  0.00  0.00    -0.000 A 
ATOM     29  C   UNL     1      -4.755   3.183  25.624  0.00  0.00    -0.003 A 
ENDBRANCH  23  24
ENDBRANCH  22  23
ENDBRANCH  21  22
ENDBRANCH  20  21
TORSDOF 7
ENDMDL
MODEL 3
REMARK VINA RESULT:     -12.5      1.713      2.976
REMARK  Name = 
REMARK  7 active torsions:
REMARK  status: ('A' for Active; 'I' for Inactive)
REMARK    1  A    between atoms: C_5  and  C_6
REMARK    2  A    between atoms: C_6  and  C_7
REMARK    3  A    between atoms: C_10  and  C_12
REMARK    4  A    between atoms: C_20  and  C_21
REMARK    5  A    between atoms: C_21  and  N_22
REMARK    6  A    between atoms: N_22  and  C_23
REMARK    7  A    between atoms: C_23  and  C_24
REMARK                            x       y       z     vdW  Elec       q    Type
REMARK                         _______ _______ _______ _____ _____    ______ ____
ROOT
ATOM      1  O   UNL     1      -2.113   4.224  25.711  0.00  0.00    -0.220 OA
ATOM      2  C   UNL     1      -2.666   3.713  25.377  0.00  0.00    +0.180 C 
ATOM      3  C   UNL     1      -3.472   3.877  25.443  0.00  0.00    +0.038 C 
ATOM      4  C   UNL     1      -4.027   3.365  25.108  0.00  0.00    +0.033 C 
ATOM      5  C   UNL     1      -3.774   2.689  24.709  0.00  0.00    +0.121 C 
ATOM     19  O   UNL     1      -2.969   2.524  24.644  0.00  0.00    -0.354 OA
ATOM     20  C   UNL     1      -2.415   3.036  24.978  0.00  0.00    +0.163 C 
ENDROOT
BRANCH   5   6
ATOM      6  C   UNL     1      -4.329   2.177  24.375  0.00  0.00    +0.079 C 
BRANCH   6   7
ATOM      7  C   UNL     1      -4.424   1.416  24.679  0.00  0.00    +0.103 A 
ATOM      8  N   UNL     1      -4.860   1.213  25.351  0.00  0.00    -0.081 NA
ATOM      9  O   UNL     1      -4.806   0.397  25.452  0.00  0.00    -0.354 OA
ATOM     10  C   UNL     1      -4.337   0.095  24.844  0.00  0.00    +0.177 A 
ATOM     11  C   UNL     1      -4.102   0.724  24.366  0.00  0.00    +0.058 A 
BRANCH  10  12
ATOM     12  C   UNL     1      -4.139  -0.699  24.733  0.00  0.00    +0.037 A 
ATOM     13  C   UNL     1      -3.758  -1.117  25.332  0.00  0.00    +0.005 A 
ATOM     14  C   UNL     1      -3.560  -1.910  25.222  0.00  0.00    +0.030 A 
ATOM     15  C   UNL     1      -3.743  -2.286  24.511  0.00  0.00    +0.140 A 
ATOM     16  F   UNL     1      -3.545  -3.078  24.399  0.00  0.00    -0.204 F 
ATOM     17  C   UNL     1      -4.125  -1.868  23.910  0.00  0.00    +0.030 A 
ATOM     18  C   UNL     1      -4.323  -1.074  24.021  0.00  0.00    +0.005 A 
ENDBRANCH  10  12
ENDBRANCH   6   7
ENDBRANCH   5   6
BRANCH  20  21
ATOM     21  C   UNL     1      -1.609   2.871  24.912  0.00  0.00    +0.121 C 
BRANCH  21  22
ATOM     22  N   UNL     1      -1.359   2.169  24.557  0.00  0.00    -0.211 NA
BRANCH  22  23
ATOM     23  C   UNL     1      -0.633   1.837  24.767  0.00  0.00    +0.115 C 
BRANCH  23  24
ATOM     24  C   UNL     1      -0.459   1.060  24.555  0.00  0.00    -0.005 A 
ATOM     25  C   UNL     1      -0.179   0.892  23.797  0.00  0.00    -0.003 A 
ATOM     26  C   UNL     1      -0.005   0.113  23.585  0.00  0.00    -0.000 A 
ATOM     27  C   UNL     1      -0.111  -0.496  24.130  0.00  0.00    -0.000 A 
ATOM     28  C   UNL     1      -0.392  -0.328  24.888  0.00  0.00    -0.000 A 
ATOM     29  C   UNL     1      -0.565   0.449  25.100  0.00  0.00    -0.003 A 
ENDBRANCH  23  24
ENDBRANCH  22  23
ENDBRANCH  21  22
ENDBRANCH  20  21
TORSDOF 7
ENDMDL
MODEL 4
REMARK VINA RESULT:     -12.4      1.985      4.129
REMARK  Name = 
REMARK  7 active torsions:
REMARK  status: ('A' for Active; 'I' for Inactive)
REMARK    1  A    between atoms: C_5  and  C_6
REMARK    2  A    between atoms: C_6  and  C_7
REMARK    3  A    between atoms: C_10  and  C_12
REMARK    4  A    between atoms: C_20  and  C_21
REMARK    5  A    between atoms: C_21  and  N_22
REMARK    6  A    between atoms: N_22  and  C_23
REMARK    7  A    between atoms: C_23  and  C_24
REMARK                            x       y       z     vdW  Elec       q    Type
REMARK                         _______ _______ _______ _____ _____    ______ ____
ROOT
ATOM      1  O   UNL     1      -0.058  -1.105  24.326  0.00  0.00    -0.220 OA
ATOM      2  C   UNL     1      -0.835  -1.090  24.601  0.00  0.00    +0.180 C 
ATOM      3  C   UNL     1      -1.337  -1.728  24.454  0.00  0.00    +0.038 C 
ATOM      4  C   UNL     1      -2.115  -1.714  24.728  0.00  0.00    +0.033 C 
ATOM      5  C   UNL     1      -2.391  -1.061  25.150  0.00  0.00    +0.121 C 
ATOM     19  O   UNL     1      -1.890  -0.422  25.297  0.00  0.00    -0.354 OA
ATOM     20  C   UNL     1      -1.112  -0.437  25.022  0.00  0.00    +0.163 C 
ENDROOT
BRANCH   5   6
ATOM      6  C   UNL     1      -3.169  -1.046  25.425  0.00  0.00    +0.079 C 
BRANCH   6   7
ATOM      7  C   UNL     1      -3.711  -0.513  25.103  0.00  0.00    +0.103 A 
ATOM      8  N   UNL     1      -4.157  -0.628  24.419  0.00  0.00    -0.081 NA
ATOM      9  O   UNL     1      -4.622   0.042  24.302  0.00  0.00    -0.354 OA
ATOM     10  C   UNL     1      -4.464   0.572  24.915  0.00  0.00    +0.177 A 
ATOM     11  C   UNL     1      -3.900   0.229  25.409  0.00  0.00    +0.058 A 
BRANCH  10  12
ATOM     12  C   UNL     1      -4.809   1.316  25.014  0.00  0.00    +0.037 A 
ATOM     13  C   UNL     1      -5.474   1.401  25.494  0.00  0.00    +0.005 A 
ATOM     14  C   UNL     1      -5.819   2.144  25.593  0.00  0.00    +0.030 A 
ATOM     15  C   UNL     1      -5.498   2.802  25.213  0.00  0.00    +0.140 A 
ATOM     16  F   UNL     1      -5.842   3.545  25.312  0.00  0.00    -0.204 F 
ATOM     17  C   UNL     1      -4.832   2.717  24.733  0.00  0.00    +0.030 A 
ATOM     18  C   UNL     1      -4.487   1.974  24.633  0.00  0.00    +0.005 A 
ENDBRANCH  10  12
ENDBRANCH   6   7
ENDBRANCH   5   6
BRANCH  20  21
ATOM     21  C   UNL     1      -0.611   0.202  25.169  0.00  0.00    +0.121 C 
BRANCH  21  22
ATOM     22  N   UNL     1      -0.906   0.972  25.145  0.00  0.00    -0.211 NA
BRANCH  22  23
ATOM     23  C   UNL     1      -0.423   1.606  25.359  0.00  0.00    +0.115 C 
BRANCH  23  24
ATOM     24  C   UNL     1      -0.712   2.377  25.317  0.00  0.00    -0.005 A 
ATOM     25  C   UNL     1      -1.092   2.711  25.969  0.00  0.00    -0.003 A 
ATOM     26  C   UNL     1      -1.381   3.483  25.927  0.00  0.00    -0.000 A 
ATOM     27  C   UNL     1      -1.290   3.920  25.234  0.00  0.00    -0.000 A 
ATOM     28  C   UNL     1      -0.910   3.586  24.582  0.00  0.00    -0.000 A 
ATOM     29  C   UNL     1      -0.621   2.815  24.624  0.00  0.00    -0.003 A 
ENDBRANCH  23  24
ENDBRANCH  22  23
ENDBRANCH  21  22
ENDBRANCH  20  21
TORSDOF 7
ENDMDL
MODEL 5
REMARK VINA RESULT:     -12.4      2.089      5.074
REMARK  Name = 
REMARK  7 active torsions:
REMARK  status: ('A' for Active; 'I' for Inactive)
REMARK    1  A    between atoms: C_5  and  C_6
REMARK    2  A    between atoms: C_6  and  C_7
REMARK    3  A    between atoms: C_10  and  C_12
REMARK    4  A    between atoms: C_20  and  C_21
REMARK    5  A    between atoms: C_21  and  N_22
REMARK    6  A    between atoms: N_22  and  C_23
REMARK    7  A    between atoms: C_23  and  C_24
REMARK                            x       y       z     vdW  Elec       q    Type
REMARK                         _______ _______ _______ _____ _____    ______ ____
ROOT
ATOM      1  O   UNL     1       0.538   1.510  24.275  0.00  0.00    -0.220 OA
ATOM      2  C   UNL     1      -0.028   1.995  24.626  0.00  0.00    +0.180 C 
ATOM      3  C   UNL     1       0.031   2.815  24.557  0.00  0.00    +0.038 C 
ATOM      4  C   UNL     1      -0.537   3.301  24.909  0.00  0.00    +0.033 C 
ATOM      5  C   UNL     1      -1.162   2.966  25.330  0.00  0.00    +0.121 C 
ATOM     19  O   UNL     1      -1.220   2.146  25.399  0.00  0.00    -0.354 OA
ATOM     20  C   UNL     1      -0.654   1.661  25.048  0.00  0.00    +0.163 C 
ENDROOT
BRANCH   5   6
ATOM      6  C   UNL     1      -1.729   3.452  25.681  0.00  0.00    +0.079 C 
BRANCH   6   7
ATOM      7  C   UNL     1      -2.494   3.482  25.374  0.00  0.00    +0.103 A 
ATOM      8  N   UNL     1      -2.776   4.032  24.827  0.00  0.00    -0.081 NA
ATOM      9  O   UNL     1      -3.567   3.858  24.676  0.00  0.00    -0.354 OA
ATOM     10  C   UNL     1      -3.775   3.200  25.129  0.00  0.00    +0.177 A 
ATOM     11  C   UNL     1      -3.112   2.968  25.560  0.00  0.00    +0.058 A 
BRANCH  10  12
ATOM     12  C   UNL     1      -4.517   2.838  25.146  0.00  0.00    +0.037 A 
ATOM     13  C   UNL     1      -4.705   2.258  24.593  0.00  0.00    +0.005 A 
ATOM     14  C   UNL     1      -5.447   1.895  24.610  0.00  0.00    +0.030 A 
ATOM     15  C   UNL     1      -5.999   2.115  25.182  0.00  0.00    +0.140 A 
ATOM     16  F   UNL     1      -6.740   1.753  25.200  0.00  0.00    -0.204 F 
ATOM     17  C   UNL     1      -5.810   2.696  25.737  0.00  0.00    +0.030 A 
ATOM     18  C   UNL     1      -5.069   3.058  25.719  0.00  0.00    +0.005 A 
ENDBRANCH  10  12
ENDBRANCH   6   7
ENDBRANCH   5   6
BRANCH  20  21
ATOM     21  C   UNL     1      -0.713   0.841  25.118  0.00  0.00    +0.121 C 
BRANCH  21  22
ATOM     22  N   UNL     1      -1.445   0.470  25.030  0.00  0.00    -0.211 NA
BRANCH  22  23
ATOM     23  C   UNL     1      -1.527  -0.330  25.211  0.00  0.00    +0.115 C 
BRANCH  23  24
ATOM     24  C   UNL     1      -2.271  -0.685  25.184  0.00  0.00    -0.005 A 
ATOM     25  C   UNL     1      -2.690  -0.817  25.883  0.00  0.00    -0.003 A 
ATOM     26  C   UNL     1      -3.435  -1.172  25.856  0.00  0.00    -0.000 A 
ATOM     27  C   UNL     1      -3.760  -1.395  25.132  0.00  0.00    -0.000 A 
ATOM     28  C   UNL     1      -3.340  -1.263  24.433  0.00  0.00    -0.000 A 
ATOM     29  C   UNL     1      -2.597  -0.908  24.460  0.00  0.00    -0.003 A 
ENDBRANCH  23  24
ENDBRANCH  22  23
ENDBRANCH  21  22
ENDBRANCH  20  21
TORSDOF 7
ENDMDL
MODEL 6
REMARK VINA RESULT:     -12.3      1.910      4.049
REMARK  Name = 
REMARK  7 active torsions:
REMARK  status: ('A' for Active; 'I' for Inactive)
REMARK    1  A    between atoms: C_5  and  C_6
REMARK    2  A    between atoms: C_6  and  C_7
REMARK    3  A    between atoms: C_10  and  C_12
REMARK    4  A    between atoms: C_20  and  C_21
REMARK    5  A    between atoms: C_21  and  N_22
REMARK    6  A    between atoms: N_22  and  C_23
REMARK    7  A    between atoms: C_23  and  C_24
REMARK                            x       y       z     vdW  Elec       q    Type
REMARK                         _______ _______ _______ _____ _____    ______ ____
ROOT
ATOM      1  O   UNL     1      -4.407  -1.820  23.999  0.00  0.00    -0.220 OA
ATOM      2  C   UNL     1      -3.732  -1.570  24.402  0.00  0.00    +0.180 C 
ATOM      3  C   UNL     1      -3.074  -2.065  24.451  0.00  0.00    +0.038 C 
ATOM      4  C   UNL     1      -2.398  -1.815  24.854  0.00  0.00    +0.033 C 
ATOM      5  C   UNL     1      -2.382  -1.070  25.208  0.00  0.00    +0.121 C 
ATOM     19  O   UNL     1      -3.040  -0.575  25.159  0.00  0.00    -0.354 OA
ATOM     20  C   UNL     1      -3.715  -0.825  24.756  0.00  0.00    +0.163 C 
ENDROOT
BRANCH   5   6
ATOM      6  C   UNL     1      -1.707  -0.819  25.611  0.00  0.00    +0.079 C 
BRANCH   6   7
ATOM      7  C   UNL     1      -1.267  -0.182  25.325  0.00  0.00    +0.103 A 
ATOM      8  N   UNL     1      -0.633  -0.228  24.799  0.00  0.00    -0.081 NA
ATOM      9  O   UNL     1      -0.359   0.538  24.664  0.00  0.00    -0.354 OA
ATOM     10  C   UNL     1      -0.824   1.057  25.106  0.00  0.00    +0.177 A 
ATOM     11  C   UNL     1      -1.385   0.612  25.515  0.00  0.00    +0.058 A 
BRANCH  10  12
ATOM     12  C   UNL     1      -0.741   1.878  25.134  0.00  0.00    +0.037 A 
ATOM     13  C   UNL     1      -0.713   2.264  25.861  0.00  0.00    +0.005 A 
ATOM     14  C   UNL     1      -0.631   3.085  25.890  0.00  0.00    +0.030 A 
ATOM     15  C   UNL     1      -0.576   3.518  25.190  0.00  0.00    +0.140 A 
ATOM     16  F   UNL     1      -0.493   4.339  25.218  0.00  0.00    -0.204 F 
ATOM     17  C   UNL     1      -0.604   3.131  24.462  0.00  0.00    +0.030 A 
ATOM     18  C   UNL     1      -0.686   2.310  24.433  0.00  0.00    +0.005 A 
ENDBRANCH  10  12
ENDBRANCH   6   7
ENDBRANCH   5   6
BRANCH  20  21
ATOM     21  C   UNL     1      -4.373  -0.330  24.707  0.00  0.00    +0.121 C 
BRANCH  21  22
ATOM     22  N   UNL     1      -4.300   0.474  24.882  0.00  0.00    -0.211 NA
BRANCH  22  23
ATOM     23  C   UNL     1      -4.919   0.992  24.712  0.00  0.00    +0.115 C 
BRANCH  23  24
ATOM     24  C   UNL     1      -4.827   1.800  24.843  0.00  0.00    -0.005 A 
ATOM     25  C   UNL     1      -5.158   2.149  25.514  0.00  0.00    -0.003 A 
ATOM     26  C   UNL     1      -5.067   2.959  25.646  0.00  0.00    -0.000 A 
ATOM     27  C   UNL     1      -4.645   3.419  25.107  0.00  0.00    -0.000 A 
ATOM     28  C   UNL     1      -4.314   3.070  24.436  0.00  0.00    -0.000 A 
ATOM     29  C   UNL     1      -4.406   2.262  24.305  0.00  0.00    -0.003 A 
ENDBRANCH  23  24
ENDBRANCH  22  23
ENDBRANCH  21  22
ENDBRANCH  20  21
TORSDOF 7
ENDMDL
