MODEL 1
REMARK VINA RESULT:     -14.2      0.000      0.000
REMARK  Name = 
REMARK  5 active torsions:
REMARK  status: ('A' for Active; 'I' for Inactive)
REMARK    1  A    between atoms: C_2  and  C_5
REMARK    2  A    between atoms: C_5  and  C_6
REMARK    3  A    between atoms: C_15  and  C_17
REMARK    4  A    between atoms: C_25  and  C_26
REMARK    5  A    between atoms: C_26  and  C_27
REMARK                            x       y       z     vdW  Elec       q    Type
REMARK                         _______ _______ _______ _____ _____    ______ ____
ROOT
ATOM      6  C   UNL     1      -1.583   2.777  25.316  0.00  0.00    +0.247 C 
ATOM      7  O   UNL     1      -2.343   2.881  25.013  0.00  0.00    -0.273 OA
ATOM      8  N   UNL     1      -1.276   2.015  25.406  0.00  0.00    -0.154 NA
ATOM      9  C   UNL     1      -1.729   1.360  25.193  0.00  0.00    +0.185 A 
ATOM     10  N   UNL     1      -2.494   1.380  24.884  0.00  0.00    -0.227 NA
ATOM     11  C   UNL     1      -2.735   0.601  24.751  0.00  0.00    +0.063 A 
ATOM     12  C   UNL     1      -2.118   0.102  24.978  0.00  0.00    +0.023 A 
ATOM     13  C   UNL     1      -2.203  -0.716  24.907  0.00  0.00    +0.034 C 
ATOM     14  C   UNL     1      -2.903  -1.034  24.609  0.00  0.00    +0.010 C 
ATOM     15  C   UNL     1      -2.988  -1.851  24.538  0.00  0.00    +0.059 C 
ATOM     16  C   UNL     1      -2.224  -1.812  24.848  0.00  0.00    +0.005 C 
ATOM     19  C   UNL     1      -3.688  -2.170  24.240  0.00  0.00    +0.154 C 
ATOM     20  O   UNL     1      -3.773  -2.987  24.168  0.00  0.00    -0.223 OA
ATOM     21  C   UNL     1      -4.304  -1.670  24.013  0.00  0.00    +0.033 C 
ATOM     22  C   UNL     1      -4.220  -0.852  24.084  0.00  0.00    +0.003 C 
ATOM     23  C   UNL     1      -3.519  -0.534  24.382  0.00  0.00    +0.006 C 
ATOM     24  C   UNL     1      -4.136  -0.035  24.156  0.00  0.00    +0.000 C 
ATOM     25  C   UNL     1      -3.436   0.283  24.453  0.00  0.00    +0.052 C 
ATOM     30  S   UNL     1      -1.497   0.571  25.251  0.00  0.00    -0.054 S 
ENDROOT
BRANCH  15  17
ATOM     17  C   UNL     1      -2.807  -2.655  24.574  0.00  0.00    +0.184 C 
ATOM     18  O   UNL     1      -2.019  -2.901  24.606  0.00  0.00    -0.220 OA
ENDBRANCH  15  17
BRANCH   6   5
ATOM      5  C   UNL     1      -1.130   3.432  25.529  0.00  0.00    +0.087 C 
BRANCH   5   2
ATOM      1  C   UNL     1      -1.632   4.950  25.120  0.00  0.00    +0.000 C 
ATOM      2  C   UNL     1      -1.381   4.190  25.325  0.00  0.00    +0.009 C 
ATOM      3  C   UNL     1      -1.950   4.164  25.921  0.00  0.00    +0.000 C 
ATOM      4  C   UNL     1      -0.811   4.218  24.728  0.00  0.00    +0.000 C 
ENDBRANCH   5   2
ENDBRANCH   6   5
BRANCH  25  26
ATOM     26  C   UNL     1      -4.051   0.782  24.227  0.00  0.00    +0.120 C 
BRANCH  26  27
ATOM     27  C   UNL     1      -4.578   1.070  24.792  0.00  0.00    +0.365 C 
ATOM     28  O   UNL     1      -4.922   1.813  24.692  0.00  0.00    -0.246 OA
ATOM     29  O   UNL     1      -4.762   0.616  25.456  0.00  0.00    -0.246 OA
ENDBRANCH  26  27
ENDBRANCH  25  26
TORSDOF 5
ENDMDL
MODEL 2
REMARK VINA RESULT:     -13.5      1.222      2.171
REMARK  Name = 
REMARK  5 active torsions:
REMARK  status: ('A' for Active; 'I' for Inactive)
REMARK    1  A    between atoms: C_2  and  C_5
REMARK    2  A    between atoms: C_5  and  C_6
REMARK    3  A    between atoms: C_15  and  C_17
REMARK    4  A    between atoms: C_25  and  C_26
REMARK    5  A    between atoms: C_26  and  C_27
REMARK                            x       y       z     vdW  Elec       q    Type
REMARK                         _______ _______ _______ _____ _____    ______ ____
ROOT
ATOM      6  C   UNL     1      -2.870   2.860  25.019  0.00  0.00    +0.247 C 
ATOM      7  O   UNL     1      -2.181   2.523  25.324  0.00  0.00    -0.273 OA
ATOM      8  N   UNL     1      -3.461   2.377  24.705  0.00  0.00    -0.154 NA
ATOM      9  C   UNL     1      -3.364   1.558  24.697  0.00  0.00    +0.185 A 
ATOM     10  N   UNL     1      -2.709   1.145  24.981  0.00  0.00    -0.227 NA
ATOM     11  C   UNL     1      -2.844   0.340  24.863  0.00  0.00    +0.063 A 
ATOM     12  C   UNL     1      -3.583   0.255  24.506  0.00  0.00    +0.023 A 
ATOM     13  C   UNL     1      -3.868  -0.497  24.321  0.00  0.00    +0.034 C 
ATOM     14  C   UNL     1      -3.415  -1.164  24.492  0.00  0.00    +0.010 C 
ATOM     15  C   UNL     1      -3.700  -1.915  24.307  0.00  0.00    +0.059 C 
ATOM     16  C   UNL     1      -4.328  -1.453  24.038  0.00  0.00    +0.005 C 
ATOM     19  C   UNL     1      -3.246  -2.582  24.478  0.00  0.00    +0.154 C 
ATOM     20  O   UNL     1      -3.531  -3.335  24.293  0.00  0.00    -0.223 OA
ATOM     21  C   UNL     1      -2.507  -2.498  24.835  0.00  0.00    +0.033 C 
ATOM     22  C   UNL     1      -2.222  -1.746  25.021  0.00  0.00    +0.003 C 
ATOM     23  C   UNL     1      -2.676  -1.079  24.849  0.00  0.00    +0.006 C 
ATOM     24  C   UNL     1      -1.937  -0.995  25.206  0.00  0.00    +0.000 C 
ATOM     25  C   UNL     1      -2.390  -0.328  25.035  0.00  0.00    +0.052 C 
ATOM     30  S   UNL     1      -3.904   1.009  24.403  0.00  0.00    -0.054 S 
ENDROOT
BRANCH  15  17
ATOM     17  C   UNL     1      -4.203  -2.506  24.028  0.00  0.00    +0.184 C 
ATOM     18  O   UNL     1      -4.791  -2.323  23.478  0.00  0.00    -0.220 OA
ENDBRANCH  15  17
BRANCH   6   5
ATOM      5  C   UNL     1      -2.967   3.679  25.027  0.00  0.00    +0.087 C 
BRANCH   5   2
ATOM      1  C   UNL     1      -1.754   4.648  25.586  0.00  0.00    +0.000 C 
ATOM      2  C   UNL     1      -2.361   4.163  25.306  0.00  0.00    +0.009 C 
ATOM      3  C   UNL     1      -2.019   4.169  24.555  0.00  0.00    +0.000 C 
ATOM      4  C   UNL     1      -2.702   4.158  26.057  0.00  0.00    +0.000 C 
ENDBRANCH   5   2
ENDBRANCH   6   5
BRANCH  25  26
ATOM     26  C   UNL     1      -1.652  -0.244  25.392  0.00  0.00    +0.120 C 
BRANCH  26  27
ATOM     27  C   UNL     1      -0.965  -0.316  24.941  0.00  0.00    +0.365 C 
ATOM     28  O   UNL     1      -0.374  -0.842  25.173  0.00  0.00    -0.246 OA
ATOM     29  O   UNL     1      -0.869   0.139  24.259  0.00  0.00    -0.246 OA
ENDBRANCH  26  27
ENDBRANCH  25  26
TORSDOF 5
ENDMDL
MODEL 3
REMARK VINA RESULT:     -13.1      1.454      5.202
REMARK  Name = 
REMARK  5 active torsions:
REMARK  status: ('A' for Active; 'I' for Inactive)
REMARK    1  A    between atoms: C_2  and  C_5
REMARK    2  A    between atoms: C_5  and  C_6
REMARK    3  A    between atoms: C_15  and  C_17
REMARK    4  A    between atoms: C_25  and  C_26
REMARK    5  A    between atoms: C_26  and  C_27
REMARK                            x       y       z     vdW  Elec       q    Type
REMARK                         _______ _______ _______ _____ _____    ______ ____
ROOT
ATOM      6  C   UNL     1      -3.610  -0.509  24.582  0.00  0.00    +0.247 C 
ATOM      7  O   UNL     1      -2.849  -0.613  24.282  0.00  0.00    -0.273 OA
ATOM      8  N   UNL     1      -3.847   0.232  24.858  0.00  0.00    -0.154 NA
ATOM      9  C   UNL     1      -3.322   0.868  24.834  0.00  0.00    +0.185 A 
ATOM     10  N   UNL     1      -2.548   0.847  24.550  0.00  0.00    -0.227 NA
ATOM     11  C   UNL     1      -2.227   1.603  24.630  0.00  0.00    +0.063 A 
ATOM     12  C   UNL     1      -2.803   2.091  24.963  0.00  0.00    +0.023 A 
ATOM     13  C   UNL     1      -2.637   2.886  25.108  0.00  0.00    +0.034 C 
ATOM     14  C   UNL     1      -1.895   3.193  24.921  0.00  0.00    +0.010 C 
ATOM     15  C   UNL     1      -1.729   3.987  25.066  0.00  0.00    +0.059 C 
ATOM     16  C   UNL     1      -2.507   3.952  25.337  0.00  0.00    +0.005 C 
ATOM     19  C   UNL     1      -0.986   4.295  24.879  0.00  0.00    +0.154 C 
ATOM     20  O   UNL     1      -0.819   5.090  25.025  0.00  0.00    -0.223 OA
ATOM     21  C   UNL     1      -0.410   3.807  24.547  0.00  0.00    +0.033 C 
ATOM     22  C   UNL     1      -0.576   3.012  24.401  0.00  0.00    +0.003 C 
ATOM     23  C   UNL     1      -1.318   2.705  24.589  0.00  0.00    +0.006 C 
ATOM     24  C   UNL     1      -0.742   2.218  24.256  0.00  0.00    +0.000 C 
ATOM     25  C   UNL     1      -1.484   1.910  24.443  0.00  0.00    +0.052 C 
ATOM     30  S   UNL     1      -3.481   1.636  25.089  0.00  0.00    -0.054 S 
ENDROOT
BRANCH  15  17
ATOM     17  C   UNL     1      -1.833   4.770  25.306  0.00  0.00    +0.184 C 
ATOM     18  O   UNL     1      -2.489   4.979  25.760  0.00  0.00    -0.220 OA
ENDBRANCH  15  17
BRANCH   6   5
ATOM      5  C   UNL     1      -4.135  -1.145  24.606  0.00  0.00    +0.087 C 
BRANCH   5   2
ATOM      1  C   UNL     1      -3.595  -2.671  24.285  0.00  0.00    +0.000 C 
ATOM      2  C   UNL     1      -3.865  -1.908  24.446  0.00  0.00    +0.009 C 
ATOM      3  C   UNL     1      -3.565  -1.964  25.212  0.00  0.00    +0.000 C 
ATOM      4  C   UNL     1      -4.165  -1.853  23.679  0.00  0.00    +0.000 C 
ENDBRANCH   5   2
ENDBRANCH   6   5
BRANCH  25  26
ATOM     26  C   UNL     1      -0.908   1.423  24.111  0.00  0.00    +0.120 C 
BRANCH  26  27
ATOM     27  C   UNL     1      -0.446   0.941  24.595  0.00  0.00    +0.365 C 
ATOM     28  O   UNL     1      -0.163   0.221  24.307  0.00  0.00    -0.246 OA
ATOM     29  O   UNL     1      -0.268   1.177  25.365  0.00  0.00    -0.246 OA
ENDBRANCH  26  27
ENDBRANCH  25  26
TORSDOF 5
ENDMDL
MODEL 4
REMARK VINA RESULT:     -13.0      1.238      4.876
REMARK  Name = 
REMARK  5 active torsions:
REMARK  status: ('A' for Active; 'I' for Inactive)
REMARK    1  A    between atoms: C_2  and  C_5
REMARK    2  A    between atoms: C_5  and  C_6
REMARK    3  A    between atoms: C_15  and  C_17
REMARK    4  A    between atoms: C_25  and  C_26
REMARK    5  A    between atoms: C_26  and  C_27
REMARK                            x       y       z     vdW  Elec       q    Type
REMARK                         _______ _______ _______ _____ _____    ______ ____
ROOT
ATOM      6  C   UNL     1      -2.992  -0.695  24.466  0.00  0.00    +0.247 C 
ATOM      7  O   UNL     1      -3.709  -0.320  24.625  0.00  0.00    -0.273 OA
ATOM      8  N   UNL     1      -2.291  -0.258  24.454  0.00  0.00    -0.154 NA
ATOM      9  C   UNL     1      -2.309   0.553  24.600  0.00  0.00    +0.185 A 
ATOM     10  N   UNL     1      -2.981   1.001  24.767  0.00  0.00    -0.227 NA
ATOM     11  C   UNL     1      -2.745   1.784  24.876  0.00  0.00    +0.063 A 
ATOM     12  C   UNL     1      -1.926   1.819  24.776  0.00  0.00    +0.023 A 
ATOM     13  C   UNL     1      -1.533   2.540  24.854  0.00  0.00    +0.034 C 
ATOM     14  C   UNL     1      -1.956   3.225  25.031  0.00  0.00    +0.010 C 
ATOM     15  C   UNL     1      -1.562   3.945  25.108  0.00  0.00    +0.059 C 
ATOM     16  C   UNL     1      -0.925   3.451  24.938  0.00  0.00    +0.005 C 
ATOM     19  C   UNL     1      -1.986   4.631  25.285  0.00  0.00    +0.154 C 
ATOM     20  O   UNL     1      -1.592   5.352  25.362  0.00  0.00    -0.223 OA
ATOM     21  C   UNL     1      -2.804   4.596  25.384  0.00  0.00    +0.033 C 
ATOM     22  C   UNL     1      -3.199   3.875  25.306  0.00  0.00    +0.003 C 
ATOM     23  C   UNL     1      -2.775   3.190  25.130  0.00  0.00    +0.006 C 
ATOM     24  C   UNL     1      -3.593   3.155  25.229  0.00  0.00    +0.000 C 
ATOM     25  C   UNL     1      -3.169   2.470  25.052  0.00  0.00    +0.052 C 
ATOM     30  S   UNL     1      -1.657   1.058  24.606  0.00  0.00    -0.054 S 
ENDROOT
BRANCH  15  17
ATOM     17  C   UNL     1      -0.947   4.495  25.127  0.00  0.00    +0.184 C 
ATOM     18  O   UNL     1      -0.197   4.283  24.854  0.00  0.00    -0.220 OA
ENDBRANCH  15  17
BRANCH   6   5
ATOM      5  C   UNL     1      -2.975  -1.507  24.319  0.00  0.00    +0.087 C 
BRANCH   5   2
ATOM      1  C   UNL     1      -4.378  -2.375  24.318  0.00  0.00    +0.000 C 
ATOM      2  C   UNL     1      -3.676  -1.940  24.318  0.00  0.00    +0.009 C 
ATOM      3  C   UNL     1      -3.863  -1.638  23.574  0.00  0.00    +0.000 C 
ATOM      4  C   UNL     1      -3.490  -2.244  25.063  0.00  0.00    +0.000 C 
ENDBRANCH   5   2
ENDBRANCH   6   5
BRANCH  25  26
ATOM     26  C   UNL     1      -3.987   2.435  25.151  0.00  0.00    +0.120 C 
BRANCH  26  27
ATOM     27  C   UNL     1      -4.484   2.464  24.494  0.00  0.00    +0.365 C 
ATOM     28  O   UNL     1      -5.229   2.112  24.526  0.00  0.00    -0.246 OA
ATOM     29  O   UNL     1      -4.236   2.844  23.805  0.00  0.00    -0.246 OA
ENDBRANCH  26  27
ENDBRANCH  25  26
TORSDOF 5
ENDMDL
MODEL 5
REMARK VINA RESULT:     -12.1      1.906      4.983
REMARK  Name = 
REMARK  5 active torsions:
REMARK  status: ('A' for Active; 'I' for Inactive)
REMARK    1  A    between atoms: C_2  and  C_5
REMARK    2  A    between atoms: C_5  and  C_6
REMARK    3  A    between atoms: C_15  and  C_17
REMARK    4  A    between atoms: C_25  and  C_26
REMARK    5  A    between atoms: C_26  and  C_27
REMARK                            x       y       z     vdW  Elec       q    Type
REMARK                         _______ _______ _______ _____ _____    ______ ____
ROOT
ATOM      6  C   UNL     1      -3.584  -1.506  24.749  0.00  0.00    +0.247 C 
ATOM      7  O   UNL     1      -3.104  -1.183  24.161  0.00  0.00    -0.273 OA
ATOM      8  N   UNL     1      -4.081  -1.015  25.191  0.00  0.00    -0.154 NA
ATOM      9  C   UNL     1      -4.096  -0.204  25.044  0.00  0.00    +0.185 A 
ATOM     10  N   UNL     1      -3.649   0.194  24.476  0.00  0.00    -0.227 NA
ATOM     11  C   UNL     1      -3.838   0.996  24.520  0.00  0.00    +0.063 A 
ATOM     12  C   UNL     1      -4.402   1.093  25.114  0.00  0.00    +0.023 A 
ATOM     13  C   UNL     1      -4.697   1.845  25.284  0.00  0.00    +0.034 C 
ATOM     14  C   UNL     1      -4.429   2.499  24.859  0.00  0.00    +0.010 C 
ATOM     15  C   UNL     1      -4.724   3.250  25.029  0.00  0.00    +0.059 C 
ATOM     16  C   UNL     1      -5.146   2.803  25.579  0.00  0.00    +0.005 C 
ATOM     19  C   UNL     1      -4.456   3.905  24.605  0.00  0.00    +0.154 C 
ATOM     20  O   UNL     1      -4.751   4.657  24.774  0.00  0.00    -0.223 OA
ATOM     21  C   UNL     1      -3.892   3.808  24.010  0.00  0.00    +0.033 C 
ATOM     22  C   UNL     1      -3.596   3.056  23.840  0.00  0.00    +0.003 C 
ATOM     23  C   UNL     1      -3.865   2.402  24.265  0.00  0.00    +0.006 C 
ATOM     24  C   UNL     1      -3.301   2.305  23.670  0.00  0.00    +0.000 C 
ATOM     25  C   UNL     1      -3.569   1.651  24.095  0.00  0.00    +0.052 C 
ATOM     30  S   UNL     1      -4.561   0.351  25.438  0.00  0.00    -0.054 S 
ENDROOT
BRANCH  15  17
ATOM     17  C   UNL     1      -5.166   3.846  25.390  0.00  0.00    +0.184 C 
ATOM     18  O   UNL     1      -5.785   3.651  25.900  0.00  0.00    -0.220 OA
ENDBRANCH  15  17
BRANCH   6   5
ATOM      5  C   UNL     1      -3.569  -2.317  24.896  0.00  0.00    +0.087 C 
BRANCH   5   2
ATOM      1  C   UNL     1      -2.696  -3.317  23.915  0.00  0.00    +0.000 C 
ATOM      2  C   UNL     1      -3.133  -2.817  24.406  0.00  0.00    +0.009 C 
ATOM      3  C   UNL     1      -3.813  -2.985  23.971  0.00  0.00    +0.000 C 
ATOM      4  C   UNL     1      -2.452  -2.649  24.840  0.00  0.00    +0.000 C 
ENDBRANCH   5   2
ENDBRANCH   6   5
BRANCH  25  26
ATOM     26  C   UNL     1      -3.006   1.554  23.501  0.00  0.00    +0.120 C 
BRANCH  26  27
ATOM     27  C   UNL     1      -2.215   1.737  23.648  0.00  0.00    +0.365 C 
ATOM     28  O   UNL     1      -1.782   2.165  23.092  0.00  0.00    -0.246 OA
ATOM     29  O   UNL     1      -1.858   1.491  24.350  0.00  0.00    -0.246 OA
ENDBRANCH  26  27
ENDBRANCH  25  26
TORSDOF 5
ENDMDL
MODEL 6
REMARK VINA RESULT:     -11.4      1.865      3.877
REMARK  Name = 
REMARK  5 active torsions:
REMARK  status: ('A' for Active; 'I' for Inactive)
REMARK    1  A    between atoms: C_2  and  C_5
REMARK    2  A    between atoms: C_5  and  C_6
REMARK    3  A    between atoms: C_15  and  C_17
REMARK    4  A    between atoms: C_25  and  C_26
REMARK    5  A    between atoms: C_26  and  C_27
REMARK                            x       y       z     vdW  Elec       q    Type
REMARK                         _______ _______ _______ _____ _____    ______ ____
ROOT
ATOM      6  C   UNL     1      -0.670   0.582  24.273  0.00  0.00    +0.247 C 
ATOM      7  O   UNL     1      -1.205  -0.024  24.109  0.00  0.00    -0.273 OA
ATOM      8  N   UNL     1      -0.945   1.314  24.537  0.00  0.00    -0.154 NA
ATOM      9  C   UNL     1      -1.754   1.440  24.636  0.00  0.00    +0.185 A 
ATOM     10  N   UNL     1      -2.350   0.888  24.494  0.00  0.00    -0.227 NA
ATOM     11  C   UNL     1      -3.074   1.246  24.664  0.00  0.00    +0.063 A 
ATOM     12  C   UNL     1      -2.924   2.019  24.912  0.00  0.00    +0.023 A 
ATOM     13  C   UNL     1      -3.550   2.514  25.121  0.00  0.00    +0.034 C 
ATOM     14  C   UNL     1      -4.326   2.237  25.083  0.00  0.00    +0.010 C 
ATOM     15  C   UNL     1      -4.951   2.731  25.292  0.00  0.00    +0.059 C 
ATOM     16  C   UNL     1      -4.316   3.242  25.418  0.00  0.00    +0.005 C 
ATOM     19  C   UNL     1      -5.728   2.454  25.254  0.00  0.00    +0.154 C 
ATOM     20  O   UNL     1      -6.354   2.949  25.464  0.00  0.00    -0.223 OA
ATOM     21  C   UNL     1      -5.878   1.682  25.007  0.00  0.00    +0.033 C 
ATOM     22  C   UNL     1      -5.252   1.186  24.798  0.00  0.00    +0.003 C 
ATOM     23  C   UNL     1      -4.476   1.464  24.836  0.00  0.00    +0.006 C 
ATOM     24  C   UNL     1      -4.626   0.691  24.588  0.00  0.00    +0.000 C 
ATOM     25  C   UNL     1      -3.851   0.968  24.626  0.00  0.00    +0.052 C 
ATOM     30  S   UNL     1      -2.107   2.138  24.894  0.00  0.00    -0.054 S 
ENDROOT
BRANCH  15  17
ATOM     17  C   UNL     1      -5.357   3.404  25.545  0.00  0.00    +0.184 C 
ATOM     18  O   UNL     1      -4.951   4.115  25.654  0.00  0.00    -0.220 OA
ENDBRANCH  15  17
BRANCH   6   5
ATOM      5  C   UNL     1       0.140   0.456  24.174  0.00  0.00    +0.087 C 
BRANCH   5   2
ATOM      1  C   UNL     1       0.685  -0.453  22.909  0.00  0.00    +0.000 C 
ATOM      2  C   UNL     1       0.412   0.002  23.542  0.00  0.00    +0.009 C 
ATOM      3  C   UNL     1       0.624   0.689  23.138  0.00  0.00    +0.000 C 
ATOM      4  C   UNL     1       0.201  -0.686  23.945  0.00  0.00    +0.000 C 
ENDBRANCH   5   2
ENDBRANCH   6   5
BRANCH  25  26
ATOM     26  C   UNL     1      -4.001   0.197  24.379  0.00  0.00    +0.120 C 
BRANCH  26  27
ATOM     27  C   UNL     1      -3.973  -0.423  24.922  0.00  0.00    +0.365 C 
ATOM     28  O   UNL     1      -3.865  -1.197  24.658  0.00  0.00    -0.246 OA
ATOM     29  O   UNL     1      -4.053  -0.270  25.729  0.00  0.00    -0.246 OA
ENDBRANCH  26  27
ENDBRANCH  25  26
TORSDOF 5
ENDMDL
MODEL 7
REMARK VINA RESULT:     -11.3      1.946      3.243
REMARK  Name = 
REMARK  5 active torsions:
REMARK  status: ('A' for Active; 'I' for Inactive)
REMARK    1  A    between atoms: C_2  and  C_5
REMARK    2  A    between atoms: C_5  and  C_6
REMARK    3  A    between atoms: C_15  and  C_17
REMARK    4  A    between atoms: C_25  and  C_26
REMARK    5  A    between atoms: C_26  and  C_27
REMARK                            x       y       z     vdW  Elec       q    Type
REMARK                         _______ _______ _______ _____ _____    ______ ____
ROOT
ATOM      6  C   UNL     1      -4.724   1.905  24.859  0.00  0.00    +0.247 C 
ATOM      7  O   UNL     1      -4.874   1.199  25.258  0.00  0.00    -0.273 OA
ATOM      8  N   UNL     1      -3.990   2.029  24.501  0.00  0.00    -0.154 NA
ATOM      9  C   UNL     1      -3.407   1.447  24.542  0.00  0.00    +0.185 A 
ATOM     10  N   UNL     1      -3.478   0.717  24.921  0.00  0.00    -0.227 NA
ATOM     11  C   UNL     1      -2.766   0.312  24.825  0.00  0.00    +0.063 A 
ATOM     12  C   UNL     1      -2.256   0.791  24.388  0.00  0.00    +0.023 A 
ATOM     13  C   UNL     1      -1.496   0.526  24.206  0.00  0.00    +0.034 C 
ATOM     14  C   UNL     1      -1.246  -0.218  24.461  0.00  0.00    +0.010 C 
ATOM     15  C   UNL     1      -0.487  -0.482  24.278  0.00  0.00    +0.059 C 
ATOM     16  C   UNL     1      -0.471   0.259  23.917  0.00  0.00    +0.005 C 
ATOM     19  C   UNL     1      -0.236  -1.226  24.533  0.00  0.00    +0.154 C 
ATOM     20  O   UNL     1       0.524  -1.491  24.351  0.00  0.00    -0.223 OA
ATOM     21  C   UNL     1      -0.746  -1.705  24.970  0.00  0.00    +0.033 C 
ATOM     22  C   UNL     1      -1.507  -1.441  25.152  0.00  0.00    +0.003 C 
ATOM     23  C   UNL     1      -1.756  -0.697  24.898  0.00  0.00    +0.006 C 
ATOM     24  C   UNL     1      -2.266  -1.176  25.335  0.00  0.00    +0.000 C 
ATOM     25  C   UNL     1      -2.516  -0.433  25.080  0.00  0.00    +0.052 C 
ATOM     30  S   UNL     1      -2.653   1.493  24.214  0.00  0.00    -0.054 S 
ENDROOT
BRANCH  15  17
ATOM     17  C   UNL     1       0.279  -0.490  23.970  0.00  0.00    +0.184 C 
ATOM     18  O   UNL     1       0.507   0.080  23.418  0.00  0.00    -0.220 OA
ENDBRANCH  15  17
BRANCH   6   5
ATOM      5  C   UNL     1      -5.307   2.487  24.817  0.00  0.00    +0.087 C 
BRANCH   5   2
ATOM      1  C   UNL     1      -6.374   2.677  26.062  0.00  0.00    +0.000 C 
ATOM      2  C   UNL     1      -5.840   2.582  25.439  0.00  0.00    +0.009 C 
ATOM      3  C   UNL     1      -5.385   3.203  25.735  0.00  0.00    +0.000 C 
ATOM      4  C   UNL     1      -6.296   1.961  25.144  0.00  0.00    +0.000 C 
ENDBRANCH   5   2
ENDBRANCH   6   5
BRANCH  25  26
ATOM     26  C   UNL     1      -3.025  -0.912  25.517  0.00  0.00    +0.120 C 
BRANCH  26  27
ATOM     27  C   UNL     1      -3.428  -1.530  25.148  0.00  0.00    +0.365 C 
ATOM     28  O   UNL     1      -3.485  -2.264  25.520  0.00  0.00    -0.246 OA
ATOM     29  O   UNL     1      -3.775  -1.413  24.409  0.00  0.00    -0.246 OA
ENDBRANCH  26  27
ENDBRANCH  25  26
TORSDOF 5
ENDMDL
MODEL 8
REMARK VINA RESULT:     -10.9      2.177      4.228
REMARK  Name = 
REMARK  5 active torsions:
REMARK  status: ('A' for Active; 'I' for Inactive)
REMARK    1  A    between atoms: C_2  and  C_5
REMARK    2  A    between atoms: C_5  and  C_6
REMARK    3  A    between atoms: C_15  and  C_17
REMARK    4  A    between atoms: C_25  and  C_26
REMARK    5  A    between atoms: C_26  and  C_27
REMARK                            x       y       z     vdW  Elec       q    Type
REMARK                         _______ _______ _______ _____ _____    ______ ____
ROOT
ATOM      6  C   UNL     1      -0.717   0.445  24.083  0.00  0.00    +0.247 C 
ATOM      7  O   UNL     1      -0.493   1.237  24.133  0.00  0.00    -0.273 OA
ATOM      8  N   UNL     1      -1.500   0.228  24.231  0.00  0.00    -0.154 NA
ATOM      9  C   UNL     1      -2.058   0.804  24.428  0.00  0.00    +0.185 A 
ATOM     10  N   UNL     1      -1.914   1.613  24.498  0.00  0.00    -0.227 NA
ATOM     11  C   UNL     1      -2.624   1.981  24.702  0.00  0.00    +0.063 A 
ATOM     12  C   UNL     1      -3.205   1.399  24.759  0.00  0.00    +0.023 A 
ATOM     13  C   UNL     1      -3.979   1.607  24.958  0.00  0.00    +0.034 C 
ATOM     14  C   UNL     1      -4.170   2.396  25.100  0.00  0.00    +0.010 C 
ATOM     15  C   UNL     1      -4.943   2.603  25.299  0.00  0.00    +0.059 C 
ATOM     16  C   UNL     1      -5.031   1.787  25.216  0.00  0.00    +0.005 C 
ATOM     19  C   UNL     1      -5.136   3.393  25.441  0.00  0.00    +0.154 C 
ATOM     20  O   UNL     1      -5.909   3.601  25.640  0.00  0.00    -0.223 OA
ATOM     21  C   UNL     1      -4.554   3.975  25.384  0.00  0.00    +0.033 C 
ATOM     22  C   UNL     1      -3.780   3.768  25.185  0.00  0.00    +0.003 C 
ATOM     23  C   UNL     1      -3.589   2.978  25.043  0.00  0.00    +0.006 C 
ATOM     24  C   UNL     1      -3.007   3.560  24.987  0.00  0.00    +0.000 C 
ATOM     25  C   UNL     1      -2.815   2.771  24.845  0.00  0.00    +0.052 C 
ATOM     30  S   UNL     1      -2.855   0.671  24.589  0.00  0.00    -0.054 S 
ENDROOT
BRANCH  15  17
ATOM     17  C   UNL     1      -5.747   2.527  25.469  0.00  0.00    +0.184 C 
ATOM     18  O   UNL     1      -6.132   1.809  25.335  0.00  0.00    -0.220 OA
ENDBRANCH  15  17
BRANCH   6   5
ATOM      5  C   UNL     1      -0.160  -0.130  23.887  0.00  0.00    +0.087 C 
BRANCH   5   2
ATOM      1  C   UNL     1       1.111   0.253  22.906  0.00  0.00    +0.000 C 
ATOM      2  C   UNL     1       0.475   0.061  23.397  0.00  0.00    +0.009 C 
ATOM      3  C   UNL     1       0.123  -0.355  22.777  0.00  0.00    +0.000 C 
ATOM      4  C   UNL     1       0.827   0.478  24.015  0.00  0.00    +0.000 C 
ENDBRANCH   5   2
ENDBRANCH   6   5
BRANCH  25  26
ATOM     26  C   UNL     1      -2.235   3.353  24.788  0.00  0.00    +0.120 C 
BRANCH  26  27
ATOM     27  C   UNL     1      -1.892   3.663  25.471  0.00  0.00    +0.365 C 
ATOM     28  O   UNL     1      -1.630   3.155  26.066  0.00  0.00    -0.246 OA
ATOM     29  O   UNL     1      -1.813   4.479  25.560  0.00  0.00    -0.246 OA
ENDBRANCH  26  27
ENDBRANCH  25  26
TORSDOF 5
ENDMDL
