MODEL 1
REMARK VINA RESULT:     -10.1      0.000      0.000
REMARK  Name = 
REMARK  7 active torsions:
REMARK  status: ('A' for Active; 'I' for Inactive)
REMARK    1  A    between atoms: C_4  and  C_30
REMARK    2  A    between atoms: C_6  and  C_7
REMARK    3  A    between atoms: C_14  and  C_15
REMARK    4  A    between atoms: C_15  and  O_16
REMARK    5  A    between atoms: O_16  and  C_17
REMARK    6  A    between atoms: N_19  and  C_20
REMARK    7  A    between atoms: C_22  and  C_26
REMARK                            x       y       z     vdW  Elec       q    Type
REMARK                         _______ _______ _______ _____ _____    ______ ____
ROOT
ATOM      7  C   UNL     1      -1.748   1.642  23.914  0.00  0.00    +0.056 C 
ATOM      8  C   UNL     1      -1.236   2.210  23.771  0.00  0.00    +0.078 C 
ATOM      9  N   UNL     1      -1.056   1.420  23.927  0.00  0.00    -0.270 NA
ATOM     10  C   UNL     1      -1.965   0.919  24.075  0.00  0.00    +0.072 C 
ATOM     11  C   UNL     1      -2.297   0.371  24.205  0.00  0.00    +0.018 C 
ATOM     12  C   UNL     1      -1.563   0.868  24.066  0.00  0.00    +0.010 C 
ATOM     13  C   UNL     1      -0.796   0.445  24.117  0.00  0.00    +0.020 C 
ATOM     14  C   UNL     1      -0.261   0.974  23.981  0.00  0.00    +0.102 C 
ENDROOT
BRANCH   7   6
ATOM      1  C   UNL     1      -2.714   2.105  22.473  0.00  0.00    +0.153 C 
ATOM      2  N   UNL     1      -2.992   2.058  23.249  0.00  0.00    -0.253 N 
ATOM      3  N   UNL     1      -3.762   2.215  23.498  0.00  0.00    -0.169 NA
ATOM      4  C   UNL     1      -3.795   2.099  24.314  0.00  0.00    +0.108 A 
ATOM      5  C   UNL     1      -3.045   1.871  24.569  0.00  0.00    +0.036 A 
ATOM      6  C   UNL     1      -2.548   1.845  23.911  0.00  0.00    +0.058 A 
BRANCH   4  30
ATOM     30  C   UNL     1      -4.461   2.195  24.791  0.00  0.00    +0.049 A 
ATOM     31  C   UNL     1      -5.079   1.656  24.876  0.00  0.00    +0.009 A 
ATOM     32  C   UNL     1      -5.626   1.976  25.404  0.00  0.00    +0.008 A 
ATOM     33  C   UNL     1      -5.346   2.713  25.646  0.00  0.00    +0.035 A 
ATOM     34  S   UNL     1      -4.626   2.849  25.268  0.00  0.00    -0.085 S 
ENDBRANCH   4  30
ENDBRANCH   7   6
BRANCH  14  15
ATOM     15  C   UNL     1       0.554   1.078  23.920  0.00  0.00    +0.226 C 
BRANCH  15  16
ATOM     16  O   UNL     1       0.993   0.609  23.402  0.00  0.00    -0.432 OA
BRANCH  16  17
ATOM     17  C   UNL     1       1.807   0.721  23.335  0.00  0.00    +0.425 C 
ATOM     18  O   UNL     1       2.153   1.419  23.607  0.00  0.00    -0.224 OA
ATOM     19  N   UNL     1       2.277   0.134  22.996  0.00  0.00    -0.142 NA
BRANCH  19  20
ATOM     20  C   UNL     1       3.092   0.244  22.929  0.00  0.00    +0.077 A 
ATOM     21  C   UNL     1       3.606  -0.154  23.438  0.00  0.00    +0.021 A 
ATOM     22  C   UNL     1       4.421  -0.043  23.371  0.00  0.00    +0.073 A 
ATOM     23  C   UNL     1       4.721   0.466  22.795  0.00  0.00    +0.004 A 
ATOM     24  C   UNL     1       4.208   0.864  22.287  0.00  0.00    +0.001 A 
ATOM     25  C   UNL     1       3.394   0.753  22.354  0.00  0.00    +0.017 A 
BRANCH  22  26
ATOM     26  C   UNL     1       4.934  -0.441  23.879  0.00  0.00    +0.419 C 
ATOM     27  F   UNL     1       5.448  -0.840  24.388  0.00  0.00    -0.166 F 
ATOM     28  F   UNL     1       4.653  -1.163  23.598  0.00  0.00    -0.166 F 
ATOM     29  F   UNL     1       5.216   0.282  24.161  0.00  0.00    -0.166 F 
ENDBRANCH  22  26
ENDBRANCH  19  20
ENDBRANCH  16  17
ENDBRANCH  15  16
ENDBRANCH  14  15
TORSDOF 7
ENDMDL
MODEL 2
REMARK VINA RESULT:      -9.9      4.544      5.642
REMARK  Name = 
REMARK  7 active torsions:
REMARK  status: ('A' for Active; 'I' for Inactive)
REMARK    1  A    between atoms: C_4  and  C_30
REMARK    2  A    between atoms: C_6  and  C_7
REMARK    3  A    between atoms: C_14  and  C_15
REMARK    4  A    between atoms: C_15  and  O_16
REMARK    5  A    between atoms: O_16  and  C_17
REMARK    6  A    between atoms: N_19  and  C_20
REMARK    7  A    between atoms: C_22  and  C_26
REMARK                            x       y       z     vdW  Elec       q    Type
REMARK                         _______ _______ _______ _____ _____    ______ ____
ROOT
ATOM      7  C   UNL     1      -3.580   2.776  25.236  0.00  0.00    +0.056 C 
ATOM      8  C   UNL     1      -3.486   2.156  25.697  0.00  0.00    +0.078 C 
ATOM      9  N   UNL     1      -4.009   2.216  25.061  0.00  0.00    -0.270 NA
ATOM     10  C   UNL     1      -3.891   3.174  24.652  0.00  0.00    +0.072 C 
ATOM     11  C   UNL     1      -4.052   3.626  24.208  0.00  0.00    +0.018 C 
ATOM     12  C   UNL     1      -4.096   2.827  24.614  0.00  0.00    +0.010 C 
ATOM     13  C   UNL     1      -4.671   2.255  24.278  0.00  0.00    +0.020 C 
ATOM     14  C   UNL     1      -4.610   1.627  24.707  0.00  0.00    +0.102 C 
ENDROOT
BRANCH   7   6
ATOM      1  C   UNL     1      -3.838   3.956  26.564  0.00  0.00    +0.153 C 
ATOM      2  N   UNL     1      -3.232   3.981  26.005  0.00  0.00    -0.253 N 
ATOM      3  N   UNL     1      -2.638   4.552  25.957  0.00  0.00    -0.169 NA
ATOM      4  C   UNL     1      -2.153   4.363  25.317  0.00  0.00    +0.108 A 
ATOM      5  C   UNL     1      -2.447   3.675  24.969  0.00  0.00    +0.036 A 
ATOM      6  C   UNL     1      -3.113   3.439  25.394  0.00  0.00    +0.058 A 
BRANCH   4  30
ATOM     30  C   UNL     1      -1.491   4.788  25.069  0.00  0.00    +0.049 A 
ATOM     31  C   UNL     1      -1.452   5.604  24.958  0.00  0.00    +0.009 A 
ATOM     32  C   UNL     1      -0.688   5.791  24.709  0.00  0.00    +0.008 A 
ATOM     33  C   UNL     1      -0.255   5.090  24.667  0.00  0.00    +0.035 A 
ATOM     34  S   UNL     1      -0.751   4.470  24.889  0.00  0.00    -0.085 S 
ENDBRANCH   4  30
ENDBRANCH   7   6
BRANCH  14  15
ATOM     15  C   UNL     1      -4.910   0.864  24.797  0.00  0.00    +0.226 C 
BRANCH  15  16
ATOM     16  O   UNL     1      -4.790   0.301  24.206  0.00  0.00    -0.432 OA
BRANCH  16  17
ATOM     17  C   UNL     1      -4.489  -0.442  24.401  0.00  0.00    +0.425 C 
ATOM     18  O   UNL     1      -4.658  -0.777  25.135  0.00  0.00    -0.224 OA
ATOM     19  N   UNL     1      -4.019  -0.850  23.859  0.00  0.00    -0.142 NA
BRANCH  19  20
ATOM     20  C   UNL     1      -3.717  -1.593  24.053  0.00  0.00    +0.077 A 
ATOM     21  C   UNL     1      -2.929  -1.672  24.281  0.00  0.00    +0.021 A 
ATOM     22  C   UNL     1      -2.627  -2.415  24.475  0.00  0.00    +0.073 A 
ATOM     23  C   UNL     1      -3.115  -3.080  24.440  0.00  0.00    +0.004 A 
ATOM     24  C   UNL     1      -3.904  -3.001  24.211  0.00  0.00    +0.001 A 
ATOM     25  C   UNL     1      -4.205  -2.258  24.018  0.00  0.00    +0.017 A 
BRANCH  22  26
ATOM     26  C   UNL     1      -1.838  -2.494  24.704  0.00  0.00    +0.419 C 
ATOM     27  F   UNL     1      -1.049  -2.572  24.933  0.00  0.00    -0.166 F 
ATOM     28  F   UNL     1      -2.037  -2.260  25.469  0.00  0.00    -0.166 F 
ATOM     29  F   UNL     1      -1.640  -2.728  23.938  0.00  0.00    -0.166 F 
ENDBRANCH  22  26
ENDBRANCH  19  20
ENDBRANCH  16  17
ENDBRANCH  15  16
ENDBRANCH  14  15
TORSDOF 7
ENDMDL
MODEL 3
REMARK VINA RESULT:      -9.6      4.093      5.547
REMARK  Name = 
REMARK  7 active torsions:
REMARK  status: ('A' for Active; 'I' for Inactive)
REMARK    1  A    between atoms: C_4  and  C_30
REMARK    2  A    between atoms: C_6  and  C_7
REMARK    3  A    between atoms: C_14  and  C_15
REMARK    4  A    between atoms: C_15  and  O_16
REMARK    5  A    between atoms: O_16  and  C_17
REMARK    6  A    between atoms: N_19  and  C_20
REMARK    7  A    between atoms: C_22  and  C_26
REMARK                            x       y       z     vdW  Elec       q    Type
REMARK                         _______ _______ _______ _____ _____    ______ ____
ROOT
ATOM      7  C   UNL     1      -0.915  -0.287  24.834  0.00  0.00    +0.056 C 
ATOM      8  C   UNL     1      -0.963   0.178  25.456  0.00  0.00    +0.078 C 
ATOM      9  N   UNL     1      -0.500   0.308  24.785  0.00  0.00    -0.270 NA
ATOM     10  C   UNL     1      -0.661  -0.501  24.137  0.00  0.00    +0.072 C 
ATOM     11  C   UNL     1      -0.543  -0.808  23.573  0.00  0.00    +0.018 C 
ATOM     12  C   UNL     1      -0.458  -0.153  24.179  0.00  0.00    +0.010 C 
ATOM     13  C   UNL     1       0.087   0.501  23.967  0.00  0.00    +0.020 C 
ATOM     14  C   UNL     1       0.069   0.984  24.558  0.00  0.00    +0.102 C 
ENDROOT
BRANCH   7   6
ATOM      1  C   UNL     1      -0.457  -1.844  25.602  0.00  0.00    +0.153 C 
ATOM      2  N   UNL     1      -1.158  -1.692  25.195  0.00  0.00    -0.253 N 
ATOM      3  N   UNL     1      -1.772  -2.229  25.069  0.00  0.00    -0.169 NA
ATOM      4  C   UNL     1      -2.362  -1.845  24.639  0.00  0.00    +0.108 A 
ATOM      5  C   UNL     1      -2.113  -1.072  24.499  0.00  0.00    +0.036 A 
ATOM      6  C   UNL     1      -1.369  -0.977  24.842  0.00  0.00    +0.058 A 
BRANCH   4  30
ATOM     30  C   UNL     1      -3.076  -2.178  24.393  0.00  0.00    +0.049 A 
ATOM     31  C   UNL     1      -3.756  -1.763  24.179  0.00  0.00    +0.009 A 
ATOM     32  C   UNL     1      -4.335  -2.313  23.971  0.00  0.00    +0.008 A 
ATOM     33  C   UNL     1      -4.012  -3.067  24.057  0.00  0.00    +0.035 A 
ATOM     34  S   UNL     1      -3.234  -2.984  24.317  0.00  0.00    -0.085 S 
ENDBRANCH   4  30
ENDBRANCH   7   6
BRANCH  14  15
ATOM     15  C   UNL     1       0.380   1.697  24.830  0.00  0.00    +0.226 C 
BRANCH  15  16
ATOM     16  O   UNL     1       0.234   2.396  24.416  0.00  0.00    -0.432 OA
BRANCH  16  17
ATOM     17  C   UNL     1      -0.177   3.011  24.781  0.00  0.00    +0.425 C 
ATOM     18  O   UNL     1       0.045   3.267  25.533  0.00  0.00    -0.224 OA
ATOM     19  N   UNL     1      -0.810   3.371  24.393  0.00  0.00    -0.142 NA
BRANCH  19  20
ATOM     20  C   UNL     1      -1.221   3.987  24.757  0.00  0.00    +0.077 A 
ATOM     21  C   UNL     1      -1.947   3.840  25.120  0.00  0.00    +0.021 A 
ATOM     22  C   UNL     1      -2.358   4.456  25.484  0.00  0.00    +0.073 A 
ATOM     23  C   UNL     1      -2.043   5.218  25.484  0.00  0.00    +0.004 A 
ATOM     24  C   UNL     1      -1.317   5.365  25.122  0.00  0.00    +0.001 A 
ATOM     25  C   UNL     1      -0.906   4.750  24.758  0.00  0.00    +0.017 A 
BRANCH  22  26
ATOM     26  C   UNL     1      -3.085   4.309  25.847  0.00  0.00    +0.419 C 
ATOM     27  F   UNL     1      -3.811   4.163  26.210  0.00  0.00    -0.166 F 
ATOM     28  F   UNL     1      -2.734   4.405  26.587  0.00  0.00    -0.166 F 
ATOM     29  F   UNL     1      -3.435   4.213  25.106  0.00  0.00    -0.166 F 
ENDBRANCH  22  26
ENDBRANCH  19  20
ENDBRANCH  16  17
ENDBRANCH  15  16
ENDBRANCH  14  15
TORSDOF 7
ENDMDL
MODEL 4
REMARK VINA RESULT:      -9.6      0.775      1.083
REMARK  Name = 
REMARK  7 active torsions:
REMARK  status: ('A' for Active; 'I' for Inactive)
REMARK    1  A    between atoms: C_4  and  C_30
REMARK    2  A    between atoms: C_6  and  C_7
REMARK    3  A    between atoms: C_14  and  C_15
REMARK    4  A    between atoms: C_15  and  O_16
REMARK    5  A    between atoms: O_16  and  C_17
REMARK    6  A    between atoms: N_19  and  C_20
REMARK    7  A    between atoms: C_22  and  C_26
REMARK                            x       y       z     vdW  Elec       q    Type
REMARK                         _______ _______ _______ _____ _____    ______ ____
ROOT
ATOM      7  C   UNL     1      -1.832   0.886  24.429  0.00  0.00    +0.056 C 
ATOM      8  C   UNL     1      -1.343   0.601  24.963  0.00  0.00    +0.078 C 
ATOM      9  N   UNL     1      -1.138   0.877  24.213  0.00  0.00    -0.270 NA
ATOM     10  C   UNL     1      -2.022   1.190  23.745  0.00  0.00    +0.072 C 
ATOM     11  C   UNL     1      -2.333   1.442  23.229  0.00  0.00    +0.018 C 
ATOM     12  C   UNL     1      -1.622   1.155  23.694  0.00  0.00    +0.010 C 
ATOM     13  C   UNL     1      -0.847   1.211  23.287  0.00  0.00    +0.020 C 
ATOM     14  C   UNL     1      -0.334   0.939  23.784  0.00  0.00    +0.102 C 
ENDROOT
BRANCH   7   6
ATOM      1  C   UNL     1      -2.896  -0.524  24.748  0.00  0.00    +0.153 C 
ATOM      2  N   UNL     1      -3.121   0.269  24.774  0.00  0.00    -0.253 N 
ATOM      3  N   UNL     1      -3.875   0.554  24.951  0.00  0.00    -0.169 NA
ATOM      4  C   UNL     1      -3.852   1.377  24.914  0.00  0.00    +0.108 A 
ATOM      5  C   UNL     1      -3.084   1.602  24.714  0.00  0.00    +0.036 A 
ATOM      6  C   UNL     1      -2.633   0.917  24.627  0.00  0.00    +0.058 A 
BRANCH   4  30
ATOM     30  C   UNL     1      -4.486   1.886  25.053  0.00  0.00    +0.049 A 
ATOM     31  C   UNL     1      -4.433   2.671  25.303  0.00  0.00    +0.009 A 
ATOM     32  C   UNL     1      -5.199   2.969  25.370  0.00  0.00    +0.008 A 
ATOM     33  C   UNL     1      -5.726   2.369  25.162  0.00  0.00    +0.035 A 
ATOM     34  S   UNL     1      -5.286   1.700  24.966  0.00  0.00    -0.085 S 
ENDBRANCH   4  30
ENDBRANCH   7   6
BRANCH  14  15
ATOM     15  C   UNL     1       0.471   0.789  23.877  0.00  0.00    +0.226 C 
BRANCH  15  16
ATOM     16  O   UNL     1       0.933   0.591  23.223  0.00  0.00    -0.432 OA
BRANCH  16  17
ATOM     17  C   UNL     1       1.750   0.694  23.249  0.00  0.00    +0.425 C 
ATOM     18  O   UNL     1       2.073   1.337  23.654  0.00  0.00    -0.224 OA
ATOM     19  N   UNL     1       2.246   0.154  22.871  0.00  0.00    -0.142 NA
BRANCH  19  20
ATOM     20  C   UNL     1       3.065   0.257  22.897  0.00  0.00    +0.077 A 
ATOM     21  C   UNL     1       3.528  -0.242  23.364  0.00  0.00    +0.021 A 
ATOM     22  C   UNL     1       4.347  -0.139  23.390  0.00  0.00    +0.073 A 
ATOM     23  C   UNL     1       4.701   0.462  22.950  0.00  0.00    +0.004 A 
ATOM     24  C   UNL     1       4.237   0.961  22.483  0.00  0.00    +0.001 A 
ATOM     25  C   UNL     1       3.420   0.858  22.457  0.00  0.00    +0.017 A 
BRANCH  22  26
ATOM     26  C   UNL     1       4.810  -0.637  23.856  0.00  0.00    +0.419 C 
ATOM     27  F   UNL     1       5.273  -1.137  24.322  0.00  0.00    -0.166 F 
ATOM     28  F   UNL     1       4.438  -1.294  23.524  0.00  0.00    -0.166 F 
ATOM     29  F   UNL     1       5.183   0.020  24.188  0.00  0.00    -0.166 F 
ENDBRANCH  22  26
ENDBRANCH  19  20
ENDBRANCH  16  17
ENDBRANCH  15  16
ENDBRANCH  14  15
TORSDOF 7
ENDMDL
MODEL 5
REMARK VINA RESULT:      -8.9      2.009      2.530
REMARK  Name = 
REMARK  7 active torsions:
REMARK  status: ('A' for Active; 'I' for Inactive)
REMARK    1  A    between atoms: C_4  and  C_30
REMARK    2  A    between atoms: C_6  and  C_7
REMARK    3  A    between atoms: C_14  and  C_15
REMARK    4  A    between atoms: C_15  and  O_16
REMARK    5  A    between atoms: O_16  and  C_17
REMARK    6  A    between atoms: N_19  and  C_20
REMARK    7  A    between atoms: C_22  and  C_26
REMARK                            x       y       z     vdW  Elec       q    Type
REMARK                         _______ _______ _______ _____ _____    ______ ____
ROOT
ATOM      7  C   UNL     1      -0.989  -0.166  24.486  0.00  0.00    +0.056 C 
ATOM      8  C   UNL     1      -0.297  -0.456  24.693  0.00  0.00    +0.078 C 
ATOM      9  N   UNL     1      -0.427   0.236  24.263  0.00  0.00    -0.270 NA
ATOM     10  C   UNL     1      -1.464   0.343  24.154  0.00  0.00    +0.072 C 
ATOM     11  C   UNL     1      -1.980   0.675  23.929  0.00  0.00    +0.018 C 
ATOM     12  C   UNL     1      -1.108   0.514  24.064  0.00  0.00    +0.010 C 
ATOM     13  C   UNL     1      -0.551   1.102  23.727  0.00  0.00    +0.020 C 
ATOM     14  C   UNL     1       0.147   0.852  23.909  0.00  0.00    +0.102 C 
ENDROOT
BRANCH   7   6
ATOM      1  C   UNL     1      -1.610  -0.327  26.164  0.00  0.00    +0.153 C 
ATOM      2  N   UNL     1      -1.945  -0.663  25.488  0.00  0.00    -0.253 N 
ATOM      3  N   UNL     1      -2.624  -1.131  25.465  0.00  0.00    -0.169 NA
ATOM      4  C   UNL     1      -2.758  -1.347  24.680  0.00  0.00    +0.108 A 
ATOM      5  C   UNL     1      -2.162  -1.012  24.218  0.00  0.00    +0.036 A 
ATOM      6  C   UNL     1      -1.660  -0.589  24.718  0.00  0.00    +0.058 A 
BRANCH   4  30
ATOM     30  C   UNL     1      -3.379  -1.815  24.406  0.00  0.00    +0.049 A 
ATOM     31  C   UNL     1      -4.105  -1.542  24.125  0.00  0.00    +0.009 A 
ATOM     32  C   UNL     1      -4.558  -2.197  23.910  0.00  0.00    +0.008 A 
ATOM     33  C   UNL     1      -4.112  -2.875  24.058  0.00  0.00    +0.035 A 
ATOM     34  S   UNL     1      -3.383  -2.639  24.365  0.00  0.00    -0.085 S 
ENDBRANCH   4  30
ENDBRANCH   7   6
BRANCH  14  15
ATOM     15  C   UNL     1       0.948   1.032  23.832  0.00  0.00    +0.226 C 
BRANCH  15  16
ATOM     16  O   UNL     1       1.386   0.709  23.212  0.00  0.00    -0.432 OA
BRANCH  16  17
ATOM     17  C   UNL     1       2.208   0.780  23.208  0.00  0.00    +0.425 C 
ATOM     18  O   UNL     1       2.563   1.486  23.442  0.00  0.00    -0.224 OA
ATOM     19  N   UNL     1       2.675   0.142  22.971  0.00  0.00    -0.142 NA
BRANCH  19  20
ATOM     20  C   UNL     1       3.497   0.212  22.967  0.00  0.00    +0.077 A 
ATOM     21  C   UNL     1       3.946  -0.163  23.549  0.00  0.00    +0.021 A 
ATOM     22  C   UNL     1       4.768  -0.093  23.545  0.00  0.00    +0.073 A 
ATOM     23  C   UNL     1       5.141   0.351  22.958  0.00  0.00    +0.004 A 
ATOM     24  C   UNL     1       4.692   0.726  22.376  0.00  0.00    +0.001 A 
ATOM     25  C   UNL     1       3.871   0.656  22.380  0.00  0.00    +0.017 A 
BRANCH  22  26
ATOM     26  C   UNL     1       5.216  -0.467  24.127  0.00  0.00    +0.419 C 
ATOM     27  F   UNL     1       5.665  -0.843  24.709  0.00  0.00    -0.166 F 
ATOM     28  F   UNL     1       5.017  -1.202  23.809  0.00  0.00    -0.166 F 
ATOM     29  F   UNL     1       5.416   0.267  24.446  0.00  0.00    -0.166 F 
ENDBRANCH  22  26
ENDBRANCH  19  20
ENDBRANCH  16  17
ENDBRANCH  15  16
ENDBRANCH  14  15
TORSDOF 7
ENDMDL
MODEL 6
REMARK VINA RESULT:      -8.8      4.136      5.466
REMARK  Name = 
REMARK  7 active torsions:
REMARK  status: ('A' for Active; 'I' for Inactive)
REMARK    1  A    between atoms: C_4  and  C_30
REMARK    2  A    between atoms: C_6  and  C_7
REMARK    3  A    between atoms: C_14  and  C_15
REMARK    4  A    between atoms: C_15  and  O_16
REMARK    5  A    between atoms: O_16  and  C_17
REMARK    6  A    between atoms: N_19  and  C_20
REMARK    7  A    between atoms: C_22  and  C_26
REMARK                            x       y       z     vdW  Elec       q    Type
REMARK                         _______ _______ _______ _____ _____    ______ ____
ROOT
ATOM      7  C   UNL     1      -3.821   0.685  24.541  0.00  0.00    +0.056 C 
ATOM      8  C   UNL     1      -3.427   1.174  24.081  0.00  0.00    +0.078 C 
ATOM      9  N   UNL     1      -4.089   1.360  24.537  0.00  0.00    -0.270 NA
ATOM     10  C   UNL     1      -4.378   0.484  25.036  0.00  0.00    +0.072 C 
ATOM     11  C   UNL     1      -4.778   0.170  25.446  0.00  0.00    +0.018 C 
ATOM     12  C   UNL     1      -4.470   0.875  24.985  0.00  0.00    +0.010 C 
ATOM     13  C   UNL     1      -4.910   1.627  25.092  0.00  0.00    +0.020 C 
ATOM     14  C   UNL     1      -4.552   2.138  24.653  0.00  0.00    +0.102 C 
ENDROOT
BRANCH   7   6
ATOM      1  C   UNL     1      -2.248   0.137  25.213  0.00  0.00    +0.153 C 
ATOM      2  N   UNL     1      -2.831  -0.347  24.887  0.00  0.00    -0.253 N 
ATOM      3  N   UNL     1      -2.794  -1.168  24.813  0.00  0.00    -0.169 NA
ATOM      4  C   UNL     1      -3.494  -1.424  24.458  0.00  0.00    +0.108 A 
ATOM      5  C   UNL     1      -3.963  -0.762  24.313  0.00  0.00    +0.036 A 
ATOM      6  C   UNL     1      -3.554  -0.096  24.578  0.00  0.00    +0.058 A 
BRANCH   4  30
ATOM     30  C   UNL     1      -3.689  -2.206  24.281  0.00  0.00    +0.049 A 
ATOM     31  C   UNL     1      -4.239  -2.452  23.717  0.00  0.00    +0.009 A 
ATOM     32  C   UNL     1      -4.258  -3.277  23.724  0.00  0.00    +0.008 A 
ATOM     33  C   UNL     1      -3.720  -3.540  24.291  0.00  0.00    +0.035 A 
ATOM     34  S   UNL     1      -3.368  -2.878  24.636  0.00  0.00    -0.085 S 
ENDBRANCH   4  30
ENDBRANCH   7   6
BRANCH  14  15
ATOM     15  C   UNL     1      -4.572   2.929  24.420  0.00  0.00    +0.226 C 
BRANCH  15  16
ATOM     16  O   UNL     1      -4.324   3.519  24.940  0.00  0.00    -0.432 OA
BRANCH  16  17
ATOM     17  C   UNL     1      -3.616   3.919  24.802  0.00  0.00    +0.425 C 
ATOM     18  O   UNL     1      -3.474   4.266  24.067  0.00  0.00    -0.224 OA
ATOM     19  N   UNL     1      -3.050   3.973  25.399  0.00  0.00    -0.142 NA
BRANCH  19  20
ATOM     20  C   UNL     1      -2.341   4.374  25.262  0.00  0.00    +0.077 A 
ATOM     21  C   UNL     1      -1.651   3.949  25.108  0.00  0.00    +0.021 A 
ATOM     22  C   UNL     1      -0.942   4.350  24.970  0.00  0.00    +0.073 A 
ATOM     23  C   UNL     1      -0.925   5.174  24.987  0.00  0.00    +0.004 A 
ATOM     24  C   UNL     1      -1.616   5.599  25.141  0.00  0.00    +0.001 A 
ATOM     25  C   UNL     1      -2.323   5.198  25.278  0.00  0.00    +0.017 A 
BRANCH  22  26
ATOM     26  C   UNL     1      -0.252   3.925  24.816  0.00  0.00    +0.419 C 
ATOM     27  F   UNL     1       0.439   3.500  24.663  0.00  0.00    -0.166 F 
ATOM     28  F   UNL     1      -0.194   3.729  25.616  0.00  0.00    -0.166 F 
ATOM     29  F   UNL     1      -0.310   4.121  24.017  0.00  0.00    -0.166 F 
ENDBRANCH  22  26
ENDBRANCH  19  20
ENDBRANCH  16  17
ENDBRANCH  15  16
ENDBRANCH  14  15
TORSDOF 7
ENDMDL
MODEL 7
REMARK VINA RESULT:      -8.5      4.112      5.588
REMARK  Name = 
REMARK  7 active torsions:
REMARK  status: ('A' for Active; 'I' for Inactive)
REMARK    1  A    between atoms: C_4  and  C_30
REMARK    2  A    between atoms: C_6  and  C_7
REMARK    3  A    between atoms: C_14  and  C_15
REMARK    4  A    between atoms: C_15  and  O_16
REMARK    5  A    between atoms: O_16  and  C_17
REMARK    6  A    between atoms: N_19  and  C_20
REMARK    7  A    between atoms: C_22  and  C_26
REMARK                            x       y       z     vdW  Elec       q    Type
REMARK                         _______ _______ _______ _____ _____    ______ ____
ROOT
ATOM      7  C   UNL     1      -0.411   1.635  24.959  0.00  0.00    +0.056 C 
ATOM      8  C   UNL     1      -0.825   1.073  25.303  0.00  0.00    +0.078 C 
ATOM      9  N   UNL     1      -0.304   0.978  24.669  0.00  0.00    -0.270 NA
ATOM     10  C   UNL     1       0.088   1.924  24.446  0.00  0.00    +0.072 C 
ATOM     11  C   UNL     1       0.477   2.307  24.088  0.00  0.00    +0.018 C 
ATOM     12  C   UNL     1       0.098   1.534  24.338  0.00  0.00    +0.010 C 
ATOM     13  C   UNL     1       0.335   0.823  23.882  0.00  0.00    +0.020 C 
ATOM     14  C   UNL     1      -0.053   0.242  24.191  0.00  0.00    +0.102 C 
ENDROOT
BRANCH   7   6
ATOM      1  C   UNL     1       0.239   2.250  26.516  0.00  0.00    +0.153 C 
ATOM      2  N   UNL     1      -0.200   2.684  25.969  0.00  0.00    -0.253 N 
ATOM      3  N   UNL     1      -0.418   3.477  26.041  0.00  0.00    -0.169 NA
ATOM      4  C   UNL     1      -0.851   3.684  25.370  0.00  0.00    +0.108 A 
ATOM      5  C   UNL     1      -0.902   3.020  24.884  0.00  0.00    +0.036 A 
ATOM      6  C   UNL     1      -0.499   2.402  25.254  0.00  0.00    +0.058 A 
BRANCH   4  30
ATOM     30  C   UNL     1      -1.177   4.426  25.214  0.00  0.00    +0.049 A 
ATOM     31  C   UNL     1      -0.773   5.081  24.918  0.00  0.00    +0.009 A 
ATOM     32  C   UNL     1      -1.311   5.702  24.848  0.00  0.00    +0.008 A 
ATOM     33  C   UNL     1      -2.047   5.431  25.102  0.00  0.00    +0.035 A 
ATOM     34  S   UNL     1      -1.965   4.643  25.328  0.00  0.00    -0.085 S 
ENDBRANCH   4  30
ENDBRANCH   7   6
BRANCH  14  15
ATOM     15  C   UNL     1      -0.173  -0.571  24.129  0.00  0.00    +0.226 C 
BRANCH  15  16
ATOM     16  O   UNL     1      -0.570  -0.977  24.727  0.00  0.00    -0.432 OA
BRANCH  16  17
ATOM     17  C   UNL     1      -1.191  -1.485  24.538  0.00  0.00    +0.425 C 
ATOM     18  O   UNL     1      -1.127  -1.994  23.892  0.00  0.00    -0.224 OA
ATOM     19  N   UNL     1      -1.878  -1.485  24.995  0.00  0.00    -0.142 NA
BRANCH  19  20
ATOM     20  C   UNL     1      -2.500  -1.993  24.806  0.00  0.00    +0.077 A 
ATOM     21  C   UNL     1      -3.191  -1.692  24.470  0.00  0.00    +0.021 A 
ATOM     22  C   UNL     1      -3.813  -2.201  24.281  0.00  0.00    +0.073 A 
ATOM     23  C   UNL     1      -3.744  -3.009  24.429  0.00  0.00    +0.004 A 
ATOM     24  C   UNL     1      -3.053  -3.310  24.766  0.00  0.00    +0.001 A 
ATOM     25  C   UNL     1      -2.432  -2.802  24.954  0.00  0.00    +0.017 A 
BRANCH  22  26
ATOM     26  C   UNL     1      -4.504  -1.900  23.945  0.00  0.00    +0.419 C 
ATOM     27  F   UNL     1      -5.194  -1.600  23.607  0.00  0.00    -0.166 F 
ATOM     28  F   UNL     1      -4.411  -2.407  23.301  0.00  0.00    -0.166 F 
ATOM     29  F   UNL     1      -4.596  -1.393  24.589  0.00  0.00    -0.166 F 
ENDBRANCH  22  26
ENDBRANCH  19  20
ENDBRANCH  16  17
ENDBRANCH  15  16
ENDBRANCH  14  15
TORSDOF 7
ENDMDL
MODEL 8
REMARK VINA RESULT:      -8.4      3.860      7.274
REMARK  Name = 
REMARK  7 active torsions:
REMARK  status: ('A' for Active; 'I' for Inactive)
REMARK    1  A    between atoms: C_4  and  C_30
REMARK    2  A    between atoms: C_6  and  C_7
REMARK    3  A    between atoms: C_14  and  C_15
REMARK    4  A    between atoms: C_15  and  O_16
REMARK    5  A    between atoms: O_16  and  C_17
REMARK    6  A    between atoms: N_19  and  C_20
REMARK    7  A    between atoms: C_22  and  C_26
REMARK                            x       y       z     vdW  Elec       q    Type
REMARK                         _______ _______ _______ _____ _____    ______ ____
ROOT
ATOM      7  C   UNL     1       0.516   0.230  23.499  0.00  0.00    +0.056 C 
ATOM      8  C   UNL     1       0.079  -0.410  23.566  0.00  0.00    +0.078 C 
ATOM      9  N   UNL     1      -0.111   0.342  23.850  0.00  0.00    -0.270 NA
ATOM     10  C   UNL     1       0.684   0.977  23.598  0.00  0.00    +0.072 C 
ATOM     11  C   UNL     1       0.961   1.569  23.601  0.00  0.00    +0.018 C 
ATOM     12  C   UNL     1       0.323   0.965  23.780  0.00  0.00    +0.010 C 
ATOM     13  C   UNL     1      -0.379   1.262  24.215  0.00  0.00    +0.020 C 
ATOM     14  C   UNL     1      -0.837   0.658  24.302  0.00  0.00    +0.102 C 
ENDROOT
BRANCH   7   6
ATOM      1  C   UNL     1       0.756  -0.399  21.835  0.00  0.00    +0.153 C 
ATOM      2  N   UNL     1       1.349  -0.135  22.343  0.00  0.00    -0.253 N 
ATOM      3  N   UNL     1       2.157  -0.113  22.177  0.00  0.00    -0.169 NA
ATOM      4  C   UNL     1       2.546   0.190  22.838  0.00  0.00    +0.108 A 
ATOM      5  C   UNL     1       1.979   0.355  23.413  0.00  0.00    +0.036 A 
ATOM      6  C   UNL     1       1.240   0.154  23.108  0.00  0.00    +0.058 A 
BRANCH   4  30
ATOM     30  C   UNL     1       3.360   0.306  22.910  0.00  0.00    +0.049 A 
ATOM     31  C   UNL     1       3.775   0.983  22.686  0.00  0.00    +0.009 A 
ATOM     32  C   UNL     1       4.572   0.861  22.857  0.00  0.00    +0.008 A 
ATOM     33  C   UNL     1       4.650   0.109  23.186  0.00  0.00    +0.035 A 
ATOM     34  S   UNL     1       3.901  -0.235  23.220  0.00  0.00    -0.085 S 
ENDBRANCH   4  30
ENDBRANCH   7   6
BRANCH  14  15
ATOM     15  C   UNL     1      -1.563   0.428  24.619  0.00  0.00    +0.226 C 
BRANCH  15  16
ATOM     16  O   UNL     1      -2.257   0.544  24.189  0.00  0.00    -0.432 OA
BRANCH  16  17
ATOM     17  C   UNL     1      -2.952   0.757  24.578  0.00  0.00    +0.425 C 
ATOM     18  O   UNL     1      -3.105   0.471  25.337  0.00  0.00    -0.224 OA
ATOM     19  N   UNL     1      -3.495   1.256  24.208  0.00  0.00    -0.142 NA
BRANCH  19  20
ATOM     20  C   UNL     1      -4.191   1.469  24.597  0.00  0.00    +0.077 A 
ATOM     21  C   UNL     1      -4.296   2.244  24.860  0.00  0.00    +0.021 A 
ATOM     22  C   UNL     1      -4.992   2.458  25.249  0.00  0.00    +0.073 A 
ATOM     23  C   UNL     1      -5.582   1.896  25.375  0.00  0.00    +0.004 A 
ATOM     24  C   UNL     1      -5.478   1.121  25.112  0.00  0.00    +0.001 A 
ATOM     25  C   UNL     1      -4.782   0.908  24.724  0.00  0.00    +0.017 A 
BRANCH  22  26
ATOM     26  C   UNL     1      -5.096   3.233  25.511  0.00  0.00    +0.419 C 
ATOM     27  F   UNL     1      -5.201   4.008  25.773  0.00  0.00    -0.166 F 
ATOM     28  F   UNL     1      -5.161   3.489  24.730  0.00  0.00    -0.166 F 
ATOM     29  F   UNL     1      -5.032   2.977  26.293  0.00  0.00    -0.166 F 
ENDBRANCH  22  26
ENDBRANCH  19  20
ENDBRANCH  16  17
ENDBRANCH  15  16
ENDBRANCH  14  15
TORSDOF 7
ENDMDL
