MODEL 1
REMARK VINA RESULT:     -10.2      0.000      0.000
REMARK  Name = 
REMARK  4 active torsions:
REMARK  status: ('A' for Active; 'I' for Inactive)
REMARK    1  A    between atoms: C_4  and  C_8
REMARK    2  A    between atoms: N_13  and  C_14
REMARK    3  A    between atoms: C_18  and  N_22
REMARK    4  A    between atoms: C_23  and  C_25
REMARK                            x       y       z     vdW  Elec       q    Type
REMARK                         _______ _______ _______ _____ _____    ______ ____
ROOT
ATOM      8  C   UNL     1      -3.819   2.507  24.678  0.00  0.00    +0.086 A 
ATOM      9  C   UNL     1      -3.641   3.048  24.082  0.00  0.00    +0.040 A 
ATOM     10  C   UNL     1      -2.875   3.091  23.779  0.00  0.00    +0.103 A 
ATOM     11  N   UNL     1      -2.286   2.592  24.071  0.00  0.00    -0.211 NA
ATOM     12  C   UNL     1      -2.465   2.051  24.668  0.00  0.00    +0.237 A 
ATOM     13  N   UNL     1      -1.876   1.552  24.961  0.00  0.00    -0.200 NA
ATOM     28  N   UNL     1      -3.231   2.008  24.971  0.00  0.00    -0.212 NA
ENDROOT
BRANCH  13  14
ATOM     14  C   UNL     1      -1.110   1.595  24.658  0.00  0.00    +0.154 C 
ATOM     15  C   UNL     1      -0.636   2.269  24.633  0.00  0.00    +0.166 C 
ATOM     16  O   UNL     1       0.083   2.062  24.286  0.00  0.00    -0.350 OA
ATOM     17  C   UNL     1       0.054   1.260  24.097  0.00  0.00    +0.166 C 
ATOM     18  C   UNL     1       0.479   0.635  23.765  0.00  0.00    +0.154 C 
ATOM     19  C   UNL     1       0.005  -0.039  23.790  0.00  0.00    +0.166 C 
ATOM     20  O   UNL     1      -0.714   0.169  24.137  0.00  0.00    -0.350 OA
ATOM     21  C   UNL     1      -0.684   0.971  24.327  0.00  0.00    +0.166 C 
BRANCH  18  22
ATOM     22  N   UNL     1       1.245   0.678  23.462  0.00  0.00    -0.202 NA
ATOM     23  C   UNL     1       1.494   0.136  22.892  0.00  0.00    +0.241 C 
ATOM     24  O   UNL     1       0.978  -0.449  22.626  0.00  0.00    -0.273 OA
BRANCH  23  25
ATOM     25  C   UNL     1       2.261   0.179  22.589  0.00  0.00    +0.078 C 
ATOM     26  C   UNL     1       3.063   0.341  22.695  0.00  0.00    +0.010 C 
ATOM     27  C   UNL     1       2.785   0.091  21.958  0.00  0.00    +0.010 C 
ENDBRANCH  23  25
ENDBRANCH  18  22
ENDBRANCH  13  14
BRANCH   8   4
ATOM      1  F   UNL     1      -6.442   1.372  24.627  0.00  0.00    -0.204 F 
ATOM      2  C   UNL     1      -5.896   1.897  24.955  0.00  0.00    +0.140 A 
ATOM      3  C   UNL     1      -5.130   1.939  24.653  0.00  0.00    +0.031 A 
ATOM      4  C   UNL     1      -4.585   2.464  24.981  0.00  0.00    +0.020 A 
ATOM      5  C   UNL     1      -4.805   2.946  25.613  0.00  0.00    +0.002 A 
ATOM      6  C   UNL     1      -5.572   2.904  25.916  0.00  0.00    +0.002 A 
ATOM      7  C   UNL     1      -6.118   2.379  25.588  0.00  0.00    +0.030 A 
ENDBRANCH   8   4
TORSDOF 4
ENDMDL
MODEL 2
REMARK VINA RESULT:      -9.9      3.048      4.402
REMARK  Name = 
REMARK  4 active torsions:
REMARK  status: ('A' for Active; 'I' for Inactive)
REMARK    1  A    between atoms: C_4  and  C_8
REMARK    2  A    between atoms: N_13  and  C_14
REMARK    3  A    between atoms: C_18  and  N_22
REMARK    4  A    between atoms: C_23  and  C_25
REMARK                            x       y       z     vdW  Elec       q    Type
REMARK                         _______ _______ _______ _____ _____    ______ ____
ROOT
ATOM      8  C   UNL     1      -3.660  -0.896  24.295  0.00  0.00    +0.086 A 
ATOM      9  C   UNL     1      -4.302  -0.402  24.448  0.00  0.00    +0.040 A 
ATOM     10  C   UNL     1      -4.214   0.417  24.392  0.00  0.00    +0.103 A 
ATOM     11  N   UNL     1      -3.485   0.741  24.184  0.00  0.00    -0.211 NA
ATOM     12  C   UNL     1      -2.842   0.246  24.031  0.00  0.00    +0.237 A 
ATOM     13  N   UNL     1      -2.113   0.570  23.823  0.00  0.00    -0.200 NA
ATOM     28  N   UNL     1      -2.930  -0.572  24.087  0.00  0.00    -0.212 NA
ENDROOT
BRANCH  13  14
ATOM     14  C   UNL     1      -2.025   1.389  23.767  0.00  0.00    +0.154 C 
ATOM     15  C   UNL     1      -2.404   1.880  23.224  0.00  0.00    +0.166 C 
ATOM     16  O   UNL     1      -2.157   2.654  23.366  0.00  0.00    -0.350 OA
ATOM     17  C   UNL     1      -1.625   2.641  23.996  0.00  0.00    +0.166 C 
ATOM     18  C   UNL     1      -1.144   3.110  24.474  0.00  0.00    +0.154 C 
ATOM     19  C   UNL     1      -0.765   2.618  25.017  0.00  0.00    +0.166 C 
ATOM     20  O   UNL     1      -1.012   1.844  24.875  0.00  0.00    -0.350 OA
ATOM     21  C   UNL     1      -1.544   1.858  24.244  0.00  0.00    +0.166 C 
BRANCH  18  22
ATOM     22  N   UNL     1      -1.056   3.929  24.419  0.00  0.00    -0.202 NA
ATOM     23  C   UNL     1      -1.262   4.410  25.056  0.00  0.00    +0.241 C 
ATOM     24  O   UNL     1      -1.556   4.073  25.750  0.00  0.00    -0.273 OA
BRANCH  23  25
ATOM     25  C   UNL     1      -1.175   5.229  25.001  0.00  0.00    +0.078 C 
ATOM     26  C   UNL     1      -1.504   5.985  25.020  0.00  0.00    +0.010 C 
ATOM     27  C   UNL     1      -0.695   5.890  24.885  0.00  0.00    +0.010 C 
ENDBRANCH  23  25
ENDBRANCH  18  22
ENDBRANCH  13  14
BRANCH   8   4
ATOM      1  F   UNL     1      -3.212  -3.344  25.701  0.00  0.00    -0.204 F 
ATOM      2  C   UNL     1      -3.523  -2.938  25.054  0.00  0.00    +0.140 A 
ATOM      3  C   UNL     1      -3.436  -2.120  24.998  0.00  0.00    +0.031 A 
ATOM      4  C   UNL     1      -3.747  -1.714  24.351  0.00  0.00    +0.020 A 
ATOM      5  C   UNL     1      -4.146  -2.127  23.759  0.00  0.00    +0.002 A 
ATOM      6  C   UNL     1      -4.234  -2.946  23.814  0.00  0.00    +0.002 A 
ATOM      7  C   UNL     1      -3.923  -3.352  24.462  0.00  0.00    +0.030 A 
ENDBRANCH   8   4
TORSDOF 4
ENDMDL
MODEL 3
REMARK VINA RESULT:      -9.3      2.180      2.804
REMARK  Name = 
REMARK  4 active torsions:
REMARK  status: ('A' for Active; 'I' for Inactive)
REMARK    1  A    between atoms: C_4  and  C_8
REMARK    2  A    between atoms: N_13  and  C_14
REMARK    3  A    between atoms: C_18  and  N_22
REMARK    4  A    between atoms: C_23  and  C_25
REMARK                            x       y       z     vdW  Elec       q    Type
REMARK                         _______ _______ _______ _____ _____    ______ ____
ROOT
ATOM      8  C   UNL     1      -2.218  -0.228  24.745  0.00  0.00    +0.086 A 
ATOM      9  C   UNL     1      -1.844  -0.302  25.477  0.00  0.00    +0.040 A 
ATOM     10  C   UNL     1      -1.050  -0.091  25.558  0.00  0.00    +0.103 A 
ATOM     11  N   UNL     1      -0.630   0.194  24.907  0.00  0.00    -0.211 NA
ATOM     12  C   UNL     1      -1.005   0.267  24.175  0.00  0.00    +0.237 A 
ATOM     13  N   UNL     1      -0.585   0.552  23.525  0.00  0.00    -0.200 NA
ATOM     28  N   UNL     1      -1.798   0.057  24.095  0.00  0.00    -0.212 NA
ENDROOT
BRANCH  13  14
ATOM     14  C   UNL     1       0.209   0.763  23.606  0.00  0.00    +0.154 C 
ATOM     15  C   UNL     1       0.510   1.328  24.126  0.00  0.00    +0.166 C 
ATOM     16  O   UNL     1       1.327   1.360  24.022  0.00  0.00    -0.350 OA
ATOM     17  C   UNL     1       1.532   0.815  23.438  0.00  0.00    +0.166 C 
ATOM     18  C   UNL     1       2.164   0.497  23.013  0.00  0.00    +0.154 C 
ATOM     19  C   UNL     1       1.863  -0.067  22.492  0.00  0.00    +0.166 C 
ATOM     20  O   UNL     1       1.046  -0.099  22.596  0.00  0.00    -0.350 OA
ATOM     21  C   UNL     1       0.841   0.446  23.181  0.00  0.00    +0.166 C 
BRANCH  18  22
ATOM     22  N   UNL     1       2.957   0.708  23.094  0.00  0.00    -0.202 NA
ATOM     23  C   UNL     1       3.543   0.127  23.074  0.00  0.00    +0.241 C 
ATOM     24  O   UNL     1       3.335  -0.664  22.973  0.00  0.00    -0.273 OA
BRANCH  23  25
ATOM     25  C   UNL     1       4.337   0.338  23.155  0.00  0.00    +0.078 C 
ATOM     26  C   UNL     1       5.117   0.131  23.324  0.00  0.00    +0.010 C 
ATOM     27  C   UNL     1       4.930   0.910  23.126  0.00  0.00    +0.010 C 
ENDBRANCH  23  25
ENDBRANCH  18  22
ENDBRANCH  13  14
BRANCH   8   4
ATOM      1  F   UNL     1      -4.208  -2.169  24.083  0.00  0.00    -0.204 F 
ATOM      2  C   UNL     1      -4.006  -1.409  24.333  0.00  0.00    +0.140 A 
ATOM      3  C   UNL     1      -3.213  -1.199  24.414  0.00  0.00    +0.031 A 
ATOM      4  C   UNL     1      -3.011  -0.439  24.665  0.00  0.00    +0.020 A 
ATOM      5  C   UNL     1      -3.602   0.110  24.834  0.00  0.00    +0.002 A 
ATOM      6  C   UNL     1      -4.396  -0.101  24.754  0.00  0.00    +0.002 A 
ATOM      7  C   UNL     1      -4.598  -0.860  24.503  0.00  0.00    +0.030 A 
ENDBRANCH   8   4
TORSDOF 4
ENDMDL
MODEL 4
REMARK VINA RESULT:      -9.0      3.023      4.539
REMARK  Name = 
REMARK  4 active torsions:
REMARK  status: ('A' for Active; 'I' for Inactive)
REMARK    1  A    between atoms: C_4  and  C_8
REMARK    2  A    between atoms: N_13  and  C_14
REMARK    3  A    between atoms: C_18  and  N_22
REMARK    4  A    between atoms: C_23  and  C_25
REMARK                            x       y       z     vdW  Elec       q    Type
REMARK                         _______ _______ _______ _____ _____    ______ ____
ROOT
ATOM      8  C   UNL     1      -1.102   3.468  25.114  0.00  0.00    +0.086 A 
ATOM      9  C   UNL     1      -0.677   3.108  25.722  0.00  0.00    +0.040 A 
ATOM     10  C   UNL     1      -0.701   2.289  25.814  0.00  0.00    +0.103 A 
ATOM     11  N   UNL     1      -1.149   1.828  25.298  0.00  0.00    -0.211 NA
ATOM     12  C   UNL     1      -1.575   2.188  24.689  0.00  0.00    +0.237 A 
ATOM     13  N   UNL     1      -2.024   1.727  24.172  0.00  0.00    -0.200 NA
ATOM     28  N   UNL     1      -1.551   3.007  24.597  0.00  0.00    -0.212 NA
ENDROOT
BRANCH  13  14
ATOM     14  C   UNL     1      -2.047   0.907  24.264  0.00  0.00    +0.154 C 
ATOM     15  C   UNL     1      -1.396   0.402  24.274  0.00  0.00    +0.166 C 
ATOM     16  O   UNL     1      -1.673  -0.368  24.378  0.00  0.00    -0.350 OA
ATOM     17  C   UNL     1      -2.495  -0.339  24.432  0.00  0.00    +0.166 C 
ATOM     18  C   UNL     1      -3.175  -0.795  24.530  0.00  0.00    +0.154 C 
ATOM     19  C   UNL     1      -3.826  -0.290  24.520  0.00  0.00    +0.166 C 
ATOM     20  O   UNL     1      -3.549   0.480  24.416  0.00  0.00    -0.350 OA
ATOM     21  C   UNL     1      -2.726   0.450  24.362  0.00  0.00    +0.166 C 
BRANCH  18  22
ATOM     22  N   UNL     1      -3.198  -1.615  24.622  0.00  0.00    -0.202 NA
ATOM     23  C   UNL     1      -3.748  -2.062  24.200  0.00  0.00    +0.241 C 
ATOM     24  O   UNL     1      -4.274  -1.690  23.685  0.00  0.00    -0.273 OA
BRANCH  23  25
ATOM     25  C   UNL     1      -3.772  -2.882  24.292  0.00  0.00    +0.078 C 
ATOM     26  C   UNL     1      -3.594  -3.557  24.732  0.00  0.00    +0.010 C 
ATOM     27  C   UNL     1      -3.990  -3.626  24.011  0.00  0.00    +0.010 C 
ENDBRANCH  23  25
ENDBRANCH  18  22
ENDBRANCH  13  14
BRANCH   8   4
ATOM      1  F   UNL     1      -2.285   6.038  25.512  0.00  0.00    -0.204 F 
ATOM      2  C   UNL     1      -1.670   5.572  25.221  0.00  0.00    +0.140 A 
ATOM      3  C   UNL     1      -1.694   4.753  25.313  0.00  0.00    +0.031 A 
ATOM      4  C   UNL     1      -1.078   4.287  25.022  0.00  0.00    +0.020 A 
ATOM      5  C   UNL     1      -0.439   4.640  24.639  0.00  0.00    +0.002 A 
ATOM      6  C   UNL     1      -0.415   5.460  24.547  0.00  0.00    +0.002 A 
ATOM      7  C   UNL     1      -1.030   5.926  24.838  0.00  0.00    +0.030 A 
ENDBRANCH   8   4
TORSDOF 4
ENDMDL
MODEL 5
REMARK VINA RESULT:      -8.7      2.350      6.322
REMARK  Name = 
REMARK  4 active torsions:
REMARK  status: ('A' for Active; 'I' for Inactive)
REMARK    1  A    between atoms: C_4  and  C_8
REMARK    2  A    between atoms: N_13  and  C_14
REMARK    3  A    between atoms: C_18  and  N_22
REMARK    4  A    between atoms: C_23  and  C_25
REMARK                            x       y       z     vdW  Elec       q    Type
REMARK                         _______ _______ _______ _____ _____    ______ ____
ROOT
ATOM      8  C   UNL     1       0.960   0.118  23.282  0.00  0.00    +0.086 A 
ATOM      9  C   UNL     1       0.707  -0.613  23.570  0.00  0.00    +0.040 A 
ATOM     10  C   UNL     1      -0.013  -0.672  23.969  0.00  0.00    +0.103 A 
ATOM     11  N   UNL     1      -0.480  -0.001  24.079  0.00  0.00    -0.211 NA
ATOM     12  C   UNL     1      -0.227   0.730  23.790  0.00  0.00    +0.237 A 
ATOM     13  N   UNL     1      -0.694   1.401  23.900  0.00  0.00    -0.200 NA
ATOM     28  N   UNL     1       0.493   0.789  23.392  0.00  0.00    -0.212 NA
ENDROOT
BRANCH  13  14
ATOM     14  C   UNL     1      -1.414   1.342  24.299  0.00  0.00    +0.154 C 
ATOM     15  C   UNL     1      -1.528   1.015  25.047  0.00  0.00    +0.166 C 
ATOM     16  O   UNL     1      -2.330   1.070  25.230  0.00  0.00    -0.350 OA
ATOM     17  C   UNL     1      -2.713   1.431  24.595  0.00  0.00    +0.166 C 
ATOM     18  C   UNL     1      -3.444   1.689  24.314  0.00  0.00    +0.154 C 
ATOM     19  C   UNL     1      -3.330   2.016  23.566  0.00  0.00    +0.166 C 
ATOM     20  O   UNL     1      -2.528   1.961  23.383  0.00  0.00    -0.350 OA
ATOM     21  C   UNL     1      -2.146   1.599  24.019  0.00  0.00    +0.166 C 
BRANCH  18  22
ATOM     22  N   UNL     1      -4.164   1.630  24.713  0.00  0.00    -0.202 NA
ATOM     23  C   UNL     1      -4.710   2.247  24.673  0.00  0.00    +0.241 C 
ATOM     24  O   UNL     1      -4.536   2.924  24.235  0.00  0.00    -0.273 OA
BRANCH  23  25
ATOM     25  C   UNL     1      -5.430   2.188  25.072  0.00  0.00    +0.078 C 
ATOM     26  C   UNL     1      -5.912   2.393  25.710  0.00  0.00    +0.010 C 
ATOM     27  C   UNL     1      -6.194   1.882  25.126  0.00  0.00    +0.010 C 
ENDBRANCH  23  25
ENDBRANCH  18  22
ENDBRANCH  13  14
BRANCH   8   4
ATOM      1  F   UNL     1       3.639   1.103  23.142  0.00  0.00    -0.204 F 
ATOM      2  C   UNL     1       3.019   0.669  22.813  0.00  0.00    +0.140 A 
ATOM      3  C   UNL     1       2.299   0.610  23.212  0.00  0.00    +0.031 A 
ATOM      4  C   UNL     1       1.679   0.176  22.883  0.00  0.00    +0.020 A 
ATOM      5  C   UNL     1       1.779  -0.199  22.155  0.00  0.00    +0.002 A 
ATOM      6  C   UNL     1       2.499  -0.141  21.756  0.00  0.00    +0.002 A 
ATOM      7  C   UNL     1       3.119   0.294  22.085  0.00  0.00    +0.030 A 
ENDBRANCH   8   4
TORSDOF 4
ENDMDL
MODEL 6
REMARK VINA RESULT:      -7.2     14.840     15.835
REMARK  Name = 
REMARK  4 active torsions:
REMARK  status: ('A' for Active; 'I' for Inactive)
REMARK    1  A    between atoms: C_4  and  C_8
REMARK    2  A    between atoms: N_13  and  C_14
REMARK    3  A    between atoms: C_18  and  N_22
REMARK    4  A    between atoms: C_23  and  C_25
REMARK                            x       y       z     vdW  Elec       q    Type
REMARK                         _______ _______ _______ _____ _____    ______ ____
ROOT
ATOM      8  C   UNL     1      -5.155 -10.447  16.888  0.00  0.00    +0.086 A 
ATOM      9  C   UNL     1      -4.331 -10.429  16.917  0.00  0.00    +0.040 A 
ATOM     10  C   UNL     1      -3.894 -10.408  16.217  0.00  0.00    +0.103 A 
ATOM     11  N   UNL     1      -4.281 -10.406  15.488  0.00  0.00    -0.211 NA
ATOM     12  C   UNL     1      -5.106 -10.424  15.460  0.00  0.00    +0.237 A 
ATOM     13  N   UNL     1      -5.493 -10.422  14.731  0.00  0.00    -0.200 NA
ATOM     28  N   UNL     1      -5.542 -10.445  16.159  0.00  0.00    -0.212 NA
ENDROOT
BRANCH  13  14
ATOM     14  C   UNL     1      -5.056 -10.402  14.032  0.00  0.00    +0.154 C 
ATOM     15  C   UNL     1      -4.317 -10.747  13.912  0.00  0.00    +0.166 C 
ATOM     16  O   UNL     1      -4.086 -10.590  13.135  0.00  0.00    -0.350 OA
ATOM     17  C   UNL     1      -4.682 -10.149  12.776  0.00  0.00    +0.166 C 
ATOM     18  C   UNL     1      -4.909  -9.779  12.074  0.00  0.00    +0.154 C 
ATOM     19  C   UNL     1      -5.648  -9.434  12.194  0.00  0.00    +0.166 C 
ATOM     20  O   UNL     1      -5.879  -9.590  12.970  0.00  0.00    -0.350 OA
ATOM     21  C   UNL     1      -5.282 -10.032  13.330  0.00  0.00    +0.166 C 
BRANCH  18  22
ATOM     22  N   UNL     1      -4.472  -9.758  11.374  0.00  0.00    -0.202 NA
ATOM     23  C   UNL     1      -4.558  -9.124  10.853  0.00  0.00    +0.241 C 
ATOM     24  O   UNL     1      -5.080  -8.511  11.031  0.00  0.00    -0.273 OA
BRANCH  23  25
ATOM     25  C   UNL     1      -4.121  -9.104  10.153  0.00  0.00    +0.078 C 
ATOM     26  C   UNL     1      -3.441  -9.301   9.729  0.00  0.00    +0.010 C 
ATOM     27  C   UNL     1      -4.044  -8.871   9.365  0.00  0.00    +0.010 C 
ENDBRANCH  23  25
ENDBRANCH  18  22
ENDBRANCH  13  14
BRANCH   8   4
ATOM      1  F   UNL     1      -7.591  -9.959  18.301  0.00  0.00    -0.204 F 
ATOM      2  C   UNL     1      -6.809 -10.224  18.294  0.00  0.00    +0.140 A 
ATOM      3  C   UNL     1      -6.373 -10.203  17.595  0.00  0.00    +0.031 A 
ATOM      4  C   UNL     1      -5.591 -10.468  17.587  0.00  0.00    +0.020 A 
ATOM      5  C   UNL     1      -5.246 -10.754  18.280  0.00  0.00    +0.002 A 
ATOM      6  C   UNL     1      -5.683 -10.775  18.980  0.00  0.00    +0.002 A 
ATOM      7  C   UNL     1      -6.464 -10.510  18.988  0.00  0.00    +0.030 A 
ENDBRANCH   8   4
TORSDOF 4
ENDMDL
MODEL 7
REMARK VINA RESULT:      -6.9     15.479     16.969
REMARK  Name = 
REMARK  4 active torsions:
REMARK  status: ('A' for Active; 'I' for Inactive)
REMARK    1  A    between atoms: C_4  and  C_8
REMARK    2  A    between atoms: N_13  and  C_14
REMARK    3  A    between atoms: C_18  and  N_22
REMARK    4  A    between atoms: C_23  and  C_25
REMARK                            x       y       z     vdW  Elec       q    Type
REMARK                         _______ _______ _______ _____ _____    ______ ____
ROOT
ATOM      8  C   UNL     1      -3.955 -10.056  11.273  0.00  0.00    +0.086 A 
ATOM      9  C   UNL     1      -3.186 -10.228  11.517  0.00  0.00    +0.040 A 
ATOM     10  C   UNL     1      -3.033 -10.404  12.308  0.00  0.00    +0.103 A 
ATOM     11  N   UNL     1      -3.650 -10.409  12.856  0.00  0.00    -0.211 NA
ATOM     12  C   UNL     1      -4.420 -10.237  12.612  0.00  0.00    +0.237 A 
ATOM     13  N   UNL     1      -5.037 -10.242  13.160  0.00  0.00    -0.200 NA
ATOM     28  N   UNL     1      -4.572 -10.061  11.821  0.00  0.00    -0.212 NA
ENDROOT
BRANCH  13  14
ATOM     14  C   UNL     1      -4.885 -10.418  13.951  0.00  0.00    +0.154 C 
ATOM     15  C   UNL     1      -4.160 -10.660  14.263  0.00  0.00    +0.166 C 
ATOM     16  O   UNL     1      -4.259 -10.775  15.074  0.00  0.00    -0.350 OA
ATOM     17  C   UNL     1      -5.042 -10.604  15.263  0.00  0.00    +0.166 C 
ATOM     18  C   UNL     1      -5.589 -10.570  15.881  0.00  0.00    +0.154 C 
ATOM     19  C   UNL     1      -6.313 -10.328  15.569  0.00  0.00    +0.166 C 
ATOM     20  O   UNL     1      -6.215 -10.213  14.758  0.00  0.00    -0.350 OA
ATOM     21  C   UNL     1      -5.430 -10.384  14.569  0.00  0.00    +0.166 C 
BRANCH  18  22
ATOM     22  N   UNL     1      -5.436 -10.746  16.673  0.00  0.00    -0.202 NA
ATOM     23  C   UNL     1      -5.815 -10.321  17.270  0.00  0.00    +0.241 C 
ATOM     24  O   UNL     1      -6.345  -9.720  17.076  0.00  0.00    -0.273 OA
BRANCH  23  25
ATOM     25  C   UNL     1      -5.662 -10.498  18.062  0.00  0.00    +0.078 C 
ATOM     26  C   UNL     1      -5.152 -10.781  18.645  0.00  0.00    +0.010 C 
ATOM     27  C   UNL     1      -5.909 -10.520  18.849  0.00  0.00    +0.010 C 
ENDBRANCH  23  25
ENDBRANCH  18  22
ENDBRANCH  13  14
BRANCH   8   4
ATOM      1  F   UNL     1      -3.968  -8.185   9.112  0.00  0.00    -0.204 F 
ATOM      2  C   UNL     1      -4.113  -8.944   9.402  0.00  0.00    +0.140 A 
ATOM      3  C   UNL     1      -3.961  -9.121  10.192  0.00  0.00    +0.031 A 
ATOM      4  C   UNL     1      -4.106  -9.880  10.482  0.00  0.00    +0.020 A 
ATOM      5  C   UNL     1      -4.403 -10.462   9.979  0.00  0.00    +0.002 A 
ATOM      6  C   UNL     1      -4.555 -10.286   9.187  0.00  0.00    +0.002 A 
ATOM      7  C   UNL     1      -4.410  -9.527   8.898  0.00  0.00    +0.030 A 
ENDBRANCH   8   4
TORSDOF 4
ENDMDL
MODEL 8
REMARK VINA RESULT:      -6.7     17.629     18.986
REMARK  Name = 
REMARK  4 active torsions:
REMARK  status: ('A' for Active; 'I' for Inactive)
REMARK    1  A    between atoms: C_4  and  C_8
REMARK    2  A    between atoms: N_13  and  C_14
REMARK    3  A    between atoms: C_18  and  N_22
REMARK    4  A    between atoms: C_23  and  C_25
REMARK                            x       y       z     vdW  Elec       q    Type
REMARK                         _______ _______ _______ _____ _____    ______ ____
ROOT
ATOM      8  C   UNL     1      -4.663  -9.539  11.086  0.00  0.00    +0.086 A 
ATOM      9  C   UNL     1      -5.095  -9.366  11.767  0.00  0.00    +0.040 A 
ATOM     10  C   UNL     1      -5.871  -9.092  11.704  0.00  0.00    +0.103 A 
ATOM     11  N   UNL     1      -6.215  -8.990  10.961  0.00  0.00    -0.211 NA
ATOM     12  C   UNL     1      -5.781  -9.163  10.280  0.00  0.00    +0.237 A 
ATOM     13  N   UNL     1      -6.125  -9.062   9.536  0.00  0.00    -0.200 NA
ATOM     28  N   UNL     1      -5.006  -9.437  10.343  0.00  0.00    -0.212 NA
ENDROOT
BRANCH  13  14
ATOM     14  C   UNL     1      -6.901  -8.788   9.474  0.00  0.00    +0.154 C 
ATOM     15  C   UNL     1      -7.562  -9.119   9.838  0.00  0.00    +0.166 C 
ATOM     16  O   UNL     1      -8.221  -8.670   9.625  0.00  0.00    -0.350 OA
ATOM     17  C   UNL     1      -7.967  -8.062   9.130  0.00  0.00    +0.166 C 
ATOM     18  C   UNL     1      -8.215  -7.408   8.693  0.00  0.00    +0.154 C 
ATOM     19  C   UNL     1      -7.554  -7.077   8.329  0.00  0.00    +0.166 C 
ATOM     20  O   UNL     1      -6.895  -7.526   8.541  0.00  0.00    -0.350 OA
ATOM     21  C   UNL     1      -7.150  -8.135   9.037  0.00  0.00    +0.166 C 
BRANCH  18  22
ATOM     22  N   UNL     1      -8.991  -7.134   8.630  0.00  0.00    -0.202 NA
ATOM     23  C   UNL     1      -9.138  -6.373   8.349  0.00  0.00    +0.241 C 
ATOM     24  O   UNL     1      -8.510  -5.885   8.131  0.00  0.00    -0.273 OA
BRANCH  23  25
ATOM     25  C   UNL     1      -9.914  -6.098   8.287  0.00  0.00    +0.078 C 
ATOM     26  C   UNL     1     -10.452  -5.473   8.278  0.00  0.00    +0.010 C 
ATOM     27  C   UNL     1     -10.719  -6.249   8.187  0.00  0.00    +0.010 C 
ENDBRANCH  23  25
ENDBRANCH  18  22
ENDBRANCH  13  14
BRANCH   8   4
ATOM      1  F   UNL     1      -1.883  -9.259  10.486  0.00  0.00    -0.204 F 
ATOM      2  C   UNL     1      -2.498  -9.673  10.849  0.00  0.00    +0.140 A 
ATOM      3  C   UNL     1      -3.273  -9.399  10.786  0.00  0.00    +0.031 A 
ATOM      4  C   UNL     1      -3.888  -9.813  11.149  0.00  0.00    +0.020 A 
ATOM      5  C   UNL     1      -3.727 -10.501  11.574  0.00  0.00    +0.002 A 
ATOM      6  C   UNL     1      -2.951 -10.776  11.637  0.00  0.00    +0.002 A 
ATOM      7  C   UNL     1      -2.336 -10.362  11.275  0.00  0.00    +0.030 A 
ENDBRANCH   8   4
TORSDOF 4
ENDMDL
MODEL 9
REMARK VINA RESULT:      -6.6     14.726     15.420
REMARK  Name = 
REMARK  4 active torsions:
REMARK  status: ('A' for Active; 'I' for Inactive)
REMARK    1  A    between atoms: C_4  and  C_8
REMARK    2  A    between atoms: N_13  and  C_14
REMARK    3  A    between atoms: C_18  and  N_22
REMARK    4  A    between atoms: C_23  and  C_25
REMARK                            x       y       z     vdW  Elec       q    Type
REMARK                         _______ _______ _______ _____ _____    ______ ____
ROOT
ATOM      8  C   UNL     1      -7.986  -9.354  16.818  0.00  0.00    +0.086 A 
ATOM      9  C   UNL     1      -7.347  -9.329  17.339  0.00  0.00    +0.040 A 
ATOM     10  C   UNL     1      -6.594  -9.546  17.079  0.00  0.00    +0.103 A 
ATOM     11  N   UNL     1      -6.480  -9.789  16.299  0.00  0.00    -0.211 NA
ATOM     12  C   UNL     1      -7.121  -9.814  15.778  0.00  0.00    +0.237 A 
ATOM     13  N   UNL     1      -7.007 -10.057  14.997  0.00  0.00    -0.200 NA
ATOM     28  N   UNL     1      -7.872  -9.597  16.037  0.00  0.00    -0.212 NA
ENDROOT
BRANCH  13  14
ATOM     14  C   UNL     1      -6.254 -10.274  14.738  0.00  0.00    +0.154 C 
ATOM     15  C   UNL     1      -5.675 -10.649  15.190  0.00  0.00    +0.166 C 
ATOM     16  O   UNL     1      -5.013 -10.761  14.712  0.00  0.00    -0.350 OA
ATOM     17  C   UNL     1      -5.181 -10.456  13.965  0.00  0.00    +0.166 C 
ATOM     18  C   UNL     1      -4.877 -10.336  13.208  0.00  0.00    +0.154 C 
ATOM     19  C   UNL     1      -5.456  -9.962  12.756  0.00  0.00    +0.166 C 
ATOM     20  O   UNL     1      -6.119  -9.850  13.234  0.00  0.00    -0.350 OA
ATOM     21  C   UNL     1      -5.949 -10.155  13.981  0.00  0.00    +0.166 C 
BRANCH  18  22
ATOM     22  N   UNL     1      -4.124 -10.554  12.948  0.00  0.00    -0.202 NA
ATOM     23  C   UNL     1      -3.829 -10.251  12.240  0.00  0.00    +0.241 C 
ATOM     24  O   UNL     1      -4.285  -9.730  11.791  0.00  0.00    -0.273 OA
BRANCH  23  25
ATOM     25  C   UNL     1      -3.076 -10.468  11.981  0.00  0.00    +0.078 C 
ATOM     26  C   UNL     1      -2.585 -10.781  11.396  0.00  0.00    +0.010 C 
ATOM     27  C   UNL     1      -2.265 -10.531  12.115  0.00  0.00    +0.010 C 
ENDBRANCH  23  25
ENDBRANCH  18  22
ENDBRANCH  13  14
BRANCH   8   4
ATOM      1  F   UNL     1     -10.007  -7.363  17.160  0.00  0.00    -0.204 F 
ATOM      2  C   UNL     1      -9.748  -8.142  17.249  0.00  0.00    +0.140 A 
ATOM      3  C   UNL     1      -8.996  -8.359  16.989  0.00  0.00    +0.031 A 
ATOM      4  C   UNL     1      -8.738  -9.137  17.077  0.00  0.00    +0.020 A 
ATOM      5  C   UNL     1      -9.231  -9.699  17.426  0.00  0.00    +0.002 A 
ATOM      6  C   UNL     1      -9.984  -9.481  17.686  0.00  0.00    +0.002 A 
ATOM      7  C   UNL     1     -10.243  -8.703  17.597  0.00  0.00    +0.030 A 
ENDBRANCH   8   4
TORSDOF 4
ENDMDL
MODEL 10
REMARK VINA RESULT:      -6.5     14.429     15.306
REMARK  Name = 
REMARK  4 active torsions:
REMARK  status: ('A' for Active; 'I' for Inactive)
REMARK    1  A    between atoms: C_4  and  C_8
REMARK    2  A    between atoms: N_13  and  C_14
REMARK    3  A    between atoms: C_18  and  N_22
REMARK    4  A    between atoms: C_23  and  C_25
REMARK                            x       y       z     vdW  Elec       q    Type
REMARK                         _______ _______ _______ _____ _____    ______ ____
ROOT
ATOM      8  C   UNL     1      -6.385 -10.025  17.114  0.00  0.00    +0.086 A 
ATOM      9  C   UNL     1      -6.781  -9.419  16.719  0.00  0.00    +0.040 A 
ATOM     10  C   UNL     1      -6.614  -9.265  15.926  0.00  0.00    +0.103 A 
ATOM     11  N   UNL     1      -6.051  -9.718  15.527  0.00  0.00    -0.211 NA
ATOM     12  C   UNL     1      -5.655 -10.324  15.923  0.00  0.00    +0.237 A 
ATOM     13  N   UNL     1      -5.092 -10.777  15.524  0.00  0.00    -0.200 NA
ATOM     28  N   UNL     1      -5.822 -10.478  16.716  0.00  0.00    -0.212 NA
ENDROOT
BRANCH  13  14
ATOM     14  C   UNL     1      -4.925 -10.623  14.731  0.00  0.00    +0.154 C 
ATOM     15  C   UNL     1      -5.475 -10.423  14.150  0.00  0.00    +0.166 C 
ATOM     16  O   UNL     1      -5.068 -10.319  13.440  0.00  0.00    -0.350 OA
ATOM     17  C   UNL     1      -4.268 -10.455  13.581  0.00  0.00    +0.166 C 
ATOM     18  C   UNL     1      -3.521 -10.476  13.231  0.00  0.00    +0.154 C 
ATOM     19  C   UNL     1      -2.971 -10.677  13.812  0.00  0.00    +0.166 C 
ATOM     20  O   UNL     1      -3.378 -10.781  14.522  0.00  0.00    -0.350 OA
ATOM     21  C   UNL     1      -4.179 -10.644  14.380  0.00  0.00    +0.166 C 
BRANCH  18  22
ATOM     22  N   UNL     1      -3.354 -10.322  12.437  0.00  0.00    -0.202 NA
ATOM     23  C   UNL     1      -2.625 -10.001  12.224  0.00  0.00    +0.241 C 
ATOM     24  O   UNL     1      -2.062  -9.834  12.803  0.00  0.00    -0.273 OA
BRANCH  23  25
ATOM     25  C   UNL     1      -2.458  -9.848  11.430  0.00  0.00    +0.078 C 
ATOM     26  C   UNL     1      -2.697  -9.828  10.641  0.00  0.00    +0.010 C 
ATOM     27  C   UNL     1      -1.930  -9.602  10.846  0.00  0.00    +0.010 C 
ENDBRANCH  23  25
ENDBRANCH  18  22
ENDBRANCH  13  14
BRANCH   8   4
ATOM      1  F   UNL     1      -5.537 -10.166  19.840  0.00  0.00    -0.204 F 
ATOM      2  C   UNL     1      -6.128 -10.249  19.270  0.00  0.00    +0.140 A 
ATOM      3  C   UNL     1      -5.961 -10.096  18.477  0.00  0.00    +0.031 A 
ATOM      4  C   UNL     1      -6.552 -10.178  17.907  0.00  0.00    +0.020 A 
ATOM      5  C   UNL     1      -7.310 -10.414  18.130  0.00  0.00    +0.002 A 
ATOM      6  C   UNL     1      -7.477 -10.568  18.924  0.00  0.00    +0.002 A 
ATOM      7  C   UNL     1      -6.887 -10.485  19.494  0.00  0.00    +0.030 A 
ENDBRANCH   8   4
TORSDOF 4
ENDMDL
