MODEL 1
REMARK VINA RESULT:      -9.7      0.000      0.000
REMARK  Name = 
REMARK  6 active torsions:
REMARK  status: ('A' for Active; 'I' for Inactive)
REMARK    1  A    between atoms: C_4  and  C_28
REMARK    2  A    between atoms: C_6  and  C_7
REMARK    3  A    between atoms: C_14  and  C_15
REMARK    4  A    between atoms: C_15  and  N_16
REMARK    5  A    between atoms: N_19  and  C_20
REMARK    6  A    between atoms: C_22  and  C_26
REMARK                            x       y       z     vdW  Elec       q    Type
REMARK                         _______ _______ _______ _____ _____    ______ ____
ROOT
ATOM      7  C   UNL     1      -1.861   1.685  23.914  0.00  0.00    +0.056 C 
ATOM      8  C   UNL     1      -1.359   2.261  23.767  0.00  0.00    +0.078 C 
ATOM      9  N   UNL     1      -1.166   1.472  23.912  0.00  0.00    -0.272 NA
ATOM     10  C   UNL     1      -2.065   0.957  24.072  0.00  0.00    +0.072 C 
ATOM     11  C   UNL     1      -2.388   0.405  24.203  0.00  0.00    +0.018 C 
ATOM     12  C   UNL     1      -1.664   0.912  24.055  0.00  0.00    +0.010 C 
ATOM     13  C   UNL     1      -0.890   0.500  24.087  0.00  0.00    +0.018 C 
ATOM     14  C   UNL     1      -0.365   1.036  23.947  0.00  0.00    +0.079 C 
ENDROOT
BRANCH   7   6
ATOM      1  C   UNL     1      -2.857   2.165  22.499  0.00  0.00    +0.153 C 
ATOM      2  N   UNL     1      -3.121   2.098  23.278  0.00  0.00    -0.253 N 
ATOM      3  N   UNL     1      -3.890   2.240  23.543  0.00  0.00    -0.174 NA
ATOM      4  C   UNL     1      -3.907   2.107  24.357  0.00  0.00    +0.079 A 
ATOM      5  C   UNL     1      -3.150   1.883  24.595  0.00  0.00    +0.031 A 
ATOM      6  C   UNL     1      -2.664   1.878  23.928  0.00  0.00    +0.058 A 
BRANCH   4  28
ATOM     28  C   UNL     1      -4.567   2.184  24.846  0.00  0.00    +0.042 C 
ATOM     29  C   UNL     1      -4.711   2.803  25.372  0.00  0.00    +0.006 C 
ATOM     30  C   UNL     1      -5.431   2.658  25.747  0.00  0.00    +0.000 C 
ATOM     31  C   UNL     1      -5.732   1.948  25.452  0.00  0.00    +0.000 C 
ATOM     32  C   UNL     1      -5.199   1.655  24.895  0.00  0.00    +0.006 C 
ENDBRANCH   4  28
ENDBRANCH   7   6
BRANCH  14  15
ATOM     15  C   UNL     1       0.447   1.152  23.871  0.00  0.00    +0.133 C 
BRANCH  15  16
ATOM     16  N   UNL     1       0.905   0.609  23.452  0.00  0.00    -0.185 NA
ATOM     17  C   UNL     1       1.719   0.722  23.384  0.00  0.00    +0.344 C 
ATOM     18  O   UNL     1       2.076   1.378  23.734  0.00  0.00    -0.249 OA
ATOM     19  N   UNL     1       2.177   0.178  22.965  0.00  0.00    -0.161 NA
BRANCH  19  20
ATOM     20  C   UNL     1       2.992   0.291  22.896  0.00  0.00    +0.076 A 
ATOM     21  C   UNL     1       3.511  -0.172  23.340  0.00  0.00    +0.027 A 
ATOM     22  C   UNL     1       4.326  -0.060  23.272  0.00  0.00    +0.070 A 
ATOM     23  C   UNL     1       4.620   0.516  22.759  0.00  0.00    +0.010 A 
ATOM     24  C   UNL     1       4.101   0.979  22.316  0.00  0.00    +0.002 A 
ATOM     25  C   UNL     1       3.288   0.866  22.384  0.00  0.00    +0.017 A 
BRANCH  22  26
ATOM     26  C   UNL     1       4.845  -0.523  23.715  0.00  0.00    +0.100 C 
ATOM     27  N   UNL     1       5.365  -0.985  24.159  0.00  0.00    -0.191 NA
ENDBRANCH  22  26
ENDBRANCH  19  20
ENDBRANCH  15  16
ENDBRANCH  14  15
TORSDOF 6
ENDMDL
MODEL 2
REMARK VINA RESULT:      -9.5      4.144      5.473
REMARK  Name = 
REMARK  6 active torsions:
REMARK  status: ('A' for Active; 'I' for Inactive)
REMARK    1  A    between atoms: C_4  and  C_28
REMARK    2  A    between atoms: C_6  and  C_7
REMARK    3  A    between atoms: C_14  and  C_15
REMARK    4  A    between atoms: C_15  and  N_16
REMARK    5  A    between atoms: N_19  and  C_20
REMARK    6  A    between atoms: C_22  and  C_26
REMARK                            x       y       z     vdW  Elec       q    Type
REMARK                         _______ _______ _______ _____ _____    ______ ____
ROOT
ATOM      7  C   UNL     1      -3.552   2.786  25.232  0.00  0.00    +0.056 C 
ATOM      8  C   UNL     1      -3.397   2.139  25.636  0.00  0.00    +0.078 C 
ATOM      9  N   UNL     1      -3.972   2.221  25.049  0.00  0.00    -0.272 NA
ATOM     10  C   UNL     1      -3.925   3.211  24.707  0.00  0.00    +0.072 C 
ATOM     11  C   UNL     1      -4.140   3.687  24.314  0.00  0.00    +0.018 C 
ATOM     12  C   UNL     1      -4.119   2.859  24.658  0.00  0.00    +0.010 C 
ATOM     13  C   UNL     1      -4.696   2.288  24.325  0.00  0.00    +0.018 C 
ATOM     14  C   UNL     1      -4.575   1.633  24.699  0.00  0.00    +0.079 C 
ENDROOT
BRANCH   7   6
ATOM      1  C   UNL     1      -3.798   3.896  26.622  0.00  0.00    +0.153 C 
ATOM      2  N   UNL     1      -3.215   3.966  26.043  0.00  0.00    -0.253 N 
ATOM      3  N   UNL     1      -2.642   4.558  26.000  0.00  0.00    -0.174 NA
ATOM      4  C   UNL     1      -2.175   4.414  25.336  0.00  0.00    +0.079 A 
ATOM      5  C   UNL     1      -2.459   3.733  24.968  0.00  0.00    +0.031 A 
ATOM      6  C   UNL     1      -3.101   3.456  25.404  0.00  0.00    +0.058 A 
BRANCH   4  28
ATOM     28  C   UNL     1      -1.536   4.872  25.085  0.00  0.00    +0.042 C 
ATOM     29  C   UNL     1      -1.536   5.689  24.977  0.00  0.00    +0.006 C 
ATOM     30  C   UNL     1      -0.785   5.914  24.723  0.00  0.00    +0.000 C 
ATOM     31  C   UNL     1      -0.319   5.235  24.673  0.00  0.00    +0.000 C 
ATOM     32  C   UNL     1      -0.783   4.590  24.896  0.00  0.00    +0.006 C 
ENDBRANCH   4  28
ENDBRANCH   7   6
BRANCH  14  15
ATOM     15  C   UNL     1      -4.836   0.852  24.753  0.00  0.00    +0.133 C 
BRANCH  15  16
ATOM     16  N   UNL     1      -4.616   0.303  24.178  0.00  0.00    -0.185 NA
ATOM     17  C   UNL     1      -4.304  -0.427  24.404  0.00  0.00    +0.344 C 
ATOM     18  O   UNL     1      -4.212  -0.607  25.203  0.00  0.00    -0.249 OA
ATOM     19  N   UNL     1      -4.085  -0.977  23.829  0.00  0.00    -0.161 NA
BRANCH  19  20
ATOM     20  C   UNL     1      -3.773  -1.707  24.054  0.00  0.00    +0.076 A 
ATOM     21  C   UNL     1      -2.978  -1.768  24.266  0.00  0.00    +0.027 A 
ATOM     22  C   UNL     1      -2.666  -2.498  24.491  0.00  0.00    +0.070 A 
ATOM     23  C   UNL     1      -3.150  -3.166  24.504  0.00  0.00    +0.010 A 
ATOM     24  C   UNL     1      -3.945  -3.105  24.292  0.00  0.00    +0.002 A 
ATOM     25  C   UNL     1      -4.256  -2.375  24.068  0.00  0.00    +0.017 A 
BRANCH  22  26
ATOM     26  C   UNL     1      -1.871  -2.560  24.702  0.00  0.00    +0.100 C 
ATOM     27  N   UNL     1      -1.076  -2.621  24.915  0.00  0.00    -0.191 NA
ENDBRANCH  22  26
ENDBRANCH  19  20
ENDBRANCH  15  16
ENDBRANCH  14  15
TORSDOF 6
ENDMDL
MODEL 3
REMARK VINA RESULT:      -8.1      1.876      2.645
REMARK  Name = 
REMARK  6 active torsions:
REMARK  status: ('A' for Active; 'I' for Inactive)
REMARK    1  A    between atoms: C_4  and  C_28
REMARK    2  A    between atoms: C_6  and  C_7
REMARK    3  A    between atoms: C_14  and  C_15
REMARK    4  A    between atoms: C_15  and  N_16
REMARK    5  A    between atoms: N_19  and  C_20
REMARK    6  A    between atoms: C_22  and  C_26
REMARK                            x       y       z     vdW  Elec       q    Type
REMARK                         _______ _______ _______ _____ _____    ______ ____
ROOT
ATOM      7  C   UNL     1      -1.176  -0.192  24.445  0.00  0.00    +0.056 C 
ATOM      8  C   UNL     1      -0.467  -0.471  24.601  0.00  0.00    +0.078 C 
ATOM      9  N   UNL     1      -0.637   0.241  24.218  0.00  0.00    -0.272 NA
ATOM     10  C   UNL     1      -1.681   0.321  24.165  0.00  0.00    +0.072 C 
ATOM     11  C   UNL     1      -2.217   0.648  23.985  0.00  0.00    +0.018 C 
ATOM     12  C   UNL     1      -1.336   0.508  24.069  0.00  0.00    +0.010 C 
ATOM     13  C   UNL     1      -0.813   1.131  23.740  0.00  0.00    +0.018 C 
ATOM     14  C   UNL     1      -0.100   0.893  23.874  0.00  0.00    +0.079 C 
ENDROOT
BRANCH   7   6
ATOM      1  C   UNL     1      -1.733  -0.433  26.135  0.00  0.00    +0.153 C 
ATOM      2  N   UNL     1      -2.078  -0.758  25.459  0.00  0.00    -0.253 N 
ATOM      3  N   UNL     1      -2.739  -1.251  25.442  0.00  0.00    -0.174 NA
ATOM      4  C   UNL     1      -2.892  -1.446  24.655  0.00  0.00    +0.079 A 
ATOM      5  C   UNL     1      -2.325  -1.072  24.186  0.00  0.00    +0.031 A 
ATOM      6  C   UNL     1      -1.822  -0.648  24.683  0.00  0.00    +0.058 A 
BRANCH   4  28
ATOM     28  C   UNL     1      -3.504  -1.928  24.385  0.00  0.00    +0.042 C 
ATOM     29  C   UNL     1      -3.507  -2.753  24.382  0.00  0.00    +0.006 C 
ATOM     30  C   UNL     1      -4.226  -3.005  24.066  0.00  0.00    +0.000 C 
ATOM     31  C   UNL     1      -4.667  -2.335  23.873  0.00  0.00    +0.000 C 
ATOM     32  C   UNL     1      -4.222  -1.669  24.070  0.00  0.00    +0.006 C 
ENDBRANCH   4  28
ENDBRANCH   7   6
BRANCH  14  15
ATOM     15  C   UNL     1       0.690   1.102  23.769  0.00  0.00    +0.133 C 
BRANCH  15  16
ATOM     16  N   UNL     1       1.183   0.635  23.300  0.00  0.00    -0.185 NA
ATOM     17  C   UNL     1       2.000   0.747  23.322  0.00  0.00    +0.344 C 
ATOM     18  O   UNL     1       2.325   1.326  23.812  0.00  0.00    -0.249 OA
ATOM     19  N   UNL     1       2.492   0.280  22.853  0.00  0.00    -0.161 NA
BRANCH  19  20
ATOM     20  C   UNL     1       3.310   0.391  22.874  0.00  0.00    +0.076 A 
ATOM     21  C   UNL     1       3.783  -0.111  23.326  0.00  0.00    +0.027 A 
ATOM     22  C   UNL     1       4.600   0.000  23.347  0.00  0.00    +0.070 A 
ATOM     23  C   UNL     1       4.944   0.615  22.916  0.00  0.00    +0.010 A 
ATOM     24  C   UNL     1       4.470   1.117  22.465  0.00  0.00    +0.002 A 
ATOM     25  C   UNL     1       3.654   1.006  22.444  0.00  0.00    +0.017 A 
BRANCH  22  26
ATOM     26  C   UNL     1       5.074  -0.502  23.799  0.00  0.00    +0.100 C 
ATOM     27  N   UNL     1       5.546  -1.006  24.251  0.00  0.00    -0.191 NA
ENDBRANCH  22  26
ENDBRANCH  19  20
ENDBRANCH  15  16
ENDBRANCH  14  15
TORSDOF 6
ENDMDL
MODEL 4
REMARK VINA RESULT:      -8.1      1.386      7.072
REMARK  Name = 
REMARK  6 active torsions:
REMARK  status: ('A' for Active; 'I' for Inactive)
REMARK    1  A    between atoms: C_4  and  C_28
REMARK    2  A    between atoms: C_6  and  C_7
REMARK    3  A    between atoms: C_14  and  C_15
REMARK    4  A    between atoms: C_15  and  N_16
REMARK    5  A    between atoms: N_19  and  C_20
REMARK    6  A    between atoms: C_22  and  C_26
REMARK                            x       y       z     vdW  Elec       q    Type
REMARK                         _______ _______ _______ _____ _____    ______ ____
ROOT
ATOM      7  C   UNL     1       0.758   0.256  23.336  0.00  0.00    +0.056 C 
ATOM      8  C   UNL     1       0.280  -0.357  23.311  0.00  0.00    +0.078 C 
ATOM      9  N   UNL     1       0.109   0.382  23.639  0.00  0.00    -0.272 NA
ATOM     10  C   UNL     1       0.960   0.981  23.511  0.00  0.00    +0.072 C 
ATOM     11  C   UNL     1       1.271   1.550  23.587  0.00  0.00    +0.018 C 
ATOM     12  C   UNL     1       0.584   0.978  23.659  0.00  0.00    +0.010 C 
ATOM     13  C   UNL     1      -0.136   1.287  24.054  0.00  0.00    +0.018 C 
ATOM     14  C   UNL     1      -0.636   0.710  24.050  0.00  0.00    +0.079 C 
ENDROOT
BRANCH   7   6
ATOM      1  C   UNL     1       1.115  -0.330  21.677  0.00  0.00    +0.153 C 
ATOM      2  N   UNL     1       1.673  -0.106  22.243  0.00  0.00    -0.253 N 
ATOM      3  N   UNL     1       2.492  -0.113  22.145  0.00  0.00    -0.174 NA
ATOM      4  C   UNL     1       2.835   0.152  22.847  0.00  0.00    +0.079 A 
ATOM      5  C   UNL     1       2.227   0.323  23.379  0.00  0.00    +0.031 A 
ATOM      6  C   UNL     1       1.509   0.163  23.005  0.00  0.00    +0.058 A 
BRANCH   4  28
ATOM     28  C   UNL     1       3.643   0.233  22.992  0.00  0.00    +0.042 C 
ATOM     29  C   UNL     1       4.114   0.874  22.773  0.00  0.00    +0.006 C 
ATOM     30  C   UNL     1       4.884   0.723  23.027  0.00  0.00    +0.000 C 
ATOM     31  C   UNL     1       4.889  -0.011  23.403  0.00  0.00    +0.000 C 
ATOM     32  C   UNL     1       4.122  -0.315  23.381  0.00  0.00    +0.006 C 
ENDBRANCH   4  28
ENDBRANCH   7   6
BRANCH  14  15
ATOM     15  C   UNL     1      -1.400   0.504  24.282  0.00  0.00    +0.133 C 
BRANCH  15  16
ATOM     16  N   UNL     1      -2.049   0.902  23.965  0.00  0.00    -0.185 NA
ATOM     17  C   UNL     1      -2.745   0.969  24.402  0.00  0.00    +0.344 C 
ATOM     18  O   UNL     1      -2.793   0.639  25.156  0.00  0.00    -0.249 OA
ATOM     19  N   UNL     1      -3.394   1.367  24.084  0.00  0.00    -0.161 NA
BRANCH  19  20
ATOM     20  C   UNL     1      -4.091   1.435  24.521  0.00  0.00    +0.076 A 
ATOM     21  C   UNL     1      -4.340   2.174  24.789  0.00  0.00    +0.027 A 
ATOM     22  C   UNL     1      -5.036   2.242  25.226  0.00  0.00    +0.070 A 
ATOM     23  C   UNL     1      -5.484   1.570  25.394  0.00  0.00    +0.010 A 
ATOM     24  C   UNL     1      -5.236   0.831  25.125  0.00  0.00    +0.002 A 
ATOM     25  C   UNL     1      -4.540   0.763  24.689  0.00  0.00    +0.017 A 
BRANCH  22  26
ATOM     26  C   UNL     1      -5.285   2.982  25.494  0.00  0.00    +0.100 C 
ATOM     27  N   UNL     1      -5.533   3.721  25.764  0.00  0.00    -0.191 NA
ENDBRANCH  22  26
ENDBRANCH  19  20
ENDBRANCH  15  16
ENDBRANCH  14  15
TORSDOF 6
ENDMDL
MODEL 5
REMARK VINA RESULT:      -7.7      3.105      5.166
REMARK  Name = 
REMARK  6 active torsions:
REMARK  status: ('A' for Active; 'I' for Inactive)
REMARK    1  A    between atoms: C_4  and  C_28
REMARK    2  A    between atoms: C_6  and  C_7
REMARK    3  A    between atoms: C_14  and  C_15
REMARK    4  A    between atoms: C_15  and  N_16
REMARK    5  A    between atoms: N_19  and  C_20
REMARK    6  A    between atoms: C_22  and  C_26
REMARK                            x       y       z     vdW  Elec       q    Type
REMARK                         _______ _______ _______ _____ _____    ______ ____
ROOT
ATOM      7  C   UNL     1      -0.917  -0.384  24.727  0.00  0.00    +0.056 C 
ATOM      8  C   UNL     1      -1.018   0.149  25.285  0.00  0.00    +0.078 C 
ATOM      9  N   UNL     1      -0.514   0.214  24.634  0.00  0.00    -0.272 NA
ATOM     10  C   UNL     1      -0.612  -0.670  24.078  0.00  0.00    +0.072 C 
ATOM     11  C   UNL     1      -0.449  -1.038  23.563  0.00  0.00    +0.018 C 
ATOM     12  C   UNL     1      -0.421  -0.313  24.091  0.00  0.00    +0.010 C 
ATOM     13  C   UNL     1       0.122   0.328  23.837  0.00  0.00    +0.018 C 
ATOM     14  C   UNL     1       0.052   0.877  24.364  0.00  0.00    +0.079 C 
ENDROOT
BRANCH   7   6
ATOM      1  C   UNL     1      -0.440  -1.850  25.648  0.00  0.00    +0.153 C 
ATOM      2  N   UNL     1      -1.134  -1.756  25.212  0.00  0.00    -0.253 N 
ATOM      3  N   UNL     1      -1.731  -2.318  25.122  0.00  0.00    -0.174 NA
ATOM      4  C   UNL     1      -2.319  -1.993  24.643  0.00  0.00    +0.079 A 
ATOM      5  C   UNL     1      -2.085  -1.229  24.437  0.00  0.00    +0.031 A 
ATOM      6  C   UNL     1      -1.354  -1.083  24.788  0.00  0.00    +0.058 A 
BRANCH   4  28
ATOM     28  C   UNL     1      -3.017  -2.367  24.412  0.00  0.00    +0.042 C 
ATOM     29  C   UNL     1      -3.132  -3.180  24.342  0.00  0.00    +0.006 C 
ATOM     30  C   UNL     1      -3.909  -3.308  24.096  0.00  0.00    +0.000 C 
ATOM     31  C   UNL     1      -4.274  -2.573  24.015  0.00  0.00    +0.000 C 
ATOM     32  C   UNL     1      -3.723  -1.990  24.209  0.00  0.00    +0.006 C 
ENDBRANCH   4  28
ENDBRANCH   7   6
BRANCH  14  15
ATOM     15  C   UNL     1       0.326   1.627  24.568  0.00  0.00    +0.133 C 
BRANCH  15  16
ATOM     16  N   UNL     1       0.049   2.292  24.166  0.00  0.00    -0.185 NA
ATOM     17  C   UNL     1      -0.326   2.897  24.581  0.00  0.00    +0.344 C 
ATOM     18  O   UNL     1      -0.425   2.839  25.398  0.00  0.00    -0.249 OA
ATOM     19  N   UNL     1      -0.604   3.562  24.179  0.00  0.00    -0.161 NA
BRANCH  19  20
ATOM     20  C   UNL     1      -0.979   4.169  24.594  0.00  0.00    +0.076 A 
ATOM     21  C   UNL     1      -1.685   4.019  24.993  0.00  0.00    +0.027 A 
ATOM     22  C   UNL     1      -2.061   4.625  25.408  0.00  0.00    +0.070 A 
ATOM     23  C   UNL     1      -1.730   5.381  25.423  0.00  0.00    +0.010 A 
ATOM     24  C   UNL     1      -1.024   5.530  25.024  0.00  0.00    +0.002 A 
ATOM     25  C   UNL     1      -0.649   4.924  24.609  0.00  0.00    +0.017 A 
BRANCH  22  26
ATOM     26  C   UNL     1      -2.767   4.476  25.808  0.00  0.00    +0.100 C 
ATOM     27  N   UNL     1      -3.474   4.325  26.208  0.00  0.00    -0.191 NA
ENDBRANCH  22  26
ENDBRANCH  19  20
ENDBRANCH  15  16
ENDBRANCH  14  15
TORSDOF 6
ENDMDL
