MODEL 1
REMARK VINA RESULT:      -9.6      0.000      0.000
REMARK  Name = 
REMARK  8 active torsions:
REMARK  status: ('A' for Active; 'I' for Inactive)
REMARK    1  A    between atoms: O_2  and  C_3
REMARK    2  A    between atoms: C_3  and  C_4
REMARK    3  A    between atoms: C_4  and  O_5
REMARK    4  A    between atoms: O_5  and  C_6
REMARK    5  A    between atoms: C_8  and  C_12
REMARK    6  A    between atoms: C_15  and  C_17
REMARK    7  A    between atoms: N_21  and  C_22
REMARK    8  A    between atoms: C_22  and  C_23
REMARK                            x       y       z     vdW  Elec       q    Type
REMARK                         _______ _______ _______ _____ _____    ______ ____
ROOT
ATOM     12  C   UNL     1      -0.477   1.554  25.029  0.00  0.00    +0.204 A 
ATOM     13  N   UNL     1      -0.221   1.745  25.790  0.00  0.00    -0.056 NA
ATOM     14  O   UNL     1      -0.489   2.506  25.965  0.00  0.00    -0.336 OA
ATOM     15  C   UNL     1      -0.910   2.784  25.313  0.00  0.00    +0.251 A 
ATOM     16  N   UNL     1      -0.903   2.195  24.734  0.00  0.00    -0.190 NA
ENDROOT
BRANCH  12   8
ATOM      6  C   UNL     1      -0.538  -0.563  24.501  0.00  0.00    +0.225 A 
ATOM      7  C   UNL     1      -0.683   0.146  24.897  0.00  0.00    +0.061 A 
ATOM      8  C   UNL     1      -0.332   0.845  24.633  0.00  0.00    +0.045 A 
ATOM      9  C   UNL     1       0.164   0.834  23.975  0.00  0.00    +0.024 A 
ATOM     10  C   UNL     1       0.309   0.125  23.579  0.00  0.00    +0.102 A 
ATOM     11  N   UNL     1      -0.042  -0.574  23.841  0.00  0.00    -0.210 NA
BRANCH   6   5
ATOM      5  O   UNL     1      -0.888  -1.262  24.764  0.00  0.00    -0.457 OA
BRANCH   5   4
ATOM      4  C   UNL     1      -1.608  -1.508  24.445  0.00  0.00    +0.239 C 
BRANCH   4   3
ATOM      3  C   UNL     1      -1.980  -2.183  24.741  0.00  0.00    +0.189 C 
BRANCH   3   2
ATOM      1  C   UNL     1      -3.335  -2.637  24.705  0.00  0.00    +0.174 C 
ATOM      2  O   UNL     1      -2.610  -2.520  24.328  0.00  0.00    -0.347 OA
ENDBRANCH   3   2
ENDBRANCH   4   3
ENDBRANCH   5   4
ENDBRANCH   6   5
ENDBRANCH  12   8
BRANCH  15  17
ATOM     17  C   UNL     1      -1.275   3.521  25.249  0.00  0.00    +0.138 C 
ATOM     18  C   UNL     1      -0.897   4.237  25.089  0.00  0.00    +0.027 C 
ATOM     19  C   UNL     1      -1.471   4.831  25.075  0.00  0.00    +0.019 C 
ATOM     20  C   UNL     1      -2.203   4.481  25.227  0.00  0.00    +0.073 C 
ATOM     21  N   UNL     1      -2.082   3.672  25.334  0.00  0.00    -0.263 NA
BRANCH  21  22
ATOM     22  C   UNL     1      -2.665   3.113  25.498  0.00  0.00    +0.101 C 
BRANCH  22  23
ATOM     23  C   UNL     1      -3.461   3.305  25.398  0.00  0.00    +0.013 A 
ATOM     24  C   UNL     1      -3.841   3.135  24.685  0.00  0.00    +0.000 A 
ATOM     25  C   UNL     1      -4.636   3.328  24.586  0.00  0.00    +0.020 A 
ATOM     26  C   UNL     1      -5.053   3.690  25.198  0.00  0.00    +0.099 A 
ATOM     27  N   UNL     1      -4.674   3.860  25.911  0.00  0.00    -0.243 NA
ATOM     28  C   UNL     1      -3.878   3.667  26.011  0.00  0.00    +0.096 A 
ENDBRANCH  22  23
ENDBRANCH  21  22
ENDBRANCH  15  17
TORSDOF 8
ENDMDL
MODEL 2
REMARK VINA RESULT:      -9.6      1.428      4.718
REMARK  Name = 
REMARK  8 active torsions:
REMARK  status: ('A' for Active; 'I' for Inactive)
REMARK    1  A    between atoms: O_2  and  C_3
REMARK    2  A    between atoms: C_3  and  C_4
REMARK    3  A    between atoms: C_4  and  O_5
REMARK    4  A    between atoms: O_5  and  C_6
REMARK    5  A    between atoms: C_8  and  C_12
REMARK    6  A    between atoms: C_15  and  C_17
REMARK    7  A    between atoms: N_21  and  C_22
REMARK    8  A    between atoms: C_22  and  C_23
REMARK                            x       y       z     vdW  Elec       q    Type
REMARK                         _______ _______ _______ _____ _____    ______ ____
ROOT
ATOM     12  C   UNL     1      -0.816   2.722  25.318  0.00  0.00    +0.204 A 
ATOM     13  N   UNL     1      -0.299   2.434  25.893  0.00  0.00    -0.056 NA
ATOM     14  O   UNL     1       0.032   1.732  25.610  0.00  0.00    -0.336 OA
ATOM     15  C   UNL     1      -0.281   1.588  24.860  0.00  0.00    +0.251 A 
ATOM     16  N   UNL     1      -0.805   2.199  24.680  0.00  0.00    -0.190 NA
ENDROOT
BRANCH  12   8
ATOM      6  C   UNL     1      -2.486   4.069  25.716  0.00  0.00    +0.225 A 
ATOM      7  C   UNL     1      -2.037   3.379  25.662  0.00  0.00    +0.061 A 
ATOM      8  C   UNL     1      -1.265   3.412  25.372  0.00  0.00    +0.045 A 
ATOM      9  C   UNL     1      -0.942   4.133  25.137  0.00  0.00    +0.024 A 
ATOM     10  C   UNL     1      -1.391   4.823  25.191  0.00  0.00    +0.102 A 
ATOM     11  N   UNL     1      -2.163   4.792  25.481  0.00  0.00    -0.210 NA
BRANCH   6   5
ATOM      5  O   UNL     1      -3.258   4.038  26.005  0.00  0.00    -0.457 OA
BRANCH   5   4
ATOM      4  C   UNL     1      -3.866   3.747  25.530  0.00  0.00    +0.239 C 
BRANCH   4   3
ATOM      3  C   UNL     1      -4.617   3.626  25.849  0.00  0.00    +0.189 C 
BRANCH   3   2
ATOM      1  C   UNL     1      -5.683   2.731  25.522  0.00  0.00    +0.174 C 
ATOM      2  O   UNL     1      -5.244   3.410  25.358  0.00  0.00    -0.347 OA
ENDBRANCH   3   2
ENDBRANCH   4   3
ENDBRANCH   5   4
ENDBRANCH   6   5
ENDBRANCH  12   8
BRANCH  15  17
ATOM     17  C   UNL     1      -0.102   0.945  24.376  0.00  0.00    +0.138 C 
ATOM     18  C   UNL     1       0.403   0.955  23.723  0.00  0.00    +0.027 C 
ATOM     19  C   UNL     1       0.421   0.195  23.402  0.00  0.00    +0.019 C 
ATOM     20  C   UNL     1      -0.072  -0.285  23.857  0.00  0.00    +0.073 C 
ATOM     21  N   UNL     1      -0.395   0.178  24.459  0.00  0.00    -0.263 NA
BRANCH  21  22
ATOM     22  C   UNL     1      -0.919  -0.081  25.041  0.00  0.00    +0.101 C 
BRANCH  22  23
ATOM     23  C   UNL     1      -1.335  -0.785  24.938  0.00  0.00    +0.013 A 
ATOM     24  C   UNL     1      -2.127  -0.765  24.704  0.00  0.00    +0.000 A 
ATOM     25  C   UNL     1      -2.543  -1.469  24.601  0.00  0.00    +0.020 A 
ATOM     26  C   UNL     1      -2.170  -2.193  24.732  0.00  0.00    +0.099 A 
ATOM     27  N   UNL     1      -1.379  -2.213  24.966  0.00  0.00    -0.243 NA
ATOM     28  C   UNL     1      -0.962  -1.508  25.069  0.00  0.00    +0.096 A 
ENDBRANCH  22  23
ENDBRANCH  21  22
ENDBRANCH  15  17
TORSDOF 8
ENDMDL
MODEL 3
REMARK VINA RESULT:      -9.5      2.025      4.415
REMARK  Name = 
REMARK  8 active torsions:
REMARK  status: ('A' for Active; 'I' for Inactive)
REMARK    1  A    between atoms: O_2  and  C_3
REMARK    2  A    between atoms: C_3  and  C_4
REMARK    3  A    between atoms: C_4  and  O_5
REMARK    4  A    between atoms: O_5  and  C_6
REMARK    5  A    between atoms: C_8  and  C_12
REMARK    6  A    between atoms: C_15  and  C_17
REMARK    7  A    between atoms: N_21  and  C_22
REMARK    8  A    between atoms: C_22  and  C_23
REMARK                            x       y       z     vdW  Elec       q    Type
REMARK                         _______ _______ _______ _____ _____    ______ ____
ROOT
ATOM     12  C   UNL     1      -3.109   3.362  24.716  0.00  0.00    +0.204 A 
ATOM     13  N   UNL     1      -3.567   3.534  24.051  0.00  0.00    -0.056 NA
ATOM     14  O   UNL     1      -4.242   3.059  24.077  0.00  0.00    -0.336 OA
ATOM     15  C   UNL     1      -4.200   2.593  24.757  0.00  0.00    +0.251 A 
ATOM     16  N   UNL     1      -3.500   2.781  25.152  0.00  0.00    -0.190 NA
ENDROOT
BRANCH  12   8
ATOM      6  C   UNL     1      -0.983   3.594  25.151  0.00  0.00    +0.225 A 
ATOM      7  C   UNL     1      -1.705   3.246  24.957  0.00  0.00    +0.061 A 
ATOM      8  C   UNL     1      -2.386   3.710  24.910  0.00  0.00    +0.045 A 
ATOM      9  C   UNL     1      -2.345   4.520  25.056  0.00  0.00    +0.024 A 
ATOM     10  C   UNL     1      -1.623   4.868  25.250  0.00  0.00    +0.102 A 
ATOM     11  N   UNL     1      -0.941   4.406  25.297  0.00  0.00    -0.210 NA
BRANCH   6   5
ATOM      5  O   UNL     1      -0.301   3.132  25.198  0.00  0.00    -0.457 OA
BRANCH   5   4
ATOM      4  C   UNL     1      -0.083   2.651  24.565  0.00  0.00    +0.239 C 
BRANCH   4   3
ATOM      3  C   UNL     1       0.443   2.027  24.683  0.00  0.00    +0.189 C 
BRANCH   3   2
ATOM      1  C   UNL     1       0.948   1.063  23.757  0.00  0.00    +0.174 C 
ATOM      2  O   UNL     1       0.975   1.818  24.088  0.00  0.00    -0.347 OA
ENDBRANCH   3   2
ENDBRANCH   4   3
ENDBRANCH   5   4
ENDBRANCH   6   5
ENDBRANCH  12   8
BRANCH  15  17
ATOM     17  C   UNL     1      -4.759   2.038  25.000  0.00  0.00    +0.138 C 
ATOM     18  C   UNL     1      -5.476   2.204  25.375  0.00  0.00    +0.027 C 
ATOM     19  C   UNL     1      -5.861   1.488  25.518  0.00  0.00    +0.019 C 
ATOM     20  C   UNL     1      -5.382   0.880  25.232  0.00  0.00    +0.073 C 
ATOM     21  N   UNL     1      -4.701   1.220  24.912  0.00  0.00    -0.263 NA
BRANCH  21  22
ATOM     22  C   UNL     1      -4.073   0.813  24.566  0.00  0.00    +0.101 C 
BRANCH  22  23
ATOM     23  C   UNL     1      -4.023  -0.007  24.638  0.00  0.00    +0.013 A 
ATOM     24  C   UNL     1      -4.267  -0.492  24.017  0.00  0.00    +0.000 A 
ATOM     25  C   UNL     1      -4.216  -1.312  24.089  0.00  0.00    +0.020 A 
ATOM     26  C   UNL     1      -3.922  -1.647  24.783  0.00  0.00    +0.099 A 
ATOM     27  N   UNL     1      -3.678  -1.163  25.405  0.00  0.00    -0.243 NA
ATOM     28  C   UNL     1      -3.729  -0.342  25.332  0.00  0.00    +0.096 A 
ENDBRANCH  22  23
ENDBRANCH  21  22
ENDBRANCH  15  17
TORSDOF 8
ENDMDL
MODEL 4
REMARK VINA RESULT:      -9.4      1.960      5.708
REMARK  Name = 
REMARK  8 active torsions:
REMARK  status: ('A' for Active; 'I' for Inactive)
REMARK    1  A    between atoms: O_2  and  C_3
REMARK    2  A    between atoms: C_3  and  C_4
REMARK    3  A    between atoms: C_4  and  O_5
REMARK    4  A    between atoms: O_5  and  C_6
REMARK    5  A    between atoms: C_8  and  C_12
REMARK    6  A    between atoms: C_15  and  C_17
REMARK    7  A    between atoms: N_21  and  C_22
REMARK    8  A    between atoms: C_22  and  C_23
REMARK                            x       y       z     vdW  Elec       q    Type
REMARK                         _______ _______ _______ _____ _____    ______ ____
ROOT
ATOM     12  C   UNL     1      -4.088   1.643  24.466  0.00  0.00    +0.204 A 
ATOM     13  N   UNL     1      -3.942   1.572  23.657  0.00  0.00    -0.056 NA
ATOM     14  O   UNL     1      -3.781   0.778  23.496  0.00  0.00    -0.336 OA
ATOM     15  C   UNL     1      -3.827   0.360  24.206  0.00  0.00    +0.251 A 
ATOM     16  N   UNL     1      -4.017   0.895  24.805  0.00  0.00    -0.190 NA
ENDROOT
BRANCH  12   8
ATOM      6  C   UNL     1      -3.851   3.523  25.549  0.00  0.00    +0.225 A 
ATOM      7  C   UNL     1      -3.667   2.825  25.150  0.00  0.00    +0.061 A 
ATOM      8  C   UNL     1      -4.272   2.341  24.865  0.00  0.00    +0.045 A 
ATOM      9  C   UNL     1      -5.060   2.555  24.980  0.00  0.00    +0.024 A 
ATOM     10  C   UNL     1      -5.244   3.253  25.380  0.00  0.00    +0.102 A 
ATOM     11  N   UNL     1      -4.640   3.737  25.664  0.00  0.00    -0.210 NA
BRANCH   6   5
ATOM      5  O   UNL     1      -3.247   4.008  25.833  0.00  0.00    -0.457 OA
BRANCH   5   4
ATOM      4  C   UNL     1      -2.683   4.313  25.314  0.00  0.00    +0.239 C 
BRANCH   4   3
ATOM      3  C   UNL     1      -1.986   4.642  25.610  0.00  0.00    +0.189 C 
BRANCH   3   2
ATOM      1  C   UNL     1      -0.814   5.063  24.909  0.00  0.00    +0.174 C 
ATOM      2  O   UNL     1      -1.582   5.212  25.172  0.00  0.00    -0.347 OA
ENDBRANCH   3   2
ENDBRANCH   4   3
ENDBRANCH   5   4
ENDBRANCH   6   5
ENDBRANCH  12   8
BRANCH  15  17
ATOM     17  C   UNL     1      -3.706  -0.450  24.300  0.00  0.00    +0.138 C 
ATOM     18  C   UNL     1      -4.280  -1.039  24.224  0.00  0.00    +0.027 C 
ATOM     19  C   UNL     1      -3.918  -1.767  24.364  0.00  0.00    +0.019 C 
ATOM     20  C   UNL     1      -3.121  -1.629  24.526  0.00  0.00    +0.073 C 
ATOM     21  N   UNL     1      -2.990  -0.815  24.487  0.00  0.00    -0.263 NA
BRANCH  21  22
ATOM     22  C   UNL     1      -2.270  -0.434  24.612  0.00  0.00    +0.101 C 
BRANCH  22  23
ATOM     23  C   UNL     1      -1.601  -0.871  24.818  0.00  0.00    +0.013 A 
ATOM     24  C   UNL     1      -1.410  -0.984  25.613  0.00  0.00    +0.000 A 
ATOM     25  C   UNL     1      -0.742  -1.421  25.818  0.00  0.00    +0.020 A 
ATOM     26  C   UNL     1      -0.264  -1.746  25.230  0.00  0.00    +0.099 A 
ATOM     27  N   UNL     1      -0.455  -1.633  24.435  0.00  0.00    -0.243 NA
ATOM     28  C   UNL     1      -1.124  -1.196  24.229  0.00  0.00    +0.096 A 
ENDBRANCH  22  23
ENDBRANCH  21  22
ENDBRANCH  15  17
TORSDOF 8
ENDMDL
MODEL 5
REMARK VINA RESULT:      -9.3      1.846      3.400
REMARK  Name = 
REMARK  8 active torsions:
REMARK  status: ('A' for Active; 'I' for Inactive)
REMARK    1  A    between atoms: O_2  and  C_3
REMARK    2  A    between atoms: C_3  and  C_4
REMARK    3  A    between atoms: C_4  and  O_5
REMARK    4  A    between atoms: O_5  and  C_6
REMARK    5  A    between atoms: C_8  and  C_12
REMARK    6  A    between atoms: C_15  and  C_17
REMARK    7  A    between atoms: N_21  and  C_22
REMARK    8  A    between atoms: C_22  and  C_23
REMARK                            x       y       z     vdW  Elec       q    Type
REMARK                         _______ _______ _______ _____ _____    ______ ____
ROOT
ATOM     12  C   UNL     1      -3.970  -0.240  24.682  0.00  0.00    +0.204 A 
ATOM     13  N   UNL     1      -4.429  -0.086  24.013  0.00  0.00    -0.056 NA
ATOM     14  O   UNL     1      -4.804   0.641  24.123  0.00  0.00    -0.336 OA
ATOM     15  C   UNL     1      -4.576   0.937  24.859  0.00  0.00    +0.251 A 
ATOM     16  N   UNL     1      -4.061   0.392  25.204  0.00  0.00    -0.190 NA
ENDROOT
BRANCH  12   8
ATOM      6  C   UNL     1      -2.213  -1.505  24.956  0.00  0.00    +0.225 A 
ATOM      7  C   UNL     1      -2.681  -0.837  24.832  0.00  0.00    +0.061 A 
ATOM      8  C   UNL     1      -3.502  -0.908  24.806  0.00  0.00    +0.045 A 
ATOM      9  C   UNL     1      -3.856  -1.646  24.903  0.00  0.00    +0.024 A 
ATOM     10  C   UNL     1      -3.389  -2.315  25.027  0.00  0.00    +0.102 A 
ATOM     11  N   UNL     1      -2.567  -2.245  25.054  0.00  0.00    -0.210 NA
BRANCH   6   5
ATOM      5  O   UNL     1      -1.392  -1.435  24.983  0.00  0.00    -0.457 OA
BRANCH   5   4
ATOM      4  C   UNL     1      -0.973  -1.222  24.305  0.00  0.00    +0.239 C 
BRANCH   4   3
ATOM      3  C   UNL     1      -0.216  -0.899  24.373  0.00  0.00    +0.189 C 
BRANCH   3   2
ATOM      1  C   UNL     1       0.552  -0.124  23.451  0.00  0.00    +0.174 C 
ATOM      2  O   UNL     1       0.273  -0.855  23.710  0.00  0.00    -0.347 OA
ENDBRANCH   3   2
ENDBRANCH   4   3
ENDBRANCH   5   4
ENDBRANCH   6   5
ENDBRANCH  12   8
BRANCH  15  17
ATOM     17  C   UNL     1      -4.820   1.651  25.191  0.00  0.00    +0.138 C 
ATOM     18  C   UNL     1      -5.523   1.778  25.604  0.00  0.00    +0.027 C 
ATOM     19  C   UNL     1      -5.542   2.569  25.838  0.00  0.00    +0.019 C 
ATOM     20  C   UNL     1      -4.852   2.931  25.569  0.00  0.00    +0.073 C 
ATOM     21  N   UNL     1      -4.405   2.363  25.169  0.00  0.00    -0.263 NA
BRANCH  21  22
ATOM     22  C   UNL     1      -3.673   2.487  24.811  0.00  0.00    +0.101 C 
BRANCH  22  23
ATOM     23  C   UNL     1      -3.221   3.147  25.012  0.00  0.00    +0.013 A 
ATOM     24  C   UNL     1      -2.675   3.100  25.629  0.00  0.00    +0.000 A 
ATOM     25  C   UNL     1      -2.223   3.760  25.830  0.00  0.00    +0.020 A 
ATOM     26  C   UNL     1      -2.317   4.467  25.415  0.00  0.00    +0.099 A 
ATOM     27  N   UNL     1      -2.863   4.514  24.798  0.00  0.00    -0.243 NA
ATOM     28  C   UNL     1      -3.315   3.854  24.597  0.00  0.00    +0.096 A 
ENDBRANCH  22  23
ENDBRANCH  21  22
ENDBRANCH  15  17
TORSDOF 8
ENDMDL
MODEL 6
REMARK VINA RESULT:      -9.2      1.614      3.942
REMARK  Name = 
REMARK  8 active torsions:
REMARK  status: ('A' for Active; 'I' for Inactive)
REMARK    1  A    between atoms: O_2  and  C_3
REMARK    2  A    between atoms: C_3  and  C_4
REMARK    3  A    between atoms: C_4  and  O_5
REMARK    4  A    between atoms: O_5  and  C_6
REMARK    5  A    between atoms: C_8  and  C_12
REMARK    6  A    between atoms: C_15  and  C_17
REMARK    7  A    between atoms: N_21  and  C_22
REMARK    8  A    between atoms: C_22  and  C_23
REMARK                            x       y       z     vdW  Elec       q    Type
REMARK                         _______ _______ _______ _____ _____    ______ ____
ROOT
ATOM     12  C   UNL     1      -3.978   3.348  25.666  0.00  0.00    +0.204 A 
ATOM     13  N   UNL     1      -3.914   3.771  26.372  0.00  0.00    -0.056 NA
ATOM     14  O   UNL     1      -3.198   4.182  26.357  0.00  0.00    -0.336 OA
ATOM     15  C   UNL     1      -2.821   4.013  25.643  0.00  0.00    +0.251 A 
ATOM     16  N   UNL     1      -3.304   3.497  25.216  0.00  0.00    -0.190 NA
ENDROOT
BRANCH  12   8
ATOM      6  C   UNL     1      -5.090   1.653  24.857  0.00  0.00    +0.225 A 
ATOM      7  C   UNL     1      -4.461   2.140  25.074  0.00  0.00    +0.061 A 
ATOM      8  C   UNL     1      -4.608   2.860  25.449  0.00  0.00    +0.045 A 
ATOM      9  C   UNL     1      -5.383   3.093  25.607  0.00  0.00    +0.024 A 
ATOM     10  C   UNL     1      -6.012   2.606  25.391  0.00  0.00    +0.102 A 
ATOM     11  N   UNL     1      -5.866   1.886  25.015  0.00  0.00    -0.210 NA
BRANCH   6   5
ATOM      5  O   UNL     1      -4.945   0.933  24.481  0.00  0.00    -0.457 OA
BRANCH   5   4
ATOM      4  C   UNL     1      -4.560   0.326  24.887  0.00  0.00    +0.239 C 
BRANCH   4   3
ATOM      3  C   UNL     1      -4.344  -0.363  24.488  0.00  0.00    +0.189 C 
BRANCH   3   2
ATOM      1  C   UNL     1      -3.828  -1.696  24.512  0.00  0.00    +0.174 C 
ATOM      2  O   UNL     1      -4.046  -1.007  24.910  0.00  0.00    -0.347 OA
ENDBRANCH   3   2
ENDBRANCH   4   3
ENDBRANCH   5   4
ENDBRANCH   6   5
ENDBRANCH  12   8
BRANCH  15  17
ATOM     17  C   UNL     1      -2.091   4.308  25.399  0.00  0.00    +0.138 C 
ATOM     18  C   UNL     1      -1.940   5.077  25.139  0.00  0.00    +0.027 C 
ATOM     19  C   UNL     1      -1.138   5.130  24.951  0.00  0.00    +0.019 C 
ATOM     20  C   UNL     1      -0.794   4.395  25.094  0.00  0.00    +0.073 C 
ATOM     21  N   UNL     1      -1.382   3.886  25.371  0.00  0.00    -0.263 NA
BRANCH  21  22
ATOM     22  C   UNL     1      -1.280   3.096  25.583  0.00  0.00    +0.101 C 
BRANCH  22  23
ATOM     23  C   UNL     1      -0.660   2.659  25.259  0.00  0.00    +0.013 A 
ATOM     24  C   UNL     1      -0.743   2.315  24.514  0.00  0.00    +0.000 A 
ATOM     25  C   UNL     1      -0.124   1.878  24.190  0.00  0.00    +0.020 A 
ATOM     26  C   UNL     1       0.579   1.784  24.610  0.00  0.00    +0.099 A 
ATOM     27  N   UNL     1       0.664   2.128  25.355  0.00  0.00    -0.243 NA
ATOM     28  C   UNL     1       0.043   2.566  25.679  0.00  0.00    +0.096 A 
ENDBRANCH  22  23
ENDBRANCH  21  22
ENDBRANCH  15  17
TORSDOF 8
ENDMDL
MODEL 7
REMARK VINA RESULT:      -9.0      1.321      2.418
REMARK  Name = 
REMARK  8 active torsions:
REMARK  status: ('A' for Active; 'I' for Inactive)
REMARK    1  A    between atoms: O_2  and  C_3
REMARK    2  A    between atoms: C_3  and  C_4
REMARK    3  A    between atoms: C_4  and  O_5
REMARK    4  A    between atoms: O_5  and  C_6
REMARK    5  A    between atoms: C_8  and  C_12
REMARK    6  A    between atoms: C_15  and  C_17
REMARK    7  A    between atoms: N_21  and  C_22
REMARK    8  A    between atoms: C_22  and  C_23
REMARK                            x       y       z     vdW  Elec       q    Type
REMARK                         _______ _______ _______ _____ _____    ______ ____
ROOT
ATOM     12  C   UNL     1      -0.534   1.462  25.057  0.00  0.00    +0.204 A 
ATOM     13  N   UNL     1      -0.338   1.628  25.841  0.00  0.00    -0.056 NA
ATOM     14  O   UNL     1      -0.617   2.384  26.019  0.00  0.00    -0.336 OA
ATOM     15  C   UNL     1      -0.985   2.685  25.345  0.00  0.00    +0.251 A 
ATOM     16  N   UNL     1      -0.933   2.115  24.750  0.00  0.00    -0.190 NA
ENDROOT
BRANCH  12   8
ATOM      6  C   UNL     1       0.340   0.081  23.610  0.00  0.00    +0.225 A 
ATOM      7  C   UNL     1       0.166   0.778  24.016  0.00  0.00    +0.061 A 
ATOM      8  C   UNL     1      -0.361   0.765  24.651  0.00  0.00    +0.045 A 
ATOM      9  C   UNL     1      -0.714   0.056  24.879  0.00  0.00    +0.024 A 
ATOM     10  C   UNL     1      -0.540  -0.641  24.474  0.00  0.00    +0.102 A 
ATOM     11  N   UNL     1      -0.014  -0.629  23.839  0.00  0.00    -0.210 NA
BRANCH   6   5
ATOM      5  O   UNL     1       0.866   0.093  22.975  0.00  0.00    -0.457 OA
BRANCH   5   4
ATOM      4  C   UNL     1       1.678   0.039  23.111  0.00  0.00    +0.239 C 
BRANCH   4   3
ATOM      3  C   UNL     1       2.209   0.156  22.489  0.00  0.00    +0.189 C 
BRANCH   3   2
ATOM      1  C   UNL     1       3.562   0.614  22.469  0.00  0.00    +0.174 C 
ATOM      2  O   UNL     1       3.013   0.013  22.602  0.00  0.00    -0.347 OA
ENDBRANCH   3   2
ENDBRANCH   4   3
ENDBRANCH   5   4
ENDBRANCH   6   5
ENDBRANCH  12   8
BRANCH  15  17
ATOM     17  C   UNL     1      -1.341   3.426  25.277  0.00  0.00    +0.138 C 
ATOM     18  C   UNL     1      -0.953   4.139  25.130  0.00  0.00    +0.027 C 
ATOM     19  C   UNL     1      -1.520   4.738  25.106  0.00  0.00    +0.019 C 
ATOM     20  C   UNL     1      -2.259   4.395  25.237  0.00  0.00    +0.073 C 
ATOM     21  N   UNL     1      -2.148   3.584  25.343  0.00  0.00    -0.263 NA
BRANCH  21  22
ATOM     22  C   UNL     1      -2.740   3.029  25.489  0.00  0.00    +0.101 C 
BRANCH  22  23
ATOM     23  C   UNL     1      -3.533   3.241  25.410  0.00  0.00    +0.013 A 
ATOM     24  C   UNL     1      -3.931   3.098  24.701  0.00  0.00    +0.000 A 
ATOM     25  C   UNL     1      -4.723   3.310  24.622  0.00  0.00    +0.020 A 
ATOM     26  C   UNL     1      -5.120   3.666  25.252  0.00  0.00    +0.099 A 
ATOM     27  N   UNL     1      -4.723   3.810  25.961  0.00  0.00    -0.243 NA
ATOM     28  C   UNL     1      -3.930   3.597  26.040  0.00  0.00    +0.096 A 
ENDBRANCH  22  23
ENDBRANCH  21  22
ENDBRANCH  15  17
TORSDOF 8
ENDMDL
MODEL 8
REMARK VINA RESULT:      -8.2      2.181      2.997
REMARK  Name = 
REMARK  8 active torsions:
REMARK  status: ('A' for Active; 'I' for Inactive)
REMARK    1  A    between atoms: O_2  and  C_3
REMARK    2  A    between atoms: C_3  and  C_4
REMARK    3  A    between atoms: C_4  and  O_5
REMARK    4  A    between atoms: O_5  and  C_6
REMARK    5  A    between atoms: C_8  and  C_12
REMARK    6  A    between atoms: C_15  and  C_17
REMARK    7  A    between atoms: N_21  and  C_22
REMARK    8  A    between atoms: C_22  and  C_23
REMARK                            x       y       z     vdW  Elec       q    Type
REMARK                         _______ _______ _______ _____ _____    ______ ____
ROOT
ATOM     12  C   UNL     1      -2.240   0.091  24.217  0.00  0.00    +0.204 A 
ATOM     13  N   UNL     1      -2.957  -0.248  23.988  0.00  0.00    -0.056 NA
ATOM     14  O   UNL     1      -3.474   0.362  23.784  0.00  0.00    -0.336 OA
ATOM     15  C   UNL     1      -3.077   1.078  23.886  0.00  0.00    +0.251 A 
ATOM     16  N   UNL     1      -2.314   0.910  24.153  0.00  0.00    -0.190 NA
ENDROOT
BRANCH  12   8
ATOM      6  C   UNL     1      -0.244  -0.792  24.209  0.00  0.00    +0.225 A 
ATOM      7  C   UNL     1      -0.917  -0.383  23.961  0.00  0.00    +0.061 A 
ATOM      8  C   UNL     1      -1.568  -0.318  24.464  0.00  0.00    +0.045 A 
ATOM      9  C   UNL     1      -1.547  -0.661  25.214  0.00  0.00    +0.024 A 
ATOM     10  C   UNL     1      -0.874  -1.070  25.461  0.00  0.00    +0.102 A 
ATOM     11  N   UNL     1      -0.223  -1.135  24.960  0.00  0.00    -0.210 NA
BRANCH   6   5
ATOM      5  O   UNL     1       0.407  -0.858  23.707  0.00  0.00    -0.457 OA
BRANCH   5   4
ATOM      4  C   UNL     1       0.786  -0.179  23.431  0.00  0.00    +0.239 C 
BRANCH   4   3
ATOM      3  C   UNL     1       1.357  -0.238  22.838  0.00  0.00    +0.189 C 
BRANCH   3   2
ATOM      1  C   UNL     1       2.688   0.143  22.483  0.00  0.00    +0.174 C 
ATOM      2  O   UNL     1       1.940   0.341  22.769  0.00  0.00    -0.347 OA
ENDBRANCH   3   2
ENDBRANCH   4   3
ENDBRANCH   5   4
ENDBRANCH   6   5
ENDBRANCH  12   8
BRANCH  15  17
ATOM     17  C   UNL     1      -3.387   1.829  23.746  0.00  0.00    +0.138 C 
ATOM     18  C   UNL     1      -3.246   2.295  23.080  0.00  0.00    +0.027 C 
ATOM     19  C   UNL     1      -3.664   3.001  23.169  0.00  0.00    +0.019 C 
ATOM     20  C   UNL     1      -4.063   2.971  23.890  0.00  0.00    +0.073 C 
ATOM     21  N   UNL     1      -3.892   2.247  24.247  0.00  0.00    -0.263 NA
BRANCH  21  22
ATOM     22  C   UNL     1      -4.176   1.987  24.976  0.00  0.00    +0.101 C 
BRANCH  22  23
ATOM     23  C   UNL     1      -4.862   2.316  25.293  0.00  0.00    +0.013 A 
ATOM     24  C   UNL     1      -5.587   1.934  25.193  0.00  0.00    +0.000 A 
ATOM     25  C   UNL     1      -6.274   2.264  25.510  0.00  0.00    +0.020 A 
ATOM     26  C   UNL     1      -6.236   2.974  25.926  0.00  0.00    +0.099 A 
ATOM     27  N   UNL     1      -5.512   3.356  26.027  0.00  0.00    -0.243 NA
ATOM     28  C   UNL     1      -4.825   3.027  25.710  0.00  0.00    +0.096 A 
ENDBRANCH  22  23
ENDBRANCH  21  22
ENDBRANCH  15  17
TORSDOF 8
ENDMDL
MODEL 9
REMARK VINA RESULT:      -7.9      2.133      4.976
REMARK  Name = 
REMARK  8 active torsions:
REMARK  status: ('A' for Active; 'I' for Inactive)
REMARK    1  A    between atoms: O_2  and  C_3
REMARK    2  A    between atoms: C_3  and  C_4
REMARK    3  A    between atoms: C_4  and  O_5
REMARK    4  A    between atoms: O_5  and  C_6
REMARK    5  A    between atoms: C_8  and  C_12
REMARK    6  A    between atoms: C_15  and  C_17
REMARK    7  A    between atoms: N_21  and  C_22
REMARK    8  A    between atoms: C_22  and  C_23
REMARK                            x       y       z     vdW  Elec       q    Type
REMARK                         _______ _______ _______ _____ _____    ______ ____
ROOT
ATOM     12  C   UNL     1      -1.947   1.606  23.873  0.00  0.00    +0.204 A 
ATOM     13  N   UNL     1      -2.310   1.600  23.132  0.00  0.00    -0.056 NA
ATOM     14  O   UNL     1      -3.052   1.250  23.214  0.00  0.00    -0.336 OA
ATOM     15  C   UNL     1      -3.148   1.039  24.006  0.00  0.00    +0.251 A 
ATOM     16  N   UNL     1      -2.465   1.260  24.413  0.00  0.00    -0.190 NA
ENDROOT
BRANCH  12   8
ATOM      6  C   UNL     1      -0.349   3.012  24.356  0.00  0.00    +0.225 A 
ATOM      7  C   UNL     1      -1.099   2.712  24.186  0.00  0.00    +0.061 A 
ATOM      8  C   UNL     1      -1.197   1.905  24.043  0.00  0.00    +0.045 A 
ATOM      9  C   UNL     1      -0.547   1.399  24.070  0.00  0.00    +0.024 A 
ATOM     10  C   UNL     1       0.202   1.699  24.241  0.00  0.00    +0.102 A 
ATOM     11  N   UNL     1       0.302   2.505  24.384  0.00  0.00    -0.210 NA
BRANCH   6   5
ATOM      5  O   UNL     1      -0.249   3.818  24.499  0.00  0.00    -0.457 OA
BRANCH   5   4
ATOM      4  C   UNL     1      -0.817   4.235  24.929  0.00  0.00    +0.239 C 
BRANCH   4   3
ATOM      3  C   UNL     1      -0.854   5.057  24.874  0.00  0.00    +0.189 C 
BRANCH   3   2
ATOM      1  C   UNL     1      -1.841   6.083  24.997  0.00  0.00    +0.174 C 
ATOM      2  O   UNL     1      -1.394   5.477  25.334  0.00  0.00    -0.347 OA
ENDBRANCH   3   2
ENDBRANCH   4   3
ENDBRANCH   5   4
ENDBRANCH   6   5
ENDBRANCH  12   8
BRANCH  15  17
ATOM     17  C   UNL     1      -3.811   0.674  24.334  0.00  0.00    +0.138 C 
ATOM     18  C   UNL     1      -4.426   1.052  24.734  0.00  0.00    +0.027 C 
ATOM     19  C   UNL     1      -4.970   0.477  24.967  0.00  0.00    +0.019 C 
ATOM     20  C   UNL     1      -4.691  -0.256  24.712  0.00  0.00    +0.073 C 
ATOM     21  N   UNL     1      -3.975  -0.135  24.321  0.00  0.00    -0.263 NA
BRANCH  21  22
ATOM     22  C   UNL     1      -3.505  -0.720  23.978  0.00  0.00    +0.101 C 
BRANCH  22  23
ATOM     23  C   UNL     1      -3.607  -1.509  24.193  0.00  0.00    +0.013 A 
ATOM     24  C   UNL     1      -3.184  -1.822  24.829  0.00  0.00    +0.000 A 
ATOM     25  C   UNL     1      -3.285  -2.611  25.044  0.00  0.00    +0.020 A 
ATOM     26  C   UNL     1      -3.809  -3.089  24.623  0.00  0.00    +0.099 A 
ATOM     27  N   UNL     1      -4.232  -2.778  23.987  0.00  0.00    -0.243 NA
ATOM     28  C   UNL     1      -4.131  -1.987  23.772  0.00  0.00    +0.096 A 
ENDBRANCH  22  23
ENDBRANCH  21  22
ENDBRANCH  15  17
TORSDOF 8
ENDMDL
MODEL 10
REMARK VINA RESULT:      -7.3      1.442      2.357
REMARK  Name = 
REMARK  8 active torsions:
REMARK  status: ('A' for Active; 'I' for Inactive)
REMARK    1  A    between atoms: O_2  and  C_3
REMARK    2  A    between atoms: C_3  and  C_4
REMARK    3  A    between atoms: C_4  and  O_5
REMARK    4  A    between atoms: O_5  and  C_6
REMARK    5  A    between atoms: C_8  and  C_12
REMARK    6  A    between atoms: C_15  and  C_17
REMARK    7  A    between atoms: N_21  and  C_22
REMARK    8  A    between atoms: C_22  and  C_23
REMARK                            x       y       z     vdW  Elec       q    Type
REMARK                         _______ _______ _______ _____ _____    ______ ____
ROOT
ATOM     12  C   UNL     1      -2.245   0.494  25.033  0.00  0.00    +0.204 A 
ATOM     13  N   UNL     1      -2.730   0.649  25.683  0.00  0.00    -0.056 NA
ATOM     14  O   UNL     1      -3.114   1.367  25.550  0.00  0.00    -0.336 OA
ATOM     15  C   UNL     1      -2.866   1.656  24.818  0.00  0.00    +0.251 A 
ATOM     16  N   UNL     1      -2.329   1.116  24.499  0.00  0.00    -0.190 NA
ENDROOT
BRANCH  12   8
ATOM      6  C   UNL     1      -1.603  -1.543  24.585  0.00  0.00    +0.225 A 
ATOM      7  C   UNL     1      -2.087  -0.882  24.682  0.00  0.00    +0.061 A 
ATOM      8  C   UNL     1      -1.761  -0.167  24.936  0.00  0.00    +0.045 A 
ATOM      9  C   UNL     1      -0.954  -0.113  25.091  0.00  0.00    +0.024 A 
ATOM     10  C   UNL     1      -0.470  -0.774  24.994  0.00  0.00    +0.102 A 
ATOM     11  N   UNL     1      -0.794  -1.489  24.741  0.00  0.00    -0.210 NA
BRANCH   6   5
ATOM      5  O   UNL     1      -1.927  -2.258  24.332  0.00  0.00    -0.457 OA
BRANCH   5   4
ATOM      4  C   UNL     1      -2.696  -2.463  24.549  0.00  0.00    +0.239 C 
BRANCH   4   3
ATOM      3  C   UNL     1      -3.133  -2.979  24.077  0.00  0.00    +0.189 C 
BRANCH   3   2
ATOM      1  C   UNL     1      -4.508  -2.848  23.707  0.00  0.00    +0.174 C 
ATOM      2  O   UNL     1      -3.932  -3.108  24.238  0.00  0.00    -0.347 OA
ENDBRANCH   3   2
ENDBRANCH   4   3
ENDBRANCH   5   4
ENDBRANCH   6   5
ENDBRANCH  12   8
BRANCH  15  17
ATOM     17  C   UNL     1      -3.112   2.360  24.466  0.00  0.00    +0.138 C 
ATOM     18  C   UNL     1      -3.699   2.436  23.891  0.00  0.00    +0.027 C 
ATOM     19  C   UNL     1      -3.764   3.236  23.697  0.00  0.00    +0.019 C 
ATOM     20  C   UNL     1      -3.217   3.654  24.152  0.00  0.00    +0.073 C 
ATOM     21  N   UNL     1      -2.814   3.113  24.627  0.00  0.00    -0.263 NA
BRANCH  21  22
ATOM     22  C   UNL     1      -2.218   3.293  25.168  0.00  0.00    +0.101 C 
BRANCH  22  23
ATOM     23  C   UNL     1      -1.794   3.996  25.096  0.00  0.00    +0.013 A 
ATOM     24  C   UNL     1      -1.041   3.991  24.757  0.00  0.00    +0.000 A 
ATOM     25  C   UNL     1      -0.617   4.695  24.685  0.00  0.00    +0.020 A 
ATOM     26  C   UNL     1      -0.944   5.403  24.951  0.00  0.00    +0.099 A 
ATOM     27  N   UNL     1      -1.697   5.409  25.290  0.00  0.00    -0.243 NA
ATOM     28  C   UNL     1      -2.121   4.705  25.362  0.00  0.00    +0.096 A 
ENDBRANCH  22  23
ENDBRANCH  21  22
ENDBRANCH  15  17
TORSDOF 8
ENDMDL
