MODEL 1
REMARK VINA RESULT:     -13.6      0.000      0.000
REMARK  Name = 
REMARK  6 active torsions:
REMARK  status: ('A' for Active; 'I' for Inactive)
REMARK    1  A    between atoms: N_4  and  C_5
REMARK    2  A    between atoms: C_5  and  C_6
REMARK    3  A    between atoms: C_14  and  C_15
REMARK    4  A    between atoms: C_17  and  N_18
REMARK    5  A    between atoms: N_18  and  S_19
REMARK    6  A    between atoms: S_19  and  C_22
REMARK                            x       y       z     vdW  Elec       q    Type
REMARK                         _______ _______ _______ _____ _____    ______ ____
ROOT
ATOM     15  C   UNL     1      -4.184   2.041  24.761  0.00  0.00    +0.048 C 
ATOM     16  C   UNL     1      -3.697   2.416  25.311  0.00  0.00    +0.033 C 
ATOM     17  C   UNL     1      -3.836   3.229  25.262  0.00  0.00    +0.120 C 
ATOM     28  C   UNL     1      -4.408   3.355  24.681  0.00  0.00    -0.011 C 
ATOM     29  C   UNL     1      -4.623   2.621  24.371  0.00  0.00    -0.025 C 
ENDROOT
BRANCH  15  14
ATOM      1  C   UNL     1      -5.326   0.895  25.538  0.00  0.00    +0.054 C 
ATOM      2  C   UNL     1      -4.749   0.702  24.981  0.00  0.00    +0.076 A 
ATOM      3  N   UNL     1      -4.595  -0.052  24.683  0.00  0.00    -0.174 NA
ATOM      4  N   UNL     1      -3.975   0.008  24.142  0.00  0.00    -0.251 N 
ATOM     12  C   UNL     1      -3.746   0.800  24.105  0.00  0.00    +0.054 A 
ATOM     13  C   UNL     1      -3.144   1.109  23.633  0.00  0.00    +0.051 C 
ATOM     14  C   UNL     1      -4.224   1.228  24.624  0.00  0.00    +0.010 A 
BRANCH   4   5
ATOM      5  C   UNL     1      -3.644  -0.613  23.713  0.00  0.00    +0.153 C 
BRANCH   5   6
ATOM      6  C   UNL     1      -3.610  -1.369  24.041  0.00  0.00    +0.002 A 
ATOM      7  C   UNL     1      -4.174  -1.935  23.835  0.00  0.00    -0.002 A 
ATOM      8  C   UNL     1      -4.140  -2.690  24.163  0.00  0.00    -0.000 A 
ATOM      9  C   UNL     1      -3.542  -2.881  24.698  0.00  0.00    -0.000 A 
ATOM     10  C   UNL     1      -2.977  -2.316  24.904  0.00  0.00    -0.000 A 
ATOM     11  C   UNL     1      -3.011  -1.560  24.576  0.00  0.00    -0.002 A 
ENDBRANCH   5   6
ENDBRANCH   4   5
ENDBRANCH  15  14
BRANCH  17  18
ATOM     18  N   UNL     1      -3.467   3.811  25.714  0.00  0.00    -0.075 NA
BRANCH  18  19
ATOM     19  S   UNL     1      -2.714   4.079  25.509  0.00  0.00    +0.077 S 
ATOM     20  O   UNL     1      -2.396   3.677  26.155  0.00  0.00    -0.152 OA
ATOM     21  O   UNL     1      -3.032   4.480  24.863  0.00  0.00    -0.152 OA
BRANCH  19  22
ATOM     22  C   UNL     1      -1.960   4.345  25.304  0.00  0.00    +0.124 A 
ATOM     23  C   UNL     1      -1.839   5.141  25.127  0.00  0.00    +0.020 A 
ATOM     24  C   UNL     1      -1.086   5.408  24.922  0.00  0.00    +0.001 A 
ATOM     25  C   UNL     1      -0.454   4.879  24.895  0.00  0.00    +0.000 A 
ATOM     26  C   UNL     1      -0.575   4.082  25.072  0.00  0.00    +0.001 A 
ATOM     27  C   UNL     1      -1.329   3.815  25.277  0.00  0.00    +0.020 A 
ENDBRANCH  19  22
ENDBRANCH  18  19
ENDBRANCH  17  18
TORSDOF 6
ENDMDL
MODEL 2
REMARK VINA RESULT:     -12.6      1.824      2.612
REMARK  Name = 
REMARK  6 active torsions:
REMARK  status: ('A' for Active; 'I' for Inactive)
REMARK    1  A    between atoms: N_4  and  C_5
REMARK    2  A    between atoms: C_5  and  C_6
REMARK    3  A    between atoms: C_14  and  C_15
REMARK    4  A    between atoms: C_17  and  N_18
REMARK    5  A    between atoms: N_18  and  S_19
REMARK    6  A    between atoms: S_19  and  C_22
REMARK                            x       y       z     vdW  Elec       q    Type
REMARK                         _______ _______ _______ _____ _____    ______ ____
ROOT
ATOM     15  C   UNL     1      -1.029   0.646  24.809  0.00  0.00    +0.048 C 
ATOM     16  C   UNL     1      -0.840   1.238  25.352  0.00  0.00    +0.033 C 
ATOM     17  C   UNL     1      -0.373   1.798  24.966  0.00  0.00    +0.120 C 
ATOM     28  C   UNL     1      -0.273   1.553  24.184  0.00  0.00    -0.011 C 
ATOM     29  C   UNL     1      -0.679   0.841  24.087  0.00  0.00    -0.025 C 
ENDROOT
BRANCH  15  14
ATOM      1  C   UNL     1      -0.413  -1.019  25.069  0.00  0.00    +0.054 C 
ATOM      2  C   UNL     1      -1.205  -0.788  25.080  0.00  0.00    +0.076 A 
ATOM      3  N   UNL     1      -1.853  -1.282  25.213  0.00  0.00    -0.174 NA
ATOM      4  N   UNL     1      -2.537  -0.821  25.176  0.00  0.00    -0.251 N 
ATOM     12  C   UNL     1      -2.311  -0.043  25.020  0.00  0.00    +0.054 A 
ATOM     13  C   UNL     1      -2.819   0.602  24.938  0.00  0.00    +0.051 C 
ATOM     14  C   UNL     1      -1.488  -0.022  24.961  0.00  0.00    +0.010 A 
BRANCH   4   5
ATOM      5  C   UNL     1      -3.309  -1.091  25.277  0.00  0.00    +0.153 C 
BRANCH   5   6
ATOM      6  C   UNL     1      -3.592  -1.714  24.817  0.00  0.00    +0.002 A 
ATOM      7  C   UNL     1      -3.433  -2.494  25.034  0.00  0.00    -0.002 A 
ATOM      8  C   UNL     1      -3.716  -3.116  24.574  0.00  0.00    -0.000 A 
ATOM      9  C   UNL     1      -4.158  -2.960  23.896  0.00  0.00    -0.000 A 
ATOM     10  C   UNL     1      -4.317  -2.180  23.678  0.00  0.00    -0.000 A 
ATOM     11  C   UNL     1      -4.034  -1.557  24.139  0.00  0.00    -0.002 A 
ENDBRANCH   5   6
ENDBRANCH   4   5
ENDBRANCH  15  14
BRANCH  17  18
ATOM     18  N   UNL     1      -0.060   2.483  25.302  0.00  0.00    -0.075 NA
BRANCH  18  19
ATOM     19  S   UNL     1      -0.488   3.189  25.276  0.00  0.00    +0.077 S 
ATOM     20  O   UNL     1      -0.706   3.085  26.065  0.00  0.00    -0.152 OA
ATOM     21  O   UNL     1      -0.271   3.292  24.487  0.00  0.00    -0.152 OA
BRANCH  19  22
ATOM     22  C   UNL     1      -0.916   3.893  25.251  0.00  0.00    +0.124 A 
ATOM     23  C   UNL     1      -0.596   4.556  24.880  0.00  0.00    +0.020 A 
ATOM     24  C   UNL     1      -1.024   5.261  24.854  0.00  0.00    +0.001 A 
ATOM     25  C   UNL     1      -1.772   5.303  25.201  0.00  0.00    +0.000 A 
ATOM     26  C   UNL     1      -2.092   4.639  25.572  0.00  0.00    +0.001 A 
ATOM     27  C   UNL     1      -1.664   3.934  25.598  0.00  0.00    +0.020 A 
ENDBRANCH  19  22
ENDBRANCH  18  19
ENDBRANCH  17  18
TORSDOF 6
ENDMDL
MODEL 3
REMARK VINA RESULT:     -12.6      2.575      5.956
REMARK  Name = 
REMARK  6 active torsions:
REMARK  status: ('A' for Active; 'I' for Inactive)
REMARK    1  A    between atoms: N_4  and  C_5
REMARK    2  A    between atoms: C_5  and  C_6
REMARK    3  A    between atoms: C_14  and  C_15
REMARK    4  A    between atoms: C_17  and  N_18
REMARK    5  A    between atoms: N_18  and  S_19
REMARK    6  A    between atoms: S_19  and  C_22
REMARK                            x       y       z     vdW  Elec       q    Type
REMARK                         _______ _______ _______ _____ _____    ______ ____
ROOT
ATOM     15  C   UNL     1      -0.886   0.577  24.736  0.00  0.00    +0.048 C 
ATOM     16  C   UNL     1      -1.451   0.132  25.139  0.00  0.00    +0.033 C 
ATOM     17  C   UNL     1      -1.255  -0.665  25.056  0.00  0.00    +0.120 C 
ATOM     28  C   UNL     1      -0.568  -0.712  24.601  0.00  0.00    -0.011 C 
ATOM     29  C   UNL     1      -0.340   0.055  24.403  0.00  0.00    -0.025 C 
ENDROOT
BRANCH  15  14
ATOM      1  C   UNL     1      -1.443   1.543  23.329  0.00  0.00    +0.054 C 
ATOM      2  C   UNL     1      -1.126   1.844  24.029  0.00  0.00    +0.076 A 
ATOM      3  N   UNL     1      -1.009   2.642  24.205  0.00  0.00    -0.174 NA
ATOM      4  N   UNL     1      -0.680   2.691  24.960  0.00  0.00    -0.251 N 
ATOM     12  C   UNL     1      -0.594   1.924  25.251  0.00  0.00    +0.054 A 
ATOM     13  C   UNL     1      -0.287   1.716  25.988  0.00  0.00    +0.051 C 
ATOM     14  C   UNL     1      -0.870   1.400  24.675  0.00  0.00    +0.010 A 
BRANCH   4   5
ATOM      5  C   UNL     1      -0.474   3.385  25.355  0.00  0.00    +0.153 C 
BRANCH   5   6
ATOM      6  C   UNL     1      -0.951   4.054  25.289  0.00  0.00    +0.002 A 
ATOM      7  C   UNL     1      -0.687   4.709  24.861  0.00  0.00    -0.002 A 
ATOM      8  C   UNL     1      -1.165   5.378  24.795  0.00  0.00    -0.000 A 
ATOM      9  C   UNL     1      -1.905   5.394  25.157  0.00  0.00    -0.000 A 
ATOM     10  C   UNL     1      -2.169   4.739  25.586  0.00  0.00    -0.000 A 
ATOM     11  C   UNL     1      -1.692   4.070  25.651  0.00  0.00    -0.002 A 
ENDBRANCH   5   6
ENDBRANCH   4   5
ENDBRANCH  15  14
BRANCH  17  18
ATOM     18  N   UNL     1      -1.671  -1.302  25.373  0.00  0.00    -0.075 NA
BRANCH  18  19
ATOM     19  S   UNL     1      -2.352  -1.579  24.996  0.00  0.00    +0.077 S 
ATOM     20  O   UNL     1      -2.818  -1.194  25.557  0.00  0.00    -0.152 OA
ATOM     21  O   UNL     1      -1.886  -1.964  24.435  0.00  0.00    -0.152 OA
BRANCH  19  22
ATOM     22  C   UNL     1      -3.033  -1.855  24.620  0.00  0.00    +0.124 A 
ATOM     23  C   UNL     1      -3.142  -2.664  24.509  0.00  0.00    +0.020 A 
ATOM     24  C   UNL     1      -3.823  -2.940  24.133  0.00  0.00    +0.001 A 
ATOM     25  C   UNL     1      -4.393  -2.406  23.868  0.00  0.00    +0.000 A 
ATOM     26  C   UNL     1      -4.283  -1.596  23.979  0.00  0.00    +0.001 A 
ATOM     27  C   UNL     1      -3.603  -1.320  24.355  0.00  0.00    +0.020 A 
ENDBRANCH  19  22
ENDBRANCH  18  19
ENDBRANCH  17  18
TORSDOF 6
ENDMDL
MODEL 4
REMARK VINA RESULT:     -12.4      1.863      5.601
REMARK  Name = 
REMARK  6 active torsions:
REMARK  status: ('A' for Active; 'I' for Inactive)
REMARK    1  A    between atoms: N_4  and  C_5
REMARK    2  A    between atoms: C_5  and  C_6
REMARK    3  A    between atoms: C_14  and  C_15
REMARK    4  A    between atoms: C_17  and  N_18
REMARK    5  A    between atoms: N_18  and  S_19
REMARK    6  A    between atoms: S_19  and  C_22
REMARK                            x       y       z     vdW  Elec       q    Type
REMARK                         _______ _______ _______ _____ _____    ______ ____
ROOT
ATOM     15  C   UNL     1      -3.465   1.578  24.269  0.00  0.00    +0.048 C 
ATOM     16  C   UNL     1      -3.995   1.061  24.634  0.00  0.00    +0.033 C 
ATOM     17  C   UNL     1      -4.072   0.394  24.154  0.00  0.00    +0.120 C 
ATOM     28  C   UNL     1      -3.589   0.499  23.492  0.00  0.00    -0.011 C 
ATOM     29  C   UNL     1      -3.215   1.230  23.564  0.00  0.00    -0.025 C 
ENDROOT
BRANCH  15  14
ATOM      1  C   UNL     1      -4.301   3.141  23.989  0.00  0.00    +0.054 C 
ATOM      2  C   UNL     1      -3.612   3.032  24.430  0.00  0.00    +0.076 A 
ATOM      3  N   UNL     1      -3.186   3.622  24.820  0.00  0.00    -0.174 NA
ATOM      4  N   UNL     1      -2.539   3.267  25.190  0.00  0.00    -0.251 N 
ATOM     12  C   UNL     1      -2.565   2.458  25.029  0.00  0.00    +0.054 A 
ATOM     13  C   UNL     1      -2.024   1.894  25.290  0.00  0.00    +0.051 C 
ATOM     14  C   UNL     1      -3.228   2.313  24.559  0.00  0.00    +0.010 A 
BRANCH   4   5
ATOM      5  C   UNL     1      -1.967   3.654  25.641  0.00  0.00    +0.153 C 
BRANCH   5   6
ATOM      6  C   UNL     1      -1.553   4.292  25.324  0.00  0.00    +0.002 A 
ATOM      7  C   UNL     1      -0.829   4.167  24.947  0.00  0.00    -0.002 A 
ATOM      8  C   UNL     1      -0.414   4.806  24.630  0.00  0.00    -0.000 A 
ATOM      9  C   UNL     1      -0.723   5.568  24.688  0.00  0.00    -0.000 A 
ATOM     10  C   UNL     1      -1.447   5.693  25.065  0.00  0.00    -0.000 A 
ATOM     11  C   UNL     1      -1.861   5.054  25.382  0.00  0.00    -0.002 A 
ENDBRANCH   5   6
ENDBRANCH   4   5
ENDBRANCH  15  14
BRANCH  17  18
ATOM     18  N   UNL     1      -4.547  -0.262  24.308  0.00  0.00    -0.075 NA
BRANCH  18  19
ATOM     19  S   UNL     1      -4.201  -0.995  24.466  0.00  0.00    +0.077 S 
ATOM     20  O   UNL     1      -4.237  -1.184  23.663  0.00  0.00    -0.152 OA
ATOM     21  O   UNL     1      -4.165  -0.806  25.268  0.00  0.00    -0.152 OA
BRANCH  19  22
ATOM     22  C   UNL     1      -3.855  -1.727  24.622  0.00  0.00    +0.124 A 
ATOM     23  C   UNL     1      -3.461  -1.853  25.336  0.00  0.00    +0.020 A 
ATOM     24  C   UNL     1      -3.115  -2.585  25.492  0.00  0.00    +0.001 A 
ATOM     25  C   UNL     1      -3.164  -3.192  24.936  0.00  0.00    +0.000 A 
ATOM     26  C   UNL     1      -3.558  -3.066  24.222  0.00  0.00    +0.001 A 
ATOM     27  C   UNL     1      -3.904  -2.334  24.065  0.00  0.00    +0.020 A 
ENDBRANCH  19  22
ENDBRANCH  18  19
ENDBRANCH  17  18
TORSDOF 6
ENDMDL
