MODEL 1
REMARK VINA RESULT:      -8.1      0.000      0.000
REMARK  Name = 
REMARK  6 active torsions:
REMARK  status: ('A' for Active; 'I' for Inactive)
REMARK    1  A    between atoms: O_2  and  C_3
REMARK    2  A    between atoms: C_6  and  C_7
REMARK    3  A    between atoms: C_7  and  N_8
REMARK    4  A    between atoms: C_17  and  C_18
REMARK    5  A    between atoms: C_18  and  C_19
REMARK    6  A    between atoms: C_19  and  C_20
REMARK                            x       y       z     vdW  Elec       q    Type
REMARK                         _______ _______ _______ _____ _____    ______ ____
ROOT
ATOM      8  N   UNL     1      -3.007   1.598  24.466  0.00  0.00    -0.262 NA
ATOM      9  C   UNL     1      -3.090   1.022  25.051  0.00  0.00    +0.074 C 
ATOM     10  C   UNL     1      -2.420   0.540  25.031  0.00  0.00    +0.035 C 
ATOM     11  C   UNL     1      -1.924   0.819  24.435  0.00  0.00    +0.083 C 
ATOM     12  C   UNL     1      -2.287   1.472  24.086  0.00  0.00    +0.151 C 
ATOM     13  C   UNL     1      -2.013   1.943  23.466  0.00  0.00    +0.257 C 
ATOM     14  O   UNL     1      -2.508   2.562  23.240  0.00  0.00    -0.272 OA
ATOM     15  N   UNL     1      -1.307   1.876  23.042  0.00  0.00    -0.203 NA
ATOM     16  C   UNL     1      -0.702   1.323  23.133  0.00  0.00    +0.131 C 
ATOM     17  C   UNL     1      -0.654   0.699  23.671  0.00  0.00    +0.080 C 
ATOM     29  N   UNL     1      -1.197   0.475  24.250  0.00  0.00    -0.271 NA
ATOM     30  C   UNL     1      -0.986  -0.180  24.705  0.00  0.00    +0.090 C 
ENDROOT
BRANCH   8   7
ATOM      7  C   UNL     1      -3.550   2.194  24.293  0.00  0.00    +0.100 C 
BRANCH   7   6
ATOM      3  C   UNL     1      -5.522   2.533  25.751  0.00  0.00    +0.139 A 
ATOM      4  C   UNL     1      -5.525   1.932  25.186  0.00  0.00    +0.037 A 
ATOM      5  C   UNL     1      -4.868   1.820  24.700  0.00  0.00    +0.000 A 
ATOM      6  C   UNL     1      -4.207   2.308  24.779  0.00  0.00    -0.006 A 
ATOM     31  C   UNL     1      -4.203   2.908  25.345  0.00  0.00    +0.000 A 
ATOM     32  C   UNL     1      -4.861   3.021  25.830  0.00  0.00    +0.037 A 
BRANCH   3   2
ATOM      1  C   UNL     1      -6.537   2.000  26.603  0.00  0.00    +0.252 C 
ATOM      2  O   UNL     1      -6.178   2.646  26.237  0.00  0.00    -0.471 OA
ENDBRANCH   3   2
ENDBRANCH   7   6
ENDBRANCH   8   7
BRANCH  17  18
ATOM     18  C   UNL     1       0.029   0.238  23.624  0.00  0.00    +0.027 C 
BRANCH  18  19
ATOM     19  C   UNL     1       0.712   0.547  23.280  0.00  0.00    +0.087 C 
BRANCH  19  20
ATOM     20  C   UNL     1       1.256   0.043  22.917  0.00  0.00    +0.226 C 
ATOM     21  O   UNL     1       1.009  -0.687  22.623  0.00  0.00    -0.275 OA
ATOM     22  N   UNL     1       2.046   0.270  22.849  0.00  0.00    -0.279 N 
ATOM     23  C   UNL     1       2.292   1.000  23.143  0.00  0.00    +0.096 C 
ATOM     24  C   UNL     1       3.083   1.225  23.075  0.00  0.00    +0.054 C 
ATOM     25  C   UNL     1       3.626   0.722  22.712  0.00  0.00    +0.155 C 
ATOM     26  O   UNL     1       4.417   0.949  22.645  0.00  0.00    -0.223 OA
ATOM     27  C   UNL     1       3.380  -0.007  22.418  0.00  0.00    +0.054 C 
ATOM     28  C   UNL     1       2.589  -0.234  22.487  0.00  0.00    +0.096 C 
ENDBRANCH  19  20
ENDBRANCH  18  19
ENDBRANCH  17  18
TORSDOF 6
ENDMDL
MODEL 2
REMARK VINA RESULT:      -7.5      1.484      2.489
REMARK  Name = 
REMARK  6 active torsions:
REMARK  status: ('A' for Active; 'I' for Inactive)
REMARK    1  A    between atoms: O_2  and  C_3
REMARK    2  A    between atoms: C_6  and  C_7
REMARK    3  A    between atoms: C_7  and  N_8
REMARK    4  A    between atoms: C_17  and  C_18
REMARK    5  A    between atoms: C_18  and  C_19
REMARK    6  A    between atoms: C_19  and  C_20
REMARK                            x       y       z     vdW  Elec       q    Type
REMARK                         _______ _______ _______ _____ _____    ______ ____
ROOT
ATOM      8  N   UNL     1      -1.366   0.274  24.402  0.00  0.00    -0.262 NA
ATOM      9  C   UNL     1      -1.416   1.060  24.644  0.00  0.00    +0.074 C 
ATOM     10  C   UNL     1      -0.703   1.432  24.456  0.00  0.00    +0.035 C 
ATOM     11  C   UNL     1      -0.213   0.874  24.099  0.00  0.00    +0.083 C 
ATOM     12  C   UNL     1      -0.622   0.158  24.065  0.00  0.00    +0.151 C 
ATOM     13  C   UNL     1      -0.370  -0.565  23.758  0.00  0.00    +0.257 C 
ATOM     14  O   UNL     1      -0.913  -1.184  23.807  0.00  0.00    -0.272 OA
ATOM     15  N   UNL     1       0.355  -0.751  23.409  0.00  0.00    -0.203 NA
ATOM     16  C   UNL     1       1.005  -0.261  23.281  0.00  0.00    +0.131 C 
ATOM     17  C   UNL     1       1.092   0.537  23.469  0.00  0.00    +0.080 C 
ATOM     29  N   UNL     1       0.550   1.043  23.833  0.00  0.00    -0.271 NA
ATOM     30  C   UNL     1       0.804   1.819  23.947  0.00  0.00    +0.090 C 
ENDROOT
BRANCH   8   7
ATOM      7  C   UNL     1      -1.956  -0.298  24.483  0.00  0.00    +0.100 C 
BRANCH   7   6
ATOM      3  C   UNL     1      -4.298   0.394  24.888  0.00  0.00    +0.139 A 
ATOM      4  C   UNL     1      -3.957   0.506  24.145  0.00  0.00    +0.037 A 
ATOM      5  C   UNL     1      -3.176   0.276  24.011  0.00  0.00    +0.000 A 
ATOM      6  C   UNL     1      -2.736  -0.067  24.619  0.00  0.00    -0.006 A 
ATOM     31  C   UNL     1      -3.077  -0.180  25.362  0.00  0.00    +0.000 A 
ATOM     32  C   UNL     1      -3.858   0.051  25.496  0.00  0.00    +0.037 A 
BRANCH   3   2
ATOM      1  C   UNL     1      -5.264   1.423  25.107  0.00  0.00    +0.252 C 
ATOM      2  O   UNL     1      -5.078   0.624  25.024  0.00  0.00    -0.471 OA
ENDBRANCH   3   2
ENDBRANCH   7   6
ENDBRANCH   8   7
BRANCH  17  18
ATOM     18  C   UNL     1       1.816   0.876  23.268  0.00  0.00    +0.027 C 
BRANCH  18  19
ATOM     19  C   UNL     1       2.474   0.396  23.135  0.00  0.00    +0.087 C 
BRANCH  19  20
ATOM     20  C   UNL     1       3.204   0.736  22.958  0.00  0.00    +0.226 C 
ATOM     21  O   UNL     1       3.238   1.460  22.563  0.00  0.00    -0.275 OA
ATOM     22  N   UNL     1       3.901   0.352  23.177  0.00  0.00    -0.279 N 
ATOM     23  C   UNL     1       3.867  -0.371  23.572  0.00  0.00    +0.096 C 
ATOM     24  C   UNL     1       4.564  -0.754  23.790  0.00  0.00    +0.054 C 
ATOM     25  C   UNL     1       5.295  -0.414  23.613  0.00  0.00    +0.155 C 
ATOM     26  O   UNL     1       5.992  -0.799  23.832  0.00  0.00    -0.223 OA
ATOM     27  C   UNL     1       5.329   0.309  23.219  0.00  0.00    +0.054 C 
ATOM     28  C   UNL     1       4.632   0.692  23.000  0.00  0.00    +0.096 C 
ENDBRANCH  19  20
ENDBRANCH  18  19
ENDBRANCH  17  18
TORSDOF 6
ENDMDL
MODEL 3
REMARK VINA RESULT:      -7.2      1.154      6.814
REMARK  Name = 
REMARK  6 active torsions:
REMARK  status: ('A' for Active; 'I' for Inactive)
REMARK    1  A    between atoms: O_2  and  C_3
REMARK    2  A    between atoms: C_6  and  C_7
REMARK    3  A    between atoms: C_7  and  N_8
REMARK    4  A    between atoms: C_17  and  C_18
REMARK    5  A    between atoms: C_18  and  C_19
REMARK    6  A    between atoms: C_19  and  C_20
REMARK                            x       y       z     vdW  Elec       q    Type
REMARK                         _______ _______ _______ _____ _____    ______ ____
ROOT
ATOM      8  N   UNL     1       0.571   0.989  23.749  0.00  0.00    -0.262 NA
ATOM      9  C   UNL     1       0.904   1.743  23.734  0.00  0.00    +0.074 C 
ATOM     10  C   UNL     1       0.345   2.274  24.029  0.00  0.00    +0.035 C 
ATOM     11  C   UNL     1      -0.333   1.847  24.225  0.00  0.00    +0.083 C 
ATOM     12  C   UNL     1      -0.193   1.053  24.052  0.00  0.00    +0.151 C 
ATOM     13  C   UNL     1      -0.698   0.408  24.150  0.00  0.00    +0.257 C 
ATOM     14  O   UNL     1      -0.394  -0.324  23.923  0.00  0.00    -0.272 OA
ATOM     15  N   UNL     1      -1.470   0.399  24.445  0.00  0.00    -0.203 NA
ATOM     16  C   UNL     1      -1.925   1.032  24.714  0.00  0.00    +0.131 C 
ATOM     17  C   UNL     1      -1.722   1.830  24.756  0.00  0.00    +0.080 C 
ATOM     29  N   UNL     1      -1.013   2.193  24.538  0.00  0.00    -0.271 NA
ATOM     30  C   UNL     1      -0.981   3.010  24.648  0.00  0.00    +0.090 C 
ENDROOT
BRANCH   8   7
ATOM      7  C   UNL     1       0.939   0.292  23.503  0.00  0.00    +0.100 C 
BRANCH   7   6
ATOM      3  C   UNL     1       3.168   0.380  22.432  0.00  0.00    +0.139 A 
ATOM      4  C   UNL     1       2.535   0.028  22.038  0.00  0.00    +0.037 A 
ATOM      5  C   UNL     1       1.792  -0.001  22.395  0.00  0.00    +0.000 A 
ATOM      6  C   UNL     1       1.682   0.321  23.147  0.00  0.00    -0.006 A 
ATOM     31  C   UNL     1       2.315   0.673  23.541  0.00  0.00    +0.000 A 
ATOM     32  C   UNL     1       3.058   0.703  23.184  0.00  0.00    +0.037 A 
BRANCH   3   2
ATOM      1  C   UNL     1       4.592   0.446  22.542  0.00  0.00    +0.252 C 
ATOM      2  O   UNL     1       3.912   0.410  22.076  0.00  0.00    -0.471 OA
ENDBRANCH   3   2
ENDBRANCH   7   6
ENDBRANCH   8   7
BRANCH  17  18
ATOM     18  C   UNL     1      -2.304   2.332  25.055  0.00  0.00    +0.027 C 
BRANCH  18  19
ATOM     19  C   UNL     1      -3.099   2.123  24.996  0.00  0.00    +0.087 C 
BRANCH  19  20
ATOM     20  C   UNL     1      -3.681   2.625  25.296  0.00  0.00    +0.226 C 
ATOM     21  O   UNL     1      -3.468   3.330  25.667  0.00  0.00    -0.275 OA
ATOM     22  N   UNL     1      -4.478   2.421  25.226  0.00  0.00    -0.279 N 
ATOM     23  C   UNL     1      -4.692   1.716  24.855  0.00  0.00    +0.096 C 
ATOM     24  C   UNL     1      -5.488   1.513  24.785  0.00  0.00    +0.054 C 
ATOM     25  C   UNL     1      -6.070   2.014  25.086  0.00  0.00    +0.155 C 
ATOM     26  O   UNL     1      -6.866   1.810  25.015  0.00  0.00    -0.223 OA
ATOM     27  C   UNL     1      -5.856   2.719  25.456  0.00  0.00    +0.054 C 
ATOM     28  C   UNL     1      -5.060   2.922  25.526  0.00  0.00    +0.096 C 
ENDBRANCH  19  20
ENDBRANCH  18  19
ENDBRANCH  17  18
TORSDOF 6
ENDMDL
MODEL 4
REMARK VINA RESULT:      -6.6     14.490     15.003
REMARK  Name = 
REMARK  6 active torsions:
REMARK  status: ('A' for Active; 'I' for Inactive)
REMARK    1  A    between atoms: O_2  and  C_3
REMARK    2  A    between atoms: C_6  and  C_7
REMARK    3  A    between atoms: C_7  and  N_8
REMARK    4  A    between atoms: C_17  and  C_18
REMARK    5  A    between atoms: C_18  and  C_19
REMARK    6  A    between atoms: C_19  and  C_20
REMARK                            x       y       z     vdW  Elec       q    Type
REMARK                         _______ _______ _______ _____ _____    ______ ____
ROOT
ATOM      8  N   UNL     1      -7.595  -9.797  16.529  0.00  0.00    -0.262 NA
ATOM      9  C   UNL     1      -7.283  -9.763  17.292  0.00  0.00    +0.074 C 
ATOM     10  C   UNL     1      -6.471  -9.900  17.242  0.00  0.00    +0.035 C 
ATOM     11  C   UNL     1      -6.281 -10.017  16.448  0.00  0.00    +0.083 C 
ATOM     12  C   UNL     1      -6.975  -9.954  16.008  0.00  0.00    +0.151 C 
ATOM     13  C   UNL     1      -7.076 -10.027  15.192  0.00  0.00    +0.257 C 
ATOM     14  O   UNL     1      -7.848  -9.933  14.916  0.00  0.00    -0.272 OA
ATOM     15  N   UNL     1      -6.506 -10.183  14.615  0.00  0.00    -0.203 NA
ATOM     16  C   UNL     1      -5.696 -10.303  14.712  0.00  0.00    +0.131 C 
ATOM     17  C   UNL     1      -5.255 -10.297  15.409  0.00  0.00    +0.080 C 
ATOM     29  N   UNL     1      -5.515 -10.170  16.182  0.00  0.00    -0.271 NA
ATOM     30  C   UNL     1      -4.933 -10.200  16.765  0.00  0.00    +0.090 C 
ENDROOT
BRANCH   8   7
ATOM      7  C   UNL     1      -8.387  -9.691  16.323  0.00  0.00    +0.100 C 
BRANCH   7   6
ATOM      3  C   UNL     1     -10.124  -9.637  18.086  0.00  0.00    +0.139 A 
ATOM      4  C   UNL     1      -9.768  -8.936  17.836  0.00  0.00    +0.037 A 
ATOM      5  C   UNL     1      -9.188  -8.955  17.249  0.00  0.00    +0.000 A 
ATOM      6  C   UNL     1      -8.966  -9.674  16.911  0.00  0.00    -0.006 A 
ATOM     31  C   UNL     1      -9.323 -10.375  17.160  0.00  0.00    +0.000 A 
ATOM     32  C   UNL     1      -9.902 -10.356  17.747  0.00  0.00    +0.037 A 
BRANCH   3   2
ATOM      1  C   UNL     1     -10.576 -10.007  19.390  0.00  0.00    +0.252 C 
ATOM      2  O   UNL     1     -10.703  -9.619  18.673  0.00  0.00    -0.471 OA
ENDBRANCH   3   2
ENDBRANCH   7   6
ENDBRANCH   8   7
BRANCH  17  18
ATOM     18  C   UNL     1      -4.447 -10.437  15.322  0.00  0.00    +0.027 C 
BRANCH  18  19
ATOM     19  C   UNL     1      -4.116 -10.497  14.569  0.00  0.00    +0.087 C 
BRANCH  19  20
ATOM     20  C   UNL     1      -3.306 -10.626  14.482  0.00  0.00    +0.226 C 
ATOM     21  O   UNL     1      -2.840 -10.781  15.144  0.00  0.00    -0.275 OA
ATOM     22  N   UNL     1      -2.962 -10.599  13.733  0.00  0.00    -0.279 N 
ATOM     23  C   UNL     1      -3.429 -10.443  13.070  0.00  0.00    +0.096 C 
ATOM     24  C   UNL     1      -3.084 -10.417  12.321  0.00  0.00    +0.054 C 
ATOM     25  C   UNL     1      -2.274 -10.545  12.235  0.00  0.00    +0.155 C 
ATOM     26  O   UNL     1      -1.931 -10.518  11.485  0.00  0.00    -0.223 OA
ATOM     27  C   UNL     1      -1.808 -10.700  12.896  0.00  0.00    +0.054 C 
ATOM     28  C   UNL     1      -2.152 -10.727  13.646  0.00  0.00    +0.096 C 
ENDBRANCH  19  20
ENDBRANCH  18  19
ENDBRANCH  17  18
TORSDOF 6
ENDMDL
MODEL 5
REMARK VINA RESULT:      -6.1     14.811     15.606
REMARK  Name = 
REMARK  6 active torsions:
REMARK  status: ('A' for Active; 'I' for Inactive)
REMARK    1  A    between atoms: O_2  and  C_3
REMARK    2  A    between atoms: C_6  and  C_7
REMARK    3  A    between atoms: C_7  and  N_8
REMARK    4  A    between atoms: C_17  and  C_18
REMARK    5  A    between atoms: C_18  and  C_19
REMARK    6  A    between atoms: C_19  and  C_20
REMARK                            x       y       z     vdW  Elec       q    Type
REMARK                         _______ _______ _______ _____ _____    ______ ____
ROOT
ATOM      8  N   UNL     1      -5.616 -10.301  16.194  0.00  0.00    -0.262 NA
ATOM      9  C   UNL     1      -4.898 -10.494  16.552  0.00  0.00    +0.074 C 
ATOM     10  C   UNL     1      -4.339 -10.609  15.956  0.00  0.00    +0.035 C 
ATOM     11  C   UNL     1      -4.711 -10.486  15.231  0.00  0.00    +0.083 C 
ATOM     12  C   UNL     1      -5.500 -10.296  15.378  0.00  0.00    +0.151 C 
ATOM     13  C   UNL     1      -6.098 -10.124  14.836  0.00  0.00    +0.257 C 
ATOM     14  O   UNL     1      -6.837  -9.953  15.159  0.00  0.00    -0.272 OA
ATOM     15  N   UNL     1      -6.054 -10.101  14.011  0.00  0.00    -0.203 NA
ATOM     16  C   UNL     1      -5.402 -10.243  13.527  0.00  0.00    +0.131 C 
ATOM     17  C   UNL     1      -4.632 -10.444  13.747  0.00  0.00    +0.080 C 
ATOM     29  N   UNL     1      -4.325 -10.552  14.505  0.00  0.00    -0.271 NA
ATOM     30  C   UNL     1      -3.526 -10.753  14.542  0.00  0.00    +0.090 C 
ENDROOT
BRANCH   8   7
ATOM      7  C   UNL     1      -6.325 -10.140  16.585  0.00  0.00    +0.100 C 
BRANCH   7   6
ATOM      3  C   UNL     1      -6.542 -10.621  19.003  0.00  0.00    +0.139 A 
ATOM      4  C   UNL     1      -7.195 -10.705  18.506  0.00  0.00    +0.037 A 
ATOM      5  C   UNL     1      -7.122 -10.545  17.700  0.00  0.00    +0.000 A 
ATOM      6  C   UNL     1      -6.397 -10.300  17.391  0.00  0.00    -0.006 A 
ATOM     31  C   UNL     1      -5.744 -10.216  17.888  0.00  0.00    +0.000 A 
ATOM     32  C   UNL     1      -5.817 -10.377  18.694  0.00  0.00    +0.037 A 
BRANCH   3   2
ATOM      1  C   UNL     1      -5.995 -10.599  20.323  0.00  0.00    +0.252 C 
ATOM      2  O   UNL     1      -6.614 -10.781  19.809  0.00  0.00    -0.471 OA
ENDBRANCH   3   2
ENDBRANCH   7   6
ENDBRANCH   8   7
BRANCH  17  18
ATOM     18  C   UNL     1      -4.099 -10.551  13.126  0.00  0.00    +0.027 C 
BRANCH  18  19
ATOM     19  C   UNL     1      -4.228 -10.176  12.402  0.00  0.00    +0.087 C 
BRANCH  19  20
ATOM     20  C   UNL     1      -3.634 -10.171  11.830  0.00  0.00    +0.226 C 
ATOM     21  O   UNL     1      -2.927 -10.574  11.963  0.00  0.00    -0.275 OA
ATOM     22  N   UNL     1      -3.747  -9.760  11.123  0.00  0.00    -0.279 N 
ATOM     23  C   UNL     1      -4.454  -9.356  10.989  0.00  0.00    +0.096 C 
ATOM     24  C   UNL     1      -4.566  -8.946  10.282  0.00  0.00    +0.054 C 
ATOM     25  C   UNL     1      -3.973  -8.940   9.709  0.00  0.00    +0.155 C 
ATOM     26  O   UNL     1      -4.087  -8.530   9.003  0.00  0.00    -0.223 OA
ATOM     27  C   UNL     1      -3.267  -9.344   9.843  0.00  0.00    +0.054 C 
ATOM     28  C   UNL     1      -3.154  -9.754  10.550  0.00  0.00    +0.096 C 
ENDBRANCH  19  20
ENDBRANCH  18  19
ENDBRANCH  17  18
TORSDOF 6
ENDMDL
