MODEL 1
REMARK VINA RESULT:      -7.7      0.000      0.000
REMARK  Name = 
REMARK  7 active torsions:
REMARK  status: ('A' for Active; 'I' for Inactive)
REMARK    1  A    between atoms: O_2  and  C_3
REMARK    2  A    between atoms: C_3  and  C_4
REMARK    3  A    between atoms: N_6  and  C_7
REMARK    4  A    between atoms: C_10  and  C_13
REMARK    5  A    between atoms: N_18  and  C_19
REMARK    6  A    between atoms: C_19  and  C_20
REMARK    7  A    between atoms: C_25  and  C_26
REMARK                            x       y       z     vdW  Elec       q    Type
REMARK                         _______ _______ _______ _____ _____    ______ ____
ROOT
ATOM     13  C   UNL     1      -3.806   2.151  25.089  0.00  0.00    +0.159 C 
ATOM     14  O   UNL     1      -4.442   2.641  25.277  0.00  0.00    -0.341 OA
ATOM     15  C   UNL     1      -4.306   3.409  25.546  0.00  0.00    +0.227 C 
ATOM     16  C   UNL     1      -3.533   3.687  25.626  0.00  0.00    +0.256 C 
ATOM     17  O   UNL     1      -3.396   4.455  25.894  0.00  0.00    -0.272 OA
ATOM     18  N   UNL     1      -2.896   3.196  25.437  0.00  0.00    -0.265 N 
ATOM     25  C   UNL     1      -3.034   2.428  25.169  0.00  0.00    +0.140 C 
ENDROOT
BRANCH  13  10
ATOM      7  C   UNL     1      -4.215  -0.155  24.285  0.00  0.00    +0.073 A 
ATOM      8  C   UNL     1      -4.428   0.059  25.053  0.00  0.00    +0.016 A 
ATOM      9  C   UNL     1      -4.292   0.826  25.321  0.00  0.00    -0.001 A 
ATOM     10  C   UNL     1      -3.942   1.382  24.820  0.00  0.00    +0.006 A 
ATOM     11  C   UNL     1      -3.729   1.169  24.053  0.00  0.00    -0.001 A 
ATOM     12  C   UNL     1      -3.865   0.401  23.784  0.00  0.00    +0.016 A 
BRANCH   7   6
ATOM      4  C   UNL     1      -3.850  -1.536  24.249  0.00  0.00    +0.276 C 
ATOM      5  O   UNL     1      -3.213  -1.381  24.751  0.00  0.00    -0.270 OA
ATOM      6  N   UNL     1      -4.351  -0.923  24.017  0.00  0.00    -0.177 NA
BRANCH   4   3
ATOM      3  C   UNL     1      -3.986  -2.304  23.982  0.00  0.00    +0.229 C 
BRANCH   3   2
ATOM      1  C   UNL     1      -3.630  -3.688  23.988  0.00  0.00    +0.175 C 
ATOM      2  O   UNL     1      -3.596  -2.939  24.334  0.00  0.00    -0.342 OA
ENDBRANCH   3   2
ENDBRANCH   4   3
ENDBRANCH   7   6
ENDBRANCH  13  10
BRANCH  25  26
ATOM     26  C   UNL     1      -2.397   1.938  24.980  0.00  0.00    +0.205 C 
ATOM     27  O   UNL     1      -1.925   1.626  25.581  0.00  0.00    -0.218 OA
ENDBRANCH  25  26
BRANCH  18  19
ATOM     19  C   UNL     1      -2.125   3.474  25.517  0.00  0.00    +0.179 C 
BRANCH  19  20
ATOM     20  C   UNL     1      -1.852   4.083  25.031  0.00  0.00    +0.246 C 
ATOM     21  O   UNL     1      -2.360   4.428  24.480  0.00  0.00    -0.273 OA
ATOM     22  N   UNL     1      -1.073   4.346  25.097  0.00  0.00    -0.275 N 
ATOM     23  C   UNL     1      -0.802   4.955  24.611  0.00  0.00    +0.115 C 
ATOM     24  C   UNL     1      -0.567   4.000  25.649  0.00  0.00    +0.115 C 
ENDBRANCH  19  20
ENDBRANCH  18  19
TORSDOF 7
ENDMDL
MODEL 2
REMARK VINA RESULT:      -7.7      1.916      5.715
REMARK  Name = 
REMARK  7 active torsions:
REMARK  status: ('A' for Active; 'I' for Inactive)
REMARK    1  A    between atoms: O_2  and  C_3
REMARK    2  A    between atoms: C_3  and  C_4
REMARK    3  A    between atoms: N_6  and  C_7
REMARK    4  A    between atoms: C_10  and  C_13
REMARK    5  A    between atoms: N_18  and  C_19
REMARK    6  A    between atoms: C_19  and  C_20
REMARK    7  A    between atoms: C_25  and  C_26
REMARK                            x       y       z     vdW  Elec       q    Type
REMARK                         _______ _______ _______ _____ _____    ______ ____
ROOT
ATOM     13  C   UNL     1      -0.866   0.060  24.665  0.00  0.00    +0.159 C 
ATOM     14  O   UNL     1      -0.228  -0.427  24.475  0.00  0.00    -0.341 OA
ATOM     15  C   UNL     1      -0.320  -1.247  24.472  0.00  0.00    +0.227 C 
ATOM     16  C   UNL     1      -1.051  -1.580  24.659  0.00  0.00    +0.256 C 
ATOM     17  O   UNL     1      -1.144  -2.400  24.656  0.00  0.00    -0.272 OA
ATOM     18  N   UNL     1      -1.691  -1.093  24.848  0.00  0.00    -0.265 N 
ATOM     25  C   UNL     1      -1.598  -0.274  24.851  0.00  0.00    +0.140 C 
ENDROOT
BRANCH  13  10
ATOM      7  C   UNL     1      -0.592   2.520  24.672  0.00  0.00    +0.073 A 
ATOM      8  C   UNL     1      -0.913   2.142  24.012  0.00  0.00    +0.016 A 
ATOM      9  C   UNL     1      -1.004   1.323  24.010  0.00  0.00    -0.001 A 
ATOM     10  C   UNL     1      -0.775   0.880  24.668  0.00  0.00    +0.006 A 
ATOM     11  C   UNL     1      -0.455   1.257  25.327  0.00  0.00    -0.001 A 
ATOM     12  C   UNL     1      -0.363   2.077  25.330  0.00  0.00    +0.016 A 
BRANCH   7   6
ATOM      4  C   UNL     1      -1.073   3.818  25.028  0.00  0.00    +0.276 C 
ATOM      5  O   UNL     1      -1.737   3.475  25.380  0.00  0.00    -0.270 OA
ATOM      6  N   UNL     1      -0.501   3.339  24.675  0.00  0.00    -0.177 NA
BRANCH   4   3
ATOM      3  C   UNL     1      -0.981   4.637  25.031  0.00  0.00    +0.229 C 
BRANCH   3   2
ATOM      1  C   UNL     1      -1.615   5.918  25.053  0.00  0.00    +0.175 C 
ATOM      2  O   UNL     1      -1.605   5.121  25.268  0.00  0.00    -0.342 OA
ENDBRANCH   3   2
ENDBRANCH   4   3
ENDBRANCH   7   6
ENDBRANCH  13  10
BRANCH  25  26
ATOM     26  C   UNL     1      -2.237   0.213  25.041  0.00  0.00    +0.205 C 
ATOM     27  O   UNL     1      -2.532   0.223  25.811  0.00  0.00    -0.218 OA
ENDBRANCH  25  26
BRANCH  18  19
ATOM     19  C   UNL     1      -2.421  -1.427  25.035  0.00  0.00    +0.179 C 
BRANCH  19  20
ATOM     20  C   UNL     1      -2.889  -1.755  24.439  0.00  0.00    +0.246 C 
ATOM     21  O   UNL     1      -2.755  -1.552  23.651  0.00  0.00    -0.273 OA
ATOM     22  N   UNL     1      -3.490  -2.286  24.632  0.00  0.00    -0.275 N 
ATOM     23  C   UNL     1      -3.957  -2.613  24.037  0.00  0.00    +0.115 C 
ATOM     24  C   UNL     1      -3.623  -2.488  25.421  0.00  0.00    +0.115 C 
ENDBRANCH  19  20
ENDBRANCH  18  19
TORSDOF 7
ENDMDL
MODEL 3
REMARK VINA RESULT:      -7.7      2.407      3.895
REMARK  Name = 
REMARK  7 active torsions:
REMARK  status: ('A' for Active; 'I' for Inactive)
REMARK    1  A    between atoms: O_2  and  C_3
REMARK    2  A    between atoms: C_3  and  C_4
REMARK    3  A    between atoms: N_6  and  C_7
REMARK    4  A    between atoms: C_10  and  C_13
REMARK    5  A    between atoms: N_18  and  C_19
REMARK    6  A    between atoms: C_19  and  C_20
REMARK    7  A    between atoms: C_25  and  C_26
REMARK                            x       y       z     vdW  Elec       q    Type
REMARK                         _______ _______ _______ _____ _____    ______ ____
ROOT
ATOM     13  C   UNL     1      -2.629   2.986  24.896  0.00  0.00    +0.159 C 
ATOM     14  O   UNL     1      -2.626   3.769  25.152  0.00  0.00    -0.341 OA
ATOM     15  C   UNL     1      -3.337   4.151  25.322  0.00  0.00    +0.227 C 
ATOM     16  C   UNL     1      -4.052   3.749  25.235  0.00  0.00    +0.256 C 
ATOM     17  O   UNL     1      -4.764   4.130  25.404  0.00  0.00    -0.272 OA
ATOM     18  N   UNL     1      -4.056   2.964  24.978  0.00  0.00    -0.265 N 
ATOM     25  C   UNL     1      -3.344   2.583  24.809  0.00  0.00    +0.140 C 
ENDROOT
BRANCH  13  10
ATOM      7  C   UNL     1      -0.495   1.839  24.384  0.00  0.00    +0.073 A 
ATOM      8  C   UNL     1      -0.824   2.364  23.838  0.00  0.00    +0.016 A 
ATOM      9  C   UNL     1      -1.534   2.745  24.008  0.00  0.00    -0.001 A 
ATOM     10  C   UNL     1      -1.918   2.603  24.726  0.00  0.00    +0.006 A 
ATOM     11  C   UNL     1      -1.590   2.079  25.272  0.00  0.00    -0.001 A 
ATOM     12  C   UNL     1      -0.879   1.697  25.102  0.00  0.00    +0.016 A 
BRANCH   7   6
ATOM      4  C   UNL     1       0.216   0.767  23.763  0.00  0.00    +0.276 C 
ATOM      5  O   UNL     1      -0.496   0.457  23.482  0.00  0.00    -0.270 OA
ATOM      6  N   UNL     1       0.215   1.458  24.214  0.00  0.00    -0.177 NA
BRANCH   4   3
ATOM      3  C   UNL     1       0.926   0.385  23.593  0.00  0.00    +0.229 C 
BRANCH   3   2
ATOM      1  C   UNL     1       1.762  -0.209  22.598  0.00  0.00    +0.175 C 
ATOM      2  O   UNL     1       1.010  -0.037  22.890  0.00  0.00    -0.342 OA
ENDBRANCH   3   2
ENDBRANCH   4   3
ENDBRANCH   7   6
ENDBRANCH  13  10
BRANCH  25  26
ATOM     26  C   UNL     1      -3.348   1.798  24.552  0.00  0.00    +0.205 C 
ATOM     27  O   UNL     1      -3.606   1.616  23.790  0.00  0.00    -0.218 OA
ENDBRANCH  25  26
BRANCH  18  19
ATOM     19  C   UNL     1      -4.770   2.562  24.891  0.00  0.00    +0.179 C 
BRANCH  19  20
ATOM     20  C   UNL     1      -5.228   2.386  25.555  0.00  0.00    +0.246 C 
ATOM     21  O   UNL     1      -4.952   2.577  26.308  0.00  0.00    -0.273 OA
ATOM     22  N   UNL     1      -5.961   2.019  25.465  0.00  0.00    -0.275 N 
ATOM     23  C   UNL     1      -6.419   1.843  26.128  0.00  0.00    +0.115 C 
ATOM     24  C   UNL     1      -6.237   1.829  24.710  0.00  0.00    +0.115 C 
ENDBRANCH  19  20
ENDBRANCH  18  19
TORSDOF 7
ENDMDL
MODEL 4
REMARK VINA RESULT:      -7.2      2.957      4.772
REMARK  Name = 
REMARK  7 active torsions:
REMARK  status: ('A' for Active; 'I' for Inactive)
REMARK    1  A    between atoms: O_2  and  C_3
REMARK    2  A    between atoms: C_3  and  C_4
REMARK    3  A    between atoms: N_6  and  C_7
REMARK    4  A    between atoms: C_10  and  C_13
REMARK    5  A    between atoms: N_18  and  C_19
REMARK    6  A    between atoms: C_19  and  C_20
REMARK    7  A    between atoms: C_25  and  C_26
REMARK                            x       y       z     vdW  Elec       q    Type
REMARK                         _______ _______ _______ _____ _____    ______ ____
ROOT
ATOM     13  C   UNL     1      -1.278   0.656  24.383  0.00  0.00    +0.159 C 
ATOM     14  O   UNL     1      -1.492  -0.101  24.632  0.00  0.00    -0.341 OA
ATOM     15  C   UNL     1      -0.961  -0.727  24.556  0.00  0.00    +0.227 C 
ATOM     16  C   UNL     1      -0.214  -0.596  24.230  0.00  0.00    +0.256 C 
ATOM     17  O   UNL     1       0.318  -1.221  24.153  0.00  0.00    -0.272 OA
ATOM     18  N   UNL     1       0.001   0.161  23.981  0.00  0.00    -0.265 N 
ATOM     25  C   UNL     1      -0.531   0.786  24.058  0.00  0.00    +0.140 C 
ENDROOT
BRANCH  13  10
ATOM      7  C   UNL     1      -2.874   2.534  24.611  0.00  0.00    +0.073 A 
ATOM      8  C   UNL     1      -2.855   2.090  23.916  0.00  0.00    +0.016 A 
ATOM      9  C   UNL     1      -2.324   1.465  23.840  0.00  0.00    -0.001 A 
ATOM     10  C   UNL     1      -1.810   1.282  24.460  0.00  0.00    +0.006 A 
ATOM     11  C   UNL     1      -1.828   1.725  25.155  0.00  0.00    -0.001 A 
ATOM     12  C   UNL     1      -2.360   2.352  25.231  0.00  0.00    +0.016 A 
BRANCH   7   6
ATOM      4  C   UNL     1      -4.155   3.029  25.006  0.00  0.00    +0.276 C 
ATOM      5  O   UNL     1      -4.373   2.271  25.249  0.00  0.00    -0.270 OA
ATOM      6  N   UNL     1      -3.405   3.160  24.687  0.00  0.00    -0.177 NA
BRANCH   4   3
ATOM      3  C   UNL     1      -4.686   3.655  25.082  0.00  0.00    +0.229 C 
BRANCH   3   2
ATOM      1  C   UNL     1      -5.900   4.190  25.613  0.00  0.00    +0.175 C 
ATOM      2  O   UNL     1      -5.366   3.566  25.540  0.00  0.00    -0.342 OA
ENDBRANCH   3   2
ENDBRANCH   4   3
ENDBRANCH   7   6
ENDBRANCH  13  10
BRANCH  25  26
ATOM     26  C   UNL     1      -0.317   1.544  23.809  0.00  0.00    +0.205 C 
ATOM     27  O   UNL     1       0.240   1.976  24.238  0.00  0.00    -0.218 OA
ENDBRANCH  25  26
BRANCH  18  19
ATOM     19  C   UNL     1       0.747   0.292  23.655  0.00  0.00    +0.179 C 
BRANCH  19  20
ATOM     20  C   UNL     1       0.929  -0.006  22.907  0.00  0.00    +0.246 C 
ATOM     21  O   UNL     1       0.336  -0.341  22.442  0.00  0.00    -0.273 OA
ATOM     22  N   UNL     1       1.703   0.032  22.625  0.00  0.00    -0.275 N 
ATOM     23  C   UNL     1       1.884  -0.265  21.878  0.00  0.00    +0.115 C 
ATOM     24  C   UNL     1       2.295   0.367  23.091  0.00  0.00    +0.115 C 
ENDBRANCH  19  20
ENDBRANCH  18  19
TORSDOF 7
ENDMDL
MODEL 5
REMARK VINA RESULT:      -7.2      2.147      4.947
REMARK  Name = 
REMARK  7 active torsions:
REMARK  status: ('A' for Active; 'I' for Inactive)
REMARK    1  A    between atoms: O_2  and  C_3
REMARK    2  A    between atoms: C_3  and  C_4
REMARK    3  A    between atoms: N_6  and  C_7
REMARK    4  A    between atoms: C_10  and  C_13
REMARK    5  A    between atoms: N_18  and  C_19
REMARK    6  A    between atoms: C_19  and  C_20
REMARK    7  A    between atoms: C_25  and  C_26
REMARK                            x       y       z     vdW  Elec       q    Type
REMARK                         _______ _______ _______ _____ _____    ______ ____
ROOT
ATOM     13  C   UNL     1      -1.410   1.383  24.213  0.00  0.00    +0.159 C 
ATOM     14  O   UNL     1      -0.655   1.583  23.951  0.00  0.00    -0.341 OA
ATOM     15  C   UNL     1      -0.106   0.991  23.780  0.00  0.00    +0.227 C 
ATOM     16  C   UNL     1      -0.314   0.198  23.871  0.00  0.00    +0.256 C 
ATOM     17  O   UNL     1       0.234  -0.395  23.701  0.00  0.00    -0.272 OA
ATOM     18  N   UNL     1      -1.070  -0.003  24.134  0.00  0.00    -0.265 N 
ATOM     25  C   UNL     1      -1.618   0.589  24.304  0.00  0.00    +0.140 C 
ENDROOT
BRANCH  13  10
ATOM      7  C   UNL     1      -3.056   3.159  24.728  0.00  0.00    +0.073 A 
ATOM      8  C   UNL     1      -2.545   2.886  25.316  0.00  0.00    +0.016 A 
ATOM      9  C   UNL     1      -1.997   2.294  25.144  0.00  0.00    -0.001 A 
ATOM     10  C   UNL     1      -1.959   1.975  24.384  0.00  0.00    +0.006 A 
ATOM     11  C   UNL     1      -2.469   2.247  23.796  0.00  0.00    -0.001 A 
ATOM     12  C   UNL     1      -3.018   2.839  23.967  0.00  0.00    +0.016 A 
BRANCH   7   6
ATOM      4  C   UNL     1      -4.354   3.551  25.179  0.00  0.00    +0.276 C 
ATOM      5  O   UNL     1      -4.555   2.757  25.288  0.00  0.00    -0.270 OA
ATOM      6  N   UNL     1      -3.604   3.751  24.899  0.00  0.00    -0.177 NA
BRANCH   4   3
ATOM      3  C   UNL     1      -4.902   4.142  25.350  0.00  0.00    +0.229 C 
BRANCH   3   2
ATOM      1  C   UNL     1      -6.227   4.518  25.731  0.00  0.00    +0.175 C 
ATOM      2  O   UNL     1      -5.638   3.944  25.665  0.00  0.00    -0.342 OA
ENDBRANCH   3   2
ENDBRANCH   4   3
ENDBRANCH   7   6
ENDBRANCH  13  10
BRANCH  25  26
ATOM     26  C   UNL     1      -2.375   0.388  24.567  0.00  0.00    +0.205 C 
ATOM     27  O   UNL     1      -2.918   0.058  24.042  0.00  0.00    -0.218 OA
ENDBRANCH  25  26
BRANCH  18  19
ATOM     19  C   UNL     1      -1.278  -0.796  24.225  0.00  0.00    +0.179 C 
BRANCH  19  20
ATOM     20  C   UNL     1      -0.963  -1.236  24.849  0.00  0.00    +0.246 C 
ATOM     21  O   UNL     1      -0.511  -0.863  25.429  0.00  0.00    -0.273 OA
ATOM     22  N   UNL     1      -1.100  -2.048  24.891  0.00  0.00    -0.275 N 
ATOM     23  C   UNL     1      -0.785  -2.487  25.513  0.00  0.00    +0.115 C 
ATOM     24  C   UNL     1      -1.553  -2.420  24.310  0.00  0.00    +0.115 C 
ENDBRANCH  19  20
ENDBRANCH  18  19
TORSDOF 7
ENDMDL
MODEL 6
REMARK VINA RESULT:      -7.2      2.728      3.981
REMARK  Name = 
REMARK  7 active torsions:
REMARK  status: ('A' for Active; 'I' for Inactive)
REMARK    1  A    between atoms: O_2  and  C_3
REMARK    2  A    between atoms: C_3  and  C_4
REMARK    3  A    between atoms: N_6  and  C_7
REMARK    4  A    between atoms: C_10  and  C_13
REMARK    5  A    between atoms: N_18  and  C_19
REMARK    6  A    between atoms: C_19  and  C_20
REMARK    7  A    between atoms: C_25  and  C_26
REMARK                            x       y       z     vdW  Elec       q    Type
REMARK                         _______ _______ _______ _____ _____    ______ ____
ROOT
ATOM     13  C   UNL     1      -2.530   0.832  24.326  0.00  0.00    +0.159 C 
ATOM     14  O   UNL     1      -3.021   0.221  24.070  0.00  0.00    -0.341 OA
ATOM     15  C   UNL     1      -3.833   0.254  24.216  0.00  0.00    +0.227 C 
ATOM     16  C   UNL     1      -4.153   0.899  24.618  0.00  0.00    +0.256 C 
ATOM     17  O   UNL     1      -4.964   0.933  24.765  0.00  0.00    -0.272 OA
ATOM     18  N   UNL     1      -3.662   1.511  24.875  0.00  0.00    -0.265 N 
ATOM     25  C   UNL     1      -2.850   1.477  24.729  0.00  0.00    +0.140 C 
ENDROOT
BRANCH  13  10
ATOM      7  C   UNL     1      -0.096   0.734  23.887  0.00  0.00    +0.073 A 
ATOM      8  C   UNL     1      -0.580   1.214  23.423  0.00  0.00    +0.016 A 
ATOM      9  C   UNL     1      -1.391   1.247  23.569  0.00  0.00    -0.001 A 
ATOM     10  C   UNL     1      -1.719   0.799  24.181  0.00  0.00    +0.006 A 
ATOM     11  C   UNL     1      -1.235   0.318  24.644  0.00  0.00    -0.001 A 
ATOM     12  C   UNL     1      -0.424   0.285  24.499  0.00  0.00    +0.016 A 
BRANCH   7   6
ATOM      4  C   UNL     1       1.015   0.161  23.194  0.00  0.00    +0.276 C 
ATOM      5  O   UNL     1       0.502  -0.347  22.793  0.00  0.00    -0.270 OA
ATOM      6  N   UNL     1       0.715   0.701  23.741  0.00  0.00    -0.177 NA
BRANCH   4   3
ATOM      3  C   UNL     1       1.826   0.128  23.048  0.00  0.00    +0.229 C 
BRANCH   3   2
ATOM      1  C   UNL     1       2.908   0.096  22.116  0.00  0.00    +0.175 C 
ATOM      2  O   UNL     1       2.102   0.024  22.279  0.00  0.00    -0.342 OA
ENDBRANCH   3   2
ENDBRANCH   4   3
ENDBRANCH   7   6
ENDBRANCH  13  10
BRANCH  25  26
ATOM     26  C   UNL     1      -2.359   2.089  24.986  0.00  0.00    +0.205 C 
ATOM     27  O   UNL     1      -2.183   2.166  25.788  0.00  0.00    -0.218 OA
ENDBRANCH  25  26
BRANCH  18  19
ATOM     19  C   UNL     1      -3.981   2.155  25.277  0.00  0.00    +0.179 C 
BRANCH  19  20
ATOM     20  C   UNL     1      -4.424   2.719  24.868  0.00  0.00    +0.246 C 
ATOM     21  O   UNL     1      -4.438   2.713  24.043  0.00  0.00    -0.273 OA
ATOM     22  N   UNL     1      -4.853   3.288  25.284  0.00  0.00    -0.275 N 
ATOM     23  C   UNL     1      -5.295   3.851  24.875  0.00  0.00    +0.115 C 
ATOM     24  C   UNL     1      -4.839   3.293  26.109  0.00  0.00    +0.115 C 
ENDBRANCH  19  20
ENDBRANCH  18  19
TORSDOF 7
ENDMDL
MODEL 7
REMARK VINA RESULT:      -7.1      1.279      5.168
REMARK  Name = 
REMARK  7 active torsions:
REMARK  status: ('A' for Active; 'I' for Inactive)
REMARK    1  A    between atoms: O_2  and  C_3
REMARK    2  A    between atoms: C_3  and  C_4
REMARK    3  A    between atoms: N_6  and  C_7
REMARK    4  A    between atoms: C_10  and  C_13
REMARK    5  A    between atoms: N_18  and  C_19
REMARK    6  A    between atoms: C_19  and  C_20
REMARK    7  A    between atoms: C_25  and  C_26
REMARK                            x       y       z     vdW  Elec       q    Type
REMARK                         _______ _______ _______ _____ _____    ______ ____
ROOT
ATOM     13  C   UNL     1      -3.843   0.848  24.440  0.00  0.00    +0.159 C 
ATOM     14  O   UNL     1      -4.635   0.687  24.281  0.00  0.00    -0.341 OA
ATOM     15  C   UNL     1      -4.884  -0.091  24.163  0.00  0.00    +0.227 C 
ATOM     16  C   UNL     1      -4.338  -0.708  24.205  0.00  0.00    +0.256 C 
ATOM     17  O   UNL     1      -4.586  -1.487  24.088  0.00  0.00    -0.272 OA
ATOM     18  N   UNL     1      -3.544  -0.548  24.365  0.00  0.00    -0.265 N 
ATOM     25  C   UNL     1      -3.297   0.230  24.482  0.00  0.00    +0.140 C 
ENDROOT
BRANCH  13  10
ATOM      7  C   UNL     1      -3.097   3.182  24.794  0.00  0.00    +0.073 A 
ATOM      8  C   UNL     1      -3.306   2.712  25.440  0.00  0.00    +0.016 A 
ATOM      9  C   UNL     1      -3.554   1.935  25.322  0.00  0.00    -0.001 A 
ATOM     10  C   UNL     1      -3.594   1.626  24.557  0.00  0.00    +0.006 A 
ATOM     11  C   UNL     1      -3.386   2.095  23.912  0.00  0.00    -0.001 A 
ATOM     12  C   UNL     1      -3.137   2.873  24.029  0.00  0.00    +0.016 A 
BRANCH   7   6
ATOM      4  C   UNL     1      -2.063   4.117  25.107  0.00  0.00    +0.276 C 
ATOM      5  O   UNL     1      -1.524   3.495  25.185  0.00  0.00    -0.270 OA
ATOM      6  N   UNL     1      -2.849   3.959  24.912  0.00  0.00    -0.177 NA
BRANCH   4   3
ATOM      3  C   UNL     1      -1.814   4.894  25.225  0.00  0.00    +0.229 C 
BRANCH   3   2
ATOM      1  C   UNL     1      -0.825   5.827  24.786  0.00  0.00    +0.175 C 
ATOM      2  O   UNL     1      -1.023   5.096  25.113  0.00  0.00    -0.342 OA
ENDBRANCH   3   2
ENDBRANCH   4   3
ENDBRANCH   7   6
ENDBRANCH  13  10
BRANCH  25  26
ATOM     26  C   UNL     1      -2.503   0.391  24.641  0.00  0.00    +0.205 C 
ATOM     27  O   UNL     1      -1.939   0.308  24.046  0.00  0.00    -0.218 OA
ENDBRANCH  25  26
BRANCH  18  19
ATOM     19  C   UNL     1      -3.000  -1.165  24.407  0.00  0.00    +0.179 C 
BRANCH  19  20
ATOM     20  C   UNL     1      -3.051  -1.721  25.015  0.00  0.00    +0.246 C 
ATOM     21  O   UNL     1      -3.526  -1.569  25.673  0.00  0.00    -0.273 OA
ATOM     22  N   UNL     1      -2.628  -2.427  24.965  0.00  0.00    -0.275 N 
ATOM     23  C   UNL     1      -2.680  -2.982  25.573  0.00  0.00    +0.115 C 
ATOM     24  C   UNL     1      -2.154  -2.578  24.307  0.00  0.00    +0.115 C 
ENDBRANCH  19  20
ENDBRANCH  18  19
TORSDOF 7
ENDMDL
MODEL 8
REMARK VINA RESULT:      -7.1      2.321      4.798
REMARK  Name = 
REMARK  7 active torsions:
REMARK  status: ('A' for Active; 'I' for Inactive)
REMARK    1  A    between atoms: O_2  and  C_3
REMARK    2  A    between atoms: C_3  and  C_4
REMARK    3  A    between atoms: N_6  and  C_7
REMARK    4  A    between atoms: C_10  and  C_13
REMARK    5  A    between atoms: N_18  and  C_19
REMARK    6  A    between atoms: C_19  and  C_20
REMARK    7  A    between atoms: C_25  and  C_26
REMARK                            x       y       z     vdW  Elec       q    Type
REMARK                         _______ _______ _______ _____ _____    ______ ____
ROOT
ATOM     13  C   UNL     1      -3.898  -0.444  24.564  0.00  0.00    +0.159 C 
ATOM     14  O   UNL     1      -4.275  -1.159  24.403  0.00  0.00    -0.341 OA
ATOM     15  C   UNL     1      -3.829  -1.834  24.238  0.00  0.00    +0.227 C 
ATOM     16  C   UNL     1      -3.005  -1.792  24.235  0.00  0.00    +0.256 C 
ATOM     17  O   UNL     1      -2.558  -2.466  24.071  0.00  0.00    -0.272 OA
ATOM     18  N   UNL     1      -2.627  -1.076  24.397  0.00  0.00    -0.265 N 
ATOM     25  C   UNL     1      -3.074  -0.403  24.562  0.00  0.00    +0.140 C 
ENDROOT
BRANCH  13  10
ATOM      7  C   UNL     1      -5.236   1.579  25.060  0.00  0.00    +0.073 A 
ATOM      8  C   UNL     1      -5.080   1.030  25.657  0.00  0.00    +0.016 A 
ATOM      9  C   UNL     1      -4.634   0.357  25.492  0.00  0.00    -0.001 A 
ATOM     10  C   UNL     1      -4.344   0.230  24.729  0.00  0.00    +0.006 A 
ATOM     11  C   UNL     1      -4.500   0.778  24.133  0.00  0.00    -0.001 A 
ATOM     12  C   UNL     1      -4.946   1.452  24.297  0.00  0.00    +0.016 A 
BRANCH   7   6
ATOM      4  C   UNL     1      -5.312   2.933  25.508  0.00  0.00    +0.276 C 
ATOM      5  O   UNL     1      -4.494   2.940  25.627  0.00  0.00    -0.270 OA
ATOM      6  N   UNL     1      -5.682   2.252  25.225  0.00  0.00    -0.177 NA
BRANCH   4   3
ATOM      3  C   UNL     1      -5.757   3.607  25.673  0.00  0.00    +0.229 C 
BRANCH   3   2
ATOM      1  C   UNL     1      -5.968   5.012  25.515  0.00  0.00    +0.175 C 
ATOM      2  O   UNL     1      -5.478   4.351  25.453  0.00  0.00    -0.342 OA
ENDBRANCH   3   2
ENDBRANCH   4   3
ENDBRANCH   7   6
ENDBRANCH  13  10
BRANCH  25  26
ATOM     26  C   UNL     1      -2.696   0.313  24.723  0.00  0.00    +0.205 C 
ATOM     27  O   UNL     1      -2.313   0.722  24.118  0.00  0.00    -0.218 OA
ENDBRANCH  25  26
BRANCH  18  19
ATOM     19  C   UNL     1      -1.804  -1.035  24.395  0.00  0.00    +0.179 C 
BRANCH  19  20
ATOM     20  C   UNL     1      -1.371  -1.385  25.004  0.00  0.00    +0.246 C 
ATOM     21  O   UNL     1      -1.760  -1.680  25.669  0.00  0.00    -0.273 OA
ATOM     22  N   UNL     1      -0.549  -1.440  24.948  0.00  0.00    -0.275 N 
ATOM     23  C   UNL     1      -0.117  -1.789  25.557  0.00  0.00    +0.115 C 
ATOM     24  C   UNL     1      -0.161  -1.144  24.283  0.00  0.00    +0.115 C 
ENDBRANCH  19  20
ENDBRANCH  18  19
TORSDOF 7
ENDMDL
MODEL 9
REMARK VINA RESULT:      -7.0      1.606      2.270
REMARK  Name = 
REMARK  7 active torsions:
REMARK  status: ('A' for Active; 'I' for Inactive)
REMARK    1  A    between atoms: O_2  and  C_3
REMARK    2  A    between atoms: C_3  and  C_4
REMARK    3  A    between atoms: N_6  and  C_7
REMARK    4  A    between atoms: C_10  and  C_13
REMARK    5  A    between atoms: N_18  and  C_19
REMARK    6  A    between atoms: C_19  and  C_20
REMARK    7  A    between atoms: C_25  and  C_26
REMARK                            x       y       z     vdW  Elec       q    Type
REMARK                         _______ _______ _______ _____ _____    ______ ____
ROOT
ATOM     13  C   UNL     1      -0.987   1.265  25.483  0.00  0.00    +0.159 C 
ATOM     14  O   UNL     1      -0.241   1.263  25.832  0.00  0.00    -0.341 OA
ATOM     15  C   UNL     1       0.108   1.974  26.066  0.00  0.00    +0.227 C 
ATOM     16  C   UNL     1      -0.291   2.686  25.950  0.00  0.00    +0.256 C 
ATOM     17  O   UNL     1       0.056   3.397  26.183  0.00  0.00    -0.272 OA
ATOM     18  N   UNL     1      -1.039   2.688  25.600  0.00  0.00    -0.265 N 
ATOM     25  C   UNL     1      -1.387   1.977  25.367  0.00  0.00    +0.140 C 
ENDROOT
BRANCH  13  10
ATOM      7  C   UNL     1      -2.034  -0.867  24.785  0.00  0.00    +0.073 A 
ATOM      8  C   UNL     1      -1.999  -0.667  25.584  0.00  0.00    +0.016 A 
ATOM      9  C   UNL     1      -1.651   0.043  25.817  0.00  0.00    -0.001 A 
ATOM     10  C   UNL     1      -1.336   0.554  25.250  0.00  0.00    +0.006 A 
ATOM     11  C   UNL     1      -1.371   0.354  24.451  0.00  0.00    -0.001 A 
ATOM     12  C   UNL     1      -1.720  -0.356  24.217  0.00  0.00    +0.016 A 
BRANCH   7   6
ATOM      4  C   UNL     1      -3.204  -1.636  24.498  0.00  0.00    +0.276 C 
ATOM      5  O   UNL     1      -3.677  -0.984  24.677  0.00  0.00    -0.270 OA
ATOM      6  N   UNL     1      -2.382  -1.577  24.552  0.00  0.00    -0.177 NA
BRANCH   4   3
ATOM      3  C   UNL     1      -3.552  -2.346  24.265  0.00  0.00    +0.229 C 
BRANCH   3   2
ATOM      1  C   UNL     1      -4.568  -3.031  23.529  0.00  0.00    +0.175 C 
ATOM      2  O   UNL     1      -4.281  -2.341  23.880  0.00  0.00    -0.342 OA
ENDBRANCH   3   2
ENDBRANCH   4   3
ENDBRANCH   7   6
ENDBRANCH  13  10
BRANCH  25  26
ATOM     26  C   UNL     1      -2.135   1.979  25.018  0.00  0.00    +0.205 C 
ATOM     27  O   UNL     1      -2.798   2.182  25.465  0.00  0.00    -0.218 OA
ENDBRANCH  25  26
BRANCH  18  19
ATOM     19  C   UNL     1      -1.438   3.400  25.484  0.00  0.00    +0.179 C 
BRANCH  19  20
ATOM     20  C   UNL     1      -1.121   3.974  24.983  0.00  0.00    +0.246 C 
ATOM     21  O   UNL     1      -0.525   3.772  24.450  0.00  0.00    -0.273 OA
ATOM     22  N   UNL     1      -1.399   4.750  25.017  0.00  0.00    -0.275 N 
ATOM     23  C   UNL     1      -1.082   5.324  24.516  0.00  0.00    +0.115 C 
ATOM     24  C   UNL     1      -1.995   4.952  25.551  0.00  0.00    +0.115 C 
ENDBRANCH  19  20
ENDBRANCH  18  19
TORSDOF 7
ENDMDL
MODEL 10
REMARK VINA RESULT:      -7.0     17.844     19.177
REMARK  Name = 
REMARK  7 active torsions:
REMARK  status: ('A' for Active; 'I' for Inactive)
REMARK    1  A    between atoms: O_2  and  C_3
REMARK    2  A    between atoms: C_3  and  C_4
REMARK    3  A    between atoms: N_6  and  C_7
REMARK    4  A    between atoms: C_10  and  C_13
REMARK    5  A    between atoms: N_18  and  C_19
REMARK    6  A    between atoms: C_19  and  C_20
REMARK    7  A    between atoms: C_25  and  C_26
REMARK                            x       y       z     vdW  Elec       q    Type
REMARK                         _______ _______ _______ _____ _____    ______ ____
ROOT
ATOM     13  C   UNL     1      13.509   7.912  20.482  0.00  0.00    +0.159 C 
ATOM     14  O   UNL     1      13.242   7.811  21.255  0.00  0.00    -0.341 OA
ATOM     15  C   UNL     1      13.784   7.712  21.870  0.00  0.00    +0.227 C 
ATOM     16  C   UNL     1      14.593   7.713  21.710  0.00  0.00    +0.256 C 
ATOM     17  O   UNL     1      15.135   7.614  22.324  0.00  0.00    -0.272 OA
ATOM     18  N   UNL     1      14.861   7.814  20.936  0.00  0.00    -0.265 N 
ATOM     25  C   UNL     1      14.318   7.913  20.322  0.00  0.00    +0.140 C 
ENDROOT
BRANCH  13  10
ATOM      7  C   UNL     1      11.884   8.211  18.639  0.00  0.00    +0.073 A 
ATOM      8  C   UNL     1      12.072   8.846  19.131  0.00  0.00    +0.016 A 
ATOM      9  C   UNL     1      12.613   8.747  19.745  0.00  0.00    -0.001 A 
ATOM     10  C   UNL     1      12.967   8.011  19.867  0.00  0.00    +0.006 A 
ATOM     11  C   UNL     1      12.780   7.376  19.376  0.00  0.00    -0.001 A 
ATOM     12  C   UNL     1      12.238   7.475  18.761  0.00  0.00    +0.016 A 
BRANCH   7   6
ATOM      4  C   UNL     1      11.598   8.579  17.288  0.00  0.00    +0.276 C 
ATOM      5  O   UNL     1      12.397   8.748  17.165  0.00  0.00    -0.270 OA
ATOM      6  N   UNL     1      11.342   8.311  18.025  0.00  0.00    -0.177 NA
BRANCH   4   3
ATOM      3  C   UNL     1      11.057   8.679  16.674  0.00  0.00    +0.229 C 
BRANCH   3   2
ATOM      1  C   UNL     1      10.763   9.094  15.339  0.00  0.00    +0.175 C 
ATOM      2  O   UNL     1      11.306   8.986  15.951  0.00  0.00    -0.342 OA
ENDBRANCH   3   2
ENDBRANCH   4   3
ENDBRANCH   7   6
ENDBRANCH  13  10
BRANCH  25  26
ATOM     26  C   UNL     1      14.586   8.015  19.548  0.00  0.00    +0.205 C 
ATOM     27  O   UNL     1      14.963   8.715  19.330  0.00  0.00    -0.218 OA
ENDBRANCH  25  26
BRANCH  18  19
ATOM     19  C   UNL     1      15.669   7.816  20.776  0.00  0.00    +0.179 C 
BRANCH  19  20
ATOM     20  C   UNL     1      16.106   7.119  20.847  0.00  0.00    +0.246 C 
ATOM     21  O   UNL     1      15.717   6.396  20.928  0.00  0.00    -0.273 OA
ATOM     22  N   UNL     1      16.930   7.146  20.836  0.00  0.00    -0.275 N 
ATOM     23  C   UNL     1      17.366   6.450  20.907  0.00  0.00    +0.115 C 
ATOM     24  C   UNL     1      17.318   7.870  20.755  0.00  0.00    +0.115 C 
ENDBRANCH  19  20
ENDBRANCH  18  19
TORSDOF 7
ENDMDL
