MODEL 1
REMARK VINA RESULT:     -12.9      0.000      0.000
REMARK  Name = 
REMARK  5 active torsions:
REMARK  status: ('A' for Active; 'I' for Inactive)
REMARK    1  A    between atoms: N_4  and  C_23
REMARK    2  A    between atoms: C_7  and  C_8
REMARK    3  A    between atoms: C_10  and  N_11
REMARK    4  A    between atoms: N_14  and  C_15
REMARK    5  A    between atoms: C_26  and  C_29
REMARK                            x       y       z     vdW  Elec       q    Type
REMARK                         _______ _______ _______ _____ _____    ______ ____
ROOT
ATOM      1  C   UNL     1      -6.180   1.530  25.402  0.00  0.00    +0.054 C 
ATOM      2  C   UNL     1      -5.482   1.135  25.202  0.00  0.00    +0.077 A 
ATOM      3  N   UNL     1      -5.395   0.321  25.114  0.00  0.00    -0.170 NA
ATOM      4  N   UNL     1      -4.609   0.169  24.913  0.00  0.00    -0.234 N 
ATOM      5  C   UNL     1      -4.211   0.891  24.877  0.00  0.00    +0.058 A 
ATOM      6  C   UNL     1      -3.413   0.997  24.694  0.00  0.00    +0.052 C 
ATOM      7  C   UNL     1      -4.751   1.489  25.056  0.00  0.00    +0.010 A 
ENDROOT
BRANCH   4  23
ATOM     23  C   UNL     1      -4.278  -0.574  24.772  0.00  0.00    +0.082 A 
ATOM     24  C   UNL     1      -3.874  -0.965  25.375  0.00  0.00    +0.019 A 
ATOM     25  C   UNL     1      -3.544  -1.709  25.235  0.00  0.00    -0.003 A 
ATOM     26  C   UNL     1      -3.617  -2.059  24.492  0.00  0.00    -0.023 A 
ATOM     27  C   UNL     1      -4.022  -1.667  23.889  0.00  0.00    -0.003 A 
ATOM     28  C   UNL     1      -4.352  -0.924  24.029  0.00  0.00    +0.019 A 
BRANCH  26  29
ATOM     29  C   UNL     1      -3.287  -2.802  24.352  0.00  0.00    +0.019 C 
ATOM     30  C   UNL     1      -2.957  -3.545  24.211  0.00  0.00    +0.004 C 
ATOM     31  C   UNL     1      -2.549  -2.520  24.592  0.00  0.00    +0.004 C 
ATOM     32  C   UNL     1      -4.024  -3.084  24.111  0.00  0.00    +0.004 C 
ENDBRANCH  26  29
ENDBRANCH   4  23
BRANCH   7   8
ATOM      8  C   UNL     1      -4.588   2.297  25.083  0.00  0.00    +0.048 C 
ATOM      9  C   UNL     1      -3.974   2.654  25.501  0.00  0.00    +0.035 C 
ATOM     10  C   UNL     1      -4.017   3.467  25.373  0.00  0.00    +0.119 C 
ATOM     21  C   UNL     1      -4.658   3.613  24.875  0.00  0.00    -0.009 C 
ATOM     22  C   UNL     1      -5.011   2.890  24.696  0.00  0.00    -0.025 C 
BRANCH  10  11
ATOM     11  N   UNL     1      -3.508   4.036  25.687  0.00  0.00    -0.184 NA
ATOM     12  C   UNL     1      -2.789   4.197  25.317  0.00  0.00    +0.344 C 
ATOM     13  O   UNL     1      -2.577   3.789  24.632  0.00  0.00    -0.249 OA
ATOM     14  N   UNL     1      -2.281   4.767  25.631  0.00  0.00    -0.161 NA
BRANCH  14  15
ATOM     15  C   UNL     1      -1.562   4.928  25.261  0.00  0.00    +0.075 A 
ATOM     16  C   UNL     1      -0.973   4.351  25.237  0.00  0.00    +0.017 A 
ATOM     17  C   UNL     1      -0.253   4.511  24.867  0.00  0.00    +0.001 A 
ATOM     18  C   UNL     1      -0.123   5.249  24.521  0.00  0.00    +0.000 A 
ATOM     19  C   UNL     1      -0.713   5.826  24.545  0.00  0.00    +0.001 A 
ATOM     20  C   UNL     1      -1.432   5.665  24.915  0.00  0.00    +0.017 A 
ENDBRANCH  14  15
ENDBRANCH  10  11
ENDBRANCH   7   8
TORSDOF 5
ENDMDL
MODEL 2
REMARK VINA RESULT:     -11.7      3.884      5.344
REMARK  Name = 
REMARK  5 active torsions:
REMARK  status: ('A' for Active; 'I' for Inactive)
REMARK    1  A    between atoms: N_4  and  C_23
REMARK    2  A    between atoms: C_7  and  C_8
REMARK    3  A    between atoms: C_10  and  N_11
REMARK    4  A    between atoms: N_14  and  C_15
REMARK    5  A    between atoms: C_26  and  C_29
REMARK                            x       y       z     vdW  Elec       q    Type
REMARK                         _______ _______ _______ _____ _____    ______ ____
ROOT
ATOM      1  C   UNL     1      -0.357   1.708  25.377  0.00  0.00    +0.054 C 
ATOM      2  C   UNL     1      -1.089   1.474  25.073  0.00  0.00    +0.077 A 
ATOM      3  N   UNL     1      -1.821   1.797  25.272  0.00  0.00    -0.170 NA
ATOM      4  N   UNL     1      -2.401   1.400  24.840  0.00  0.00    -0.234 N 
ATOM      5  C   UNL     1      -2.026   0.831  24.374  0.00  0.00    +0.058 A 
ATOM      6  C   UNL     1      -2.398   0.309  23.854  0.00  0.00    +0.052 C 
ATOM      7  C   UNL     1      -1.215   0.877  24.518  0.00  0.00    +0.010 A 
ENDROOT
BRANCH   4  23
ATOM     23  C   UNL     1      -3.213   1.546  24.868  0.00  0.00    +0.082 A 
ATOM     24  C   UNL     1      -3.711   1.021  25.263  0.00  0.00    +0.019 A 
ATOM     25  C   UNL     1      -4.523   1.166  25.292  0.00  0.00    -0.003 A 
ATOM     26  C   UNL     1      -4.836   1.836  24.926  0.00  0.00    -0.023 A 
ATOM     27  C   UNL     1      -4.336   2.361  24.531  0.00  0.00    -0.003 A 
ATOM     28  C   UNL     1      -3.524   2.215  24.502  0.00  0.00    +0.019 A 
BRANCH  26  29
ATOM     29  C   UNL     1      -5.648   1.981  24.954  0.00  0.00    +0.019 C 
ATOM     30  C   UNL     1      -6.459   2.127  24.983  0.00  0.00    +0.004 C 
ATOM     31  C   UNL     1      -5.792   1.239  24.623  0.00  0.00    +0.004 C 
ATOM     32  C   UNL     1      -5.502   2.722  25.286  0.00  0.00    +0.004 C 
ENDBRANCH  26  29
ENDBRANCH   4  23
BRANCH   7   8
ATOM      8  C   UNL     1      -0.634   0.408  24.168  0.00  0.00    +0.048 C 
ATOM      9  C   UNL     1      -0.129   0.635  23.557  0.00  0.00    +0.035 C 
ATOM     10  C   UNL     1       0.361  -0.003  23.380  0.00  0.00    +0.119 C 
ATOM     21  C   UNL     1       0.159  -0.627  23.882  0.00  0.00    -0.009 C 
ATOM     22  C   UNL     1      -0.456  -0.372  24.368  0.00  0.00    -0.025 C 
BRANCH  10  11
ATOM     11  N   UNL     1       0.950  -0.018  22.802  0.00  0.00    -0.184 NA
ATOM     12  C   UNL     1       1.736   0.118  23.010  0.00  0.00    +0.344 C 
ATOM     13  O   UNL     1       1.935   0.269  23.797  0.00  0.00    -0.249 OA
ATOM     14  N   UNL     1       2.325   0.102  22.432  0.00  0.00    -0.161 NA
BRANCH  14  15
ATOM     15  C   UNL     1       3.111   0.238  22.640  0.00  0.00    +0.075 A 
ATOM     16  C   UNL     1       3.572  -0.379  22.936  0.00  0.00    +0.017 A 
ATOM     17  C   UNL     1       4.359  -0.243  23.144  0.00  0.00    +0.001 A 
ATOM     18  C   UNL     1       4.685   0.510  23.057  0.00  0.00    +0.000 A 
ATOM     19  C   UNL     1       4.223   1.127  22.761  0.00  0.00    +0.001 A 
ATOM     20  C   UNL     1       3.437   0.991  22.553  0.00  0.00    +0.017 A 
ENDBRANCH  14  15
ENDBRANCH  10  11
ENDBRANCH   7   8
TORSDOF 5
ENDMDL
MODEL 3
REMARK VINA RESULT:     -10.9      1.170      5.923
REMARK  Name = 
REMARK  5 active torsions:
REMARK  status: ('A' for Active; 'I' for Inactive)
REMARK    1  A    between atoms: N_4  and  C_23
REMARK    2  A    between atoms: C_7  and  C_8
REMARK    3  A    between atoms: C_10  and  N_11
REMARK    4  A    between atoms: N_14  and  C_15
REMARK    5  A    between atoms: C_26  and  C_29
REMARK                            x       y       z     vdW  Elec       q    Type
REMARK                         _______ _______ _______ _____ _____    ______ ____
ROOT
ATOM      1  C   UNL     1      -5.600   2.735  25.772  0.00  0.00    +0.054 C 
ATOM      2  C   UNL     1      -4.815   2.804  25.523  0.00  0.00    +0.077 A 
ATOM      3  N   UNL     1      -4.361   3.491  25.538  0.00  0.00    -0.170 NA
ATOM      4  N   UNL     1      -3.613   3.309  25.239  0.00  0.00    -0.234 N 
ATOM      5  C   UNL     1      -3.607   2.508  25.039  0.00  0.00    +0.058 A 
ATOM      6  C   UNL     1      -2.968   2.093  24.720  0.00  0.00    +0.052 C 
ATOM      7  C   UNL     1      -4.350   2.196  25.215  0.00  0.00    +0.010 A 
ENDROOT
BRANCH   4  23
ATOM     23  C   UNL     1      -2.983   3.835  25.154  0.00  0.00    +0.082 A 
ATOM     24  C   UNL     1      -2.858   4.214  24.433  0.00  0.00    +0.019 A 
ATOM     25  C   UNL     1      -2.227   4.741  24.348  0.00  0.00    -0.003 A 
ATOM     26  C   UNL     1      -1.724   4.887  24.984  0.00  0.00    -0.023 A 
ATOM     27  C   UNL     1      -1.849   4.507  25.706  0.00  0.00    -0.003 A 
ATOM     28  C   UNL     1      -2.480   3.980  25.791  0.00  0.00    +0.019 A 
BRANCH  26  29
ATOM     29  C   UNL     1      -1.093   5.413  24.899  0.00  0.00    +0.019 C 
ATOM     30  C   UNL     1      -0.464   5.939  24.815  0.00  0.00    +0.004 C 
ATOM     31  C   UNL     1      -0.575   4.777  24.804  0.00  0.00    +0.004 C 
ATOM     32  C   UNL     1      -1.611   6.047  24.995  0.00  0.00    +0.004 C 
ENDBRANCH  26  29
ENDBRANCH   4  23
BRANCH   7   8
ATOM      8  C   UNL     1      -4.585   1.413  25.102  0.00  0.00    +0.048 C 
ATOM      9  C   UNL     1      -4.249   0.749  25.456  0.00  0.00    +0.035 C 
ATOM     10  C   UNL     1      -4.654   0.083  25.188  0.00  0.00    +0.119 C 
ATOM     21  C   UNL     1      -5.242   0.336  24.666  0.00  0.00    -0.009 C 
ATOM     22  C   UNL     1      -5.199   1.157  24.613  0.00  0.00    -0.025 C 
BRANCH  10  11
ATOM     11  N   UNL     1      -4.499  -0.699  25.401  0.00  0.00    -0.184 NA
ATOM     12  C   UNL     1      -3.926  -1.132  24.997  0.00  0.00    +0.344 C 
ATOM     13  O   UNL     1      -3.506  -0.785  24.378  0.00  0.00    -0.249 OA
ATOM     14  N   UNL     1      -3.773  -1.914  25.211  0.00  0.00    -0.161 NA
BRANCH  14  15
ATOM     15  C   UNL     1      -3.199  -2.348  24.807  0.00  0.00    +0.075 A 
ATOM     16  C   UNL     1      -2.400  -2.211  24.954  0.00  0.00    +0.017 A 
ATOM     17  C   UNL     1      -1.825  -2.645  24.549  0.00  0.00    +0.001 A 
ATOM     18  C   UNL     1      -2.052  -3.215  23.998  0.00  0.00    +0.000 A 
ATOM     19  C   UNL     1      -2.853  -3.352  23.851  0.00  0.00    +0.001 A 
ATOM     20  C   UNL     1      -3.426  -2.918  24.256  0.00  0.00    +0.017 A 
ENDBRANCH  14  15
ENDBRANCH  10  11
ENDBRANCH   7   8
TORSDOF 5
ENDMDL
MODEL 4
REMARK VINA RESULT:     -10.8      4.427      5.767
REMARK  Name = 
REMARK  5 active torsions:
REMARK  status: ('A' for Active; 'I' for Inactive)
REMARK    1  A    between atoms: N_4  and  C_23
REMARK    2  A    between atoms: C_7  and  C_8
REMARK    3  A    between atoms: C_10  and  N_11
REMARK    4  A    between atoms: N_14  and  C_15
REMARK    5  A    between atoms: C_26  and  C_29
REMARK                            x       y       z     vdW  Elec       q    Type
REMARK                         _______ _______ _______ _____ _____    ______ ____
ROOT
ATOM      1  C   UNL     1      -0.196  -1.047  24.760  0.00  0.00    +0.054 C 
ATOM      2  C   UNL     1      -0.677  -0.428  24.499  0.00  0.00    +0.077 A 
ATOM      3  N   UNL     1      -1.436  -0.258  24.770  0.00  0.00    -0.170 NA
ATOM      4  N   UNL     1      -1.711   0.404  24.360  0.00  0.00    -0.234 N 
ATOM      5  C   UNL     1      -1.120   0.642  23.836  0.00  0.00    +0.058 A 
ATOM      6  C   UNL     1      -1.161   1.283  23.317  0.00  0.00    +0.052 C 
ATOM      7  C   UNL     1      -0.480   0.128  23.922  0.00  0.00    +0.010 A 
ENDROOT
BRANCH   4  23
ATOM     23  C   UNL     1      -2.447   0.764  24.456  0.00  0.00    +0.082 A 
ATOM     24  C   UNL     1      -2.517   1.438  24.925  0.00  0.00    +0.019 A 
ATOM     25  C   UNL     1      -3.253   1.799  25.022  0.00  0.00    -0.003 A 
ATOM     26  C   UNL     1      -3.918   1.484  24.650  0.00  0.00    -0.023 A 
ATOM     27  C   UNL     1      -3.849   0.808  24.181  0.00  0.00    -0.003 A 
ATOM     28  C   UNL     1      -3.112   0.448  24.084  0.00  0.00    +0.019 A 
BRANCH  26  29
ATOM     29  C   UNL     1      -4.655   1.844  24.747  0.00  0.00    +0.019 C 
ATOM     30  C   UNL     1      -5.391   2.203  24.844  0.00  0.00    +0.004 C 
ATOM     31  C   UNL     1      -4.386   2.506  24.333  0.00  0.00    +0.004 C 
ATOM     32  C   UNL     1      -4.923   1.183  25.161  0.00  0.00    +0.004 C 
ENDBRANCH  26  29
ENDBRANCH   4  23
BRANCH   7   8
ATOM      8  C   UNL     1       0.231   0.165  23.504  0.00  0.00    +0.048 C 
ATOM      9  C   UNL     1       0.833   0.715  23.618  0.00  0.00    +0.035 C 
ATOM     10  C   UNL     1       1.437   0.548  23.083  0.00  0.00    +0.119 C 
ATOM     21  C   UNL     1       1.208  -0.108  22.638  0.00  0.00    -0.009 C 
ATOM     22  C   UNL     1       0.463  -0.345  22.898  0.00  0.00    -0.025 C 
BRANCH  10  11
ATOM     11  N   UNL     1       2.147   0.961  23.005  0.00  0.00    -0.184 NA
ATOM     12  C   UNL     1       2.866   0.575  23.123  0.00  0.00    +0.344 C 
ATOM     13  O   UNL     1       2.876  -0.227  23.318  0.00  0.00    -0.249 OA
ATOM     14  N   UNL     1       3.575   0.989  23.045  0.00  0.00    -0.161 NA
BRANCH  14  15
ATOM     15  C   UNL     1       4.294   0.603  23.162  0.00  0.00    +0.075 A 
ATOM     16  C   UNL     1       4.618   0.557  23.919  0.00  0.00    +0.017 A 
ATOM     17  C   UNL     1       5.338   0.170  24.037  0.00  0.00    +0.001 A 
ATOM     18  C   UNL     1       5.732  -0.171  23.397  0.00  0.00    +0.000 A 
ATOM     19  C   UNL     1       5.407  -0.125  22.640  0.00  0.00    +0.001 A 
ATOM     20  C   UNL     1       4.688   0.262  22.522  0.00  0.00    +0.017 A 
ENDBRANCH  14  15
ENDBRANCH  10  11
ENDBRANCH   7   8
TORSDOF 5
ENDMDL
MODEL 5
REMARK VINA RESULT:     -10.0      2.899      4.881
REMARK  Name = 
REMARK  5 active torsions:
REMARK  status: ('A' for Active; 'I' for Inactive)
REMARK    1  A    between atoms: N_4  and  C_23
REMARK    2  A    between atoms: C_7  and  C_8
REMARK    3  A    between atoms: C_10  and  N_11
REMARK    4  A    between atoms: N_14  and  C_15
REMARK    5  A    between atoms: C_26  and  C_29
REMARK                            x       y       z     vdW  Elec       q    Type
REMARK                         _______ _______ _______ _____ _____    ______ ____
ROOT
ATOM      1  C   UNL     1      -0.208   2.750  26.643  0.00  0.00    +0.054 C 
ATOM      2  C   UNL     1      -0.187   2.522  25.849  0.00  0.00    +0.077 A 
ATOM      3  N   UNL     1       0.329   1.971  25.518  0.00  0.00    -0.170 NA
ATOM      4  N   UNL     1       0.158   1.913  24.713  0.00  0.00    -0.234 N 
ATOM      5  C   UNL     1      -0.464   2.429  24.547  0.00  0.00    +0.058 A 
ATOM      6  C   UNL     1      -0.813   2.548  23.808  0.00  0.00    +0.052 C 
ATOM      7  C   UNL     1      -0.677   2.806  25.250  0.00  0.00    +0.010 A 
ENDROOT
BRANCH   4  23
ATOM     23  C   UNL     1       0.541   1.425  24.168  0.00  0.00    +0.082 A 
ATOM     24  C   UNL     1       1.268   1.652  23.853  0.00  0.00    +0.019 A 
ATOM     25  C   UNL     1       1.651   1.164  23.309  0.00  0.00    -0.003 A 
ATOM     26  C   UNL     1       1.308   0.451  23.081  0.00  0.00    -0.023 A 
ATOM     27  C   UNL     1       0.579   0.223  23.396  0.00  0.00    -0.003 A 
ATOM     28  C   UNL     1       0.196   0.712  23.941  0.00  0.00    +0.019 A 
BRANCH  26  29
ATOM     29  C   UNL     1       1.691  -0.037  22.536  0.00  0.00    +0.019 C 
ATOM     30  C   UNL     1       2.074  -0.525  21.993  0.00  0.00    +0.004 C 
ATOM     31  C   UNL     1       0.965  -0.365  22.319  0.00  0.00    +0.004 C 
ATOM     32  C   UNL     1       2.416   0.290  22.754  0.00  0.00    +0.004 C 
ENDBRANCH  26  29
ENDBRANCH   4  23
BRANCH   7   8
ATOM      8  C   UNL     1      -1.276   3.367  25.337  0.00  0.00    +0.048 C 
ATOM      9  C   UNL     1      -2.056   3.215  25.555  0.00  0.00    +0.035 C 
ATOM     10  C   UNL     1      -2.461   3.933  25.573  0.00  0.00    +0.119 C 
ATOM     21  C   UNL     1      -1.930   4.530  25.365  0.00  0.00    -0.009 C 
ATOM     22  C   UNL     1      -1.198   4.180  25.219  0.00  0.00    -0.025 C 
BRANCH  10  11
ATOM     11  N   UNL     1      -3.256   4.038  25.764  0.00  0.00    -0.184 NA
ATOM     12  C   UNL     1      -3.804   3.446  25.593  0.00  0.00    +0.344 C 
ATOM     13  O   UNL     1      -3.557   2.747  25.229  0.00  0.00    -0.249 OA
ATOM     14  N   UNL     1      -4.600   3.552  25.785  0.00  0.00    -0.161 NA
BRANCH  14  15
ATOM     15  C   UNL     1      -5.148   2.959  25.613  0.00  0.00    +0.075 A 
ATOM     16  C   UNL     1      -5.536   2.568  26.226  0.00  0.00    +0.017 A 
ATOM     17  C   UNL     1      -6.085   1.975  26.055  0.00  0.00    +0.001 A 
ATOM     18  C   UNL     1      -6.244   1.775  25.270  0.00  0.00    +0.000 A 
ATOM     19  C   UNL     1      -5.855   2.167  24.657  0.00  0.00    +0.001 A 
ATOM     20  C   UNL     1      -5.307   2.760  24.828  0.00  0.00    +0.017 A 
ENDBRANCH  14  15
ENDBRANCH  10  11
ENDBRANCH   7   8
TORSDOF 5
ENDMDL
MODEL 6
REMARK VINA RESULT:      -9.6      2.465      6.711
REMARK  Name = 
REMARK  5 active torsions:
REMARK  status: ('A' for Active; 'I' for Inactive)
REMARK    1  A    between atoms: N_4  and  C_23
REMARK    2  A    between atoms: C_7  and  C_8
REMARK    3  A    between atoms: C_10  and  N_11
REMARK    4  A    between atoms: N_14  and  C_15
REMARK    5  A    between atoms: C_26  and  C_29
REMARK                            x       y       z     vdW  Elec       q    Type
REMARK                         _______ _______ _______ _____ _____    ______ ____
ROOT
ATOM      1  C   UNL     1       0.788   0.514  23.463  0.00  0.00    +0.054 C 
ATOM      2  C   UNL     1       0.261   0.964  23.913  0.00  0.00    +0.077 A 
ATOM      3  N   UNL     1       0.191   1.785  23.898  0.00  0.00    -0.170 NA
ATOM      4  N   UNL     1      -0.401   1.999  24.432  0.00  0.00    -0.234 N 
ATOM      5  C   UNL     1      -0.696   1.310  24.776  0.00  0.00    +0.058 A 
ATOM      6  C   UNL     1      -1.295   1.269  25.342  0.00  0.00    +0.052 C 
ATOM      7  C   UNL     1      -0.286   0.669  24.455  0.00  0.00    +0.010 A 
ENDROOT
BRANCH   4  23
ATOM     23  C   UNL     1      -0.653   2.769  24.593  0.00  0.00    +0.082 A 
ATOM     24  C   UNL     1      -0.242   3.231  25.139  0.00  0.00    +0.019 A 
ATOM     25  C   UNL     1      -0.495   4.000  25.300  0.00  0.00    -0.003 A 
ATOM     26  C   UNL     1      -1.157   4.305  24.917  0.00  0.00    -0.023 A 
ATOM     27  C   UNL     1      -1.569   3.843  24.371  0.00  0.00    -0.003 A 
ATOM     28  C   UNL     1      -1.316   3.074  24.209  0.00  0.00    +0.019 A 
BRANCH  26  29
ATOM     29  C   UNL     1      -1.410   5.075  25.078  0.00  0.00    +0.019 C 
ATOM     30  C   UNL     1      -1.662   5.843  25.239  0.00  0.00    +0.004 C 
ATOM     31  C   UNL     1      -2.096   4.776  25.427  0.00  0.00    +0.004 C 
ATOM     32  C   UNL     1      -0.724   5.372  24.730  0.00  0.00    +0.004 C 
ENDBRANCH  26  29
ENDBRANCH   4  23
BRANCH   7   8
ATOM      8  C   UNL     1      -0.405  -0.125  24.644  0.00  0.00    +0.048 C 
ATOM      9  C   UNL     1      -1.126  -0.476  24.834  0.00  0.00    +0.035 C 
ATOM     10  C   UNL     1      -0.989  -1.275  24.983  0.00  0.00    +0.119 C 
ATOM     21  C   UNL     1      -0.182  -1.418  24.885  0.00  0.00    -0.009 C 
ATOM     22  C   UNL     1       0.179  -0.708  24.675  0.00  0.00    -0.025 C 
BRANCH  10  11
ATOM     11  N   UNL     1      -1.558  -1.835  25.193  0.00  0.00    -0.184 NA
ATOM     12  C   UNL     1      -2.227  -1.940  24.723  0.00  0.00    +0.344 C 
ATOM     13  O   UNL     1      -2.329  -1.486  24.042  0.00  0.00    -0.249 OA
ATOM     14  N   UNL     1      -2.796  -2.500  24.935  0.00  0.00    -0.161 NA
BRANCH  14  15
ATOM     15  C   UNL     1      -3.466  -2.606  24.464  0.00  0.00    +0.075 A 
ATOM     16  C   UNL     1      -3.600  -3.331  24.097  0.00  0.00    +0.017 A 
ATOM     17  C   UNL     1      -4.271  -3.437  23.626  0.00  0.00    +0.001 A 
ATOM     18  C   UNL     1      -4.805  -2.817  23.524  0.00  0.00    +0.000 A 
ATOM     19  C   UNL     1      -4.669  -2.091  23.893  0.00  0.00    +0.001 A 
ATOM     20  C   UNL     1      -4.000  -1.985  24.363  0.00  0.00    +0.017 A 
ENDBRANCH  14  15
ENDBRANCH  10  11
ENDBRANCH   7   8
TORSDOF 5
ENDMDL
MODEL 7
REMARK VINA RESULT:      -9.5      3.074      4.957
REMARK  Name = 
REMARK  5 active torsions:
REMARK  status: ('A' for Active; 'I' for Inactive)
REMARK    1  A    between atoms: N_4  and  C_23
REMARK    2  A    between atoms: C_7  and  C_8
REMARK    3  A    between atoms: C_10  and  N_11
REMARK    4  A    between atoms: N_14  and  C_15
REMARK    5  A    between atoms: C_26  and  C_29
REMARK                            x       y       z     vdW  Elec       q    Type
REMARK                         _______ _______ _______ _____ _____    ______ ____
ROOT
ATOM      1  C   UNL     1      -1.929  -2.478  24.520  0.00  0.00    +0.054 C 
ATOM      2  C   UNL     1      -1.514  -1.781  24.361  0.00  0.00    +0.077 A 
ATOM      3  N   UNL     1      -0.766  -1.731  24.019  0.00  0.00    -0.170 NA
ATOM      4  N   UNL     1      -0.564  -0.933  23.963  0.00  0.00    -0.234 N 
ATOM      5  C   UNL     1      -1.188  -0.490  24.272  0.00  0.00    +0.058 A 
ATOM      6  C   UNL     1      -1.219   0.333  24.325  0.00  0.00    +0.052 C 
ATOM      7  C   UNL     1      -1.776  -1.015  24.518  0.00  0.00    +0.010 A 
ENDROOT
BRANCH   4  23
ATOM     23  C   UNL     1       0.139  -0.630  23.654  0.00  0.00    +0.082 A 
ATOM     24  C   UNL     1       0.831  -0.657  24.102  0.00  0.00    +0.019 A 
ATOM     25  C   UNL     1       1.533  -0.354  23.792  0.00  0.00    -0.003 A 
ATOM     26  C   UNL     1       1.543  -0.025  23.036  0.00  0.00    -0.023 A 
ATOM     27  C   UNL     1       0.851   0.001  22.588  0.00  0.00    -0.003 A 
ATOM     28  C   UNL     1       0.148  -0.302  22.898  0.00  0.00    +0.019 A 
BRANCH  26  29
ATOM     29  C   UNL     1       2.246   0.277  22.727  0.00  0.00    +0.019 C 
ATOM     30  C   UNL     1       2.948   0.580  22.418  0.00  0.00    +0.004 C 
ATOM     31  C   UNL     1       2.225  -0.288  22.126  0.00  0.00    +0.004 C 
ATOM     32  C   UNL     1       2.267   0.842  23.327  0.00  0.00    +0.004 C 
ENDBRANCH  26  29
ENDBRANCH   4  23
BRANCH   7   8
ATOM      8  C   UNL     1      -2.497  -0.808  24.860  0.00  0.00    +0.048 C 
ATOM      9  C   UNL     1      -3.104  -0.384  24.497  0.00  0.00    +0.035 C 
ATOM     10  C   UNL     1      -3.719  -0.303  25.039  0.00  0.00    +0.119 C 
ATOM     21  C   UNL     1      -3.493  -0.678  25.739  0.00  0.00    -0.009 C 
ATOM     22  C   UNL     1      -2.739  -0.989  25.629  0.00  0.00    -0.025 C 
BRANCH  10  11
ATOM     11  N   UNL     1      -4.436   0.083  24.906  0.00  0.00    -0.184 NA
ATOM     12  C   UNL     1      -4.515   0.883  25.094  0.00  0.00    +0.344 C 
ATOM     13  O   UNL     1      -3.878   1.297  25.414  0.00  0.00    -0.249 OA
ATOM     14  N   UNL     1      -5.232   1.269  24.960  0.00  0.00    -0.161 NA
BRANCH  14  15
ATOM     15  C   UNL     1      -5.311   2.068  25.148  0.00  0.00    +0.075 A 
ATOM     16  C   UNL     1      -5.740   2.294  25.815  0.00  0.00    +0.017 A 
ATOM     17  C   UNL     1      -5.820   3.094  26.003  0.00  0.00    +0.001 A 
ATOM     18  C   UNL     1      -5.469   3.667  25.524  0.00  0.00    +0.000 A 
ATOM     19  C   UNL     1      -5.040   3.440  24.856  0.00  0.00    +0.001 A 
ATOM     20  C   UNL     1      -4.961   2.641  24.669  0.00  0.00    +0.017 A 
ENDBRANCH  14  15
ENDBRANCH  10  11
ENDBRANCH   7   8
TORSDOF 5
ENDMDL
