MODEL 1
REMARK VINA RESULT:     -12.0      0.000      0.000
REMARK  Name = 
REMARK  5 active torsions:
REMARK  status: ('A' for Active; 'I' for Inactive)
REMARK    1  A    between atoms: C_2  and  C_4
REMARK    2  A    between atoms: C_7  and  C_8
REMARK    3  A    between atoms: C_8  and  N_9
REMARK    4  A    between atoms: C_14  and  C_15
REMARK    5  A    between atoms: C_17  and  C_20
REMARK                            x       y       z     vdW  Elec       q    Type
REMARK                         _______ _______ _______ _____ _____    ______ ____
ROOT
ATOM      9  N   UNL     1      -3.912   2.102  25.007  0.00  0.00    -0.257 NA
ATOM     10  C   UNL     1      -4.194   2.812  25.318  0.00  0.00    +0.121 C 
ATOM     11  C   UNL     1      -4.999   2.904  25.473  0.00  0.00    +0.090 A 
ATOM     12  C   UNL     1      -5.522   2.285  25.317  0.00  0.00    +0.077 A 
ATOM     13  C   UNL     1      -5.240   1.575  25.006  0.00  0.00    +0.073 C 
ATOM     14  C   UNL     1      -4.435   1.484  24.851  0.00  0.00    +0.144 C 
ATOM     26  N   UNL     1      -6.280   2.534  25.525  0.00  0.00    -0.227 NA
ATOM     27  C   UNL     1      -6.226   3.306  25.809  0.00  0.00    +0.198 A 
ATOM     28  N   UNL     1      -5.434   3.534  25.777  0.00  0.00    -0.226 NA
ENDROOT
BRANCH  14  15
ATOM     15  C   UNL     1      -4.153   0.774  24.540  0.00  0.00    +0.251 A 
ATOM     16  N   UNL     1      -4.143   0.045  24.926  0.00  0.00    -0.190 NA
ATOM     17  C   UNL     1      -3.816  -0.512  24.412  0.00  0.00    +0.203 A 
ATOM     18  N   UNL     1      -3.624  -0.127  23.708  0.00  0.00    -0.056 NA
ATOM     19  O   UNL     1      -3.833   0.668  23.787  0.00  0.00    -0.336 OA
BRANCH  17  20
ATOM     20  C   UNL     1      -3.701  -1.313  24.574  0.00  0.00    +0.042 A 
ATOM     21  C   UNL     1      -3.306  -1.542  25.261  0.00  0.00    +0.024 A 
ATOM     22  C   UNL     1      -3.192  -2.343  25.422  0.00  0.00    +0.099 A 
ATOM     23  N   UNL     1      -3.472  -2.914  24.897  0.00  0.00    -0.242 NA
ATOM     24  C   UNL     1      -3.866  -2.685  24.210  0.00  0.00    +0.099 A 
ATOM     25  C   UNL     1      -3.981  -1.884  24.048  0.00  0.00    +0.024 A 
ENDBRANCH  17  20
ENDBRANCH  14  15
BRANCH   9   8
ATOM      8  C   UNL     1      -3.107   2.011  24.852  0.00  0.00    +0.100 C 
BRANCH   8   7
ATOM      4  C   UNL     1      -1.586   3.955  25.022  0.00  0.00    +0.080 A 
ATOM      5  C   UNL     1      -1.988   3.807  24.317  0.00  0.00    +0.006 A 
ATOM      6  C   UNL     1      -2.495   3.159  24.261  0.00  0.00    -0.003 A 
ATOM      7  C   UNL     1      -2.600   2.659  24.909  0.00  0.00    -0.006 A 
ATOM     29  C   UNL     1      -2.197   2.808  25.614  0.00  0.00    -0.003 A 
ATOM     30  C   UNL     1      -1.690   3.456  25.670  0.00  0.00    +0.006 A 
BRANCH   4   2
ATOM      1  O   UNL     1      -1.377   5.345  25.284  0.00  0.00    -0.241 OA
ATOM      2  C   UNL     1      -1.078   4.603  25.078  0.00  0.00    +0.388 C 
ATOM      3  O   UNL     1      -0.272   4.511  24.929  0.00  0.00    -0.241 OA
ENDBRANCH   4   2
ENDBRANCH   8   7
ENDBRANCH   9   8
TORSDOF 5
ENDMDL
MODEL 2
REMARK VINA RESULT:     -12.0      1.715      4.539
REMARK  Name = 
REMARK  5 active torsions:
REMARK  status: ('A' for Active; 'I' for Inactive)
REMARK    1  A    between atoms: C_2  and  C_4
REMARK    2  A    between atoms: C_7  and  C_8
REMARK    3  A    between atoms: C_8  and  N_9
REMARK    4  A    between atoms: C_14  and  C_15
REMARK    5  A    between atoms: C_17  and  C_20
REMARK                            x       y       z     vdW  Elec       q    Type
REMARK                         _______ _______ _______ _____ _____    ______ ____
ROOT
ATOM      9  N   UNL     1      -3.964   1.268  24.609  0.00  0.00    -0.257 NA
ATOM     10  C   UNL     1      -4.743   1.023  24.717  0.00  0.00    +0.121 C 
ATOM     11  C   UNL     1      -5.303   1.547  25.022  0.00  0.00    +0.090 A 
ATOM     12  C   UNL     1      -5.082   2.317  25.218  0.00  0.00    +0.077 A 
ATOM     13  C   UNL     1      -4.301   2.563  25.110  0.00  0.00    +0.073 C 
ATOM     14  C   UNL     1      -3.742   2.038  24.806  0.00  0.00    +0.144 C 
ATOM     26  N   UNL     1      -5.748   2.708  25.505  0.00  0.00    -0.227 NA
ATOM     27  C   UNL     1      -6.382   2.181  25.486  0.00  0.00    +0.198 A 
ATOM     28  N   UNL     1      -6.106   1.463  25.187  0.00  0.00    -0.226 NA
ENDROOT
BRANCH  14  15
ATOM     15  C   UNL     1      -2.962   2.284  24.698  0.00  0.00    +0.251 A 
ATOM     16  N   UNL     1      -2.338   2.161  25.222  0.00  0.00    -0.190 NA
ATOM     17  C   UNL     1      -1.659   2.497  24.895  0.00  0.00    +0.203 A 
ATOM     18  N   UNL     1      -1.864   2.828  24.168  0.00  0.00    -0.056 NA
ATOM     19  O   UNL     1      -2.670   2.697  24.046  0.00  0.00    -0.336 OA
BRANCH  17  20
ATOM     20  C   UNL     1      -0.907   2.502  25.235  0.00  0.00    +0.042 A 
ATOM     21  C   UNL     1      -0.256   2.243  24.801  0.00  0.00    +0.024 A 
ATOM     22  C   UNL     1       0.496   2.248  25.142  0.00  0.00    +0.099 A 
ATOM     23  N   UNL     1       0.595   2.511  25.917  0.00  0.00    -0.242 NA
ATOM     24  C   UNL     1      -0.057   2.770  26.352  0.00  0.00    +0.099 A 
ATOM     25  C   UNL     1      -0.808   2.765  26.011  0.00  0.00    +0.024 A 
ENDBRANCH  17  20
ENDBRANCH  14  15
BRANCH   9   8
ATOM      8  C   UNL     1      -3.405   0.744  24.305  0.00  0.00    +0.100 C 
BRANCH   8   7
ATOM      4  C   UNL     1      -3.802  -1.696  24.427  0.00  0.00    +0.080 A 
ATOM      5  C   UNL     1      -3.483  -1.298  25.074  0.00  0.00    +0.006 A 
ATOM      6  C   UNL     1      -3.351  -0.484  25.034  0.00  0.00    -0.003 A 
ATOM      7  C   UNL     1      -3.537  -0.070  24.345  0.00  0.00    -0.006 A 
ATOM     29  C   UNL     1      -3.856  -0.469  23.697  0.00  0.00    -0.003 A 
ATOM     30  C   UNL     1      -3.989  -1.282  23.738  0.00  0.00    +0.006 A 
BRANCH   4   2
ATOM      1  O   UNL     1      -3.612  -2.950  25.087  0.00  0.00    -0.241 OA
ATOM      2  C   UNL     1      -3.934  -2.510  24.468  0.00  0.00    +0.388 C 
ATOM      3  O   UNL     1      -4.389  -2.883  23.890  0.00  0.00    -0.241 OA
ENDBRANCH   4   2
ENDBRANCH   8   7
ENDBRANCH   9   8
TORSDOF 5
ENDMDL
MODEL 3
REMARK VINA RESULT:     -11.5      1.913      5.281
REMARK  Name = 
REMARK  5 active torsions:
REMARK  status: ('A' for Active; 'I' for Inactive)
REMARK    1  A    between atoms: C_2  and  C_4
REMARK    2  A    between atoms: C_7  and  C_8
REMARK    3  A    between atoms: C_8  and  N_9
REMARK    4  A    between atoms: C_14  and  C_15
REMARK    5  A    between atoms: C_17  and  C_20
REMARK                            x       y       z     vdW  Elec       q    Type
REMARK                         _______ _______ _______ _____ _____    ______ ____
ROOT
ATOM      9  N   UNL     1      -2.479   0.672  24.311  0.00  0.00    -0.257 NA
ATOM     10  C   UNL     1      -1.819   0.178  24.336  0.00  0.00    +0.121 C 
ATOM     11  C   UNL     1      -1.067   0.485  24.193  0.00  0.00    +0.090 A 
ATOM     12  C   UNL     1      -0.974   1.287  24.027  0.00  0.00    +0.077 A 
ATOM     13  C   UNL     1      -1.634   1.783  24.002  0.00  0.00    +0.073 C 
ATOM     14  C   UNL     1      -2.386   1.475  24.145  0.00  0.00    +0.144 C 
ATOM     26  N   UNL     1      -0.171   1.433  23.910  0.00  0.00    -0.227 NA
ATOM     27  C   UNL     1       0.233   0.720  24.005  0.00  0.00    +0.198 A 
ATOM     28  N   UNL     1      -0.321   0.135  24.180  0.00  0.00    -0.226 NA
ENDROOT
BRANCH  14  15
ATOM     15  C   UNL     1      -3.045   1.970  24.120  0.00  0.00    +0.251 A 
ATOM     16  N   UNL     1      -3.465   2.253  24.771  0.00  0.00    -0.190 NA
ATOM     17  C   UNL     1      -4.079   2.728  24.493  0.00  0.00    +0.203 A 
ATOM     18  N   UNL     1      -4.040   2.739  23.670  0.00  0.00    -0.056 NA
ATOM     19  O   UNL     1      -3.400   2.270  23.438  0.00  0.00    -0.336 OA
BRANCH  17  20
ATOM     20  C   UNL     1      -4.636   3.122  24.958  0.00  0.00    +0.042 A 
ATOM     21  C   UNL     1      -4.507   3.906  25.179  0.00  0.00    +0.024 A 
ATOM     22  C   UNL     1      -5.064   4.300  25.643  0.00  0.00    +0.099 A 
ATOM     23  N   UNL     1      -5.748   3.910  25.887  0.00  0.00    -0.242 NA
ATOM     24  C   UNL     1      -5.877   3.126  25.666  0.00  0.00    +0.099 A 
ATOM     25  C   UNL     1      -5.321   2.731  25.201  0.00  0.00    +0.024 A 
ENDBRANCH  17  20
ENDBRANCH  14  15
BRANCH   9   8
ATOM      8  C   UNL     1      -3.230   0.365  24.454  0.00  0.00    +0.100 C 
BRANCH   8   7
ATOM      4  C   UNL     1      -3.552  -2.082  24.640  0.00  0.00    +0.080 A 
ATOM      5  C   UNL     1      -3.342  -1.642  25.305  0.00  0.00    +0.006 A 
ATOM      6  C   UNL     1      -3.235  -0.826  25.243  0.00  0.00    -0.003 A 
ATOM      7  C   UNL     1      -3.337  -0.451  24.516  0.00  0.00    -0.006 A 
ATOM     29  C   UNL     1      -3.548  -0.892  23.850  0.00  0.00    -0.003 A 
ATOM     30  C   UNL     1      -3.655  -1.707  23.912  0.00  0.00    +0.006 A 
BRANCH   4   2
ATOM      1  O   UNL     1      -3.413  -3.296  25.383  0.00  0.00    -0.241 OA
ATOM      2  C   UNL     1      -3.659  -2.898  24.703  0.00  0.00    +0.388 C 
ATOM      3  O   UNL     1      -4.011  -3.316  24.085  0.00  0.00    -0.241 OA
ENDBRANCH   4   2
ENDBRANCH   8   7
ENDBRANCH   9   8
TORSDOF 5
ENDMDL
MODEL 4
REMARK VINA RESULT:     -11.5      2.724      5.901
REMARK  Name = 
REMARK  5 active torsions:
REMARK  status: ('A' for Active; 'I' for Inactive)
REMARK    1  A    between atoms: C_2  and  C_4
REMARK    2  A    between atoms: C_7  and  C_8
REMARK    3  A    between atoms: C_8  and  N_9
REMARK    4  A    between atoms: C_14  and  C_15
REMARK    5  A    between atoms: C_17  and  C_20
REMARK                            x       y       z     vdW  Elec       q    Type
REMARK                         _______ _______ _______ _____ _____    ______ ____
ROOT
ATOM      9  N   UNL     1      -0.775   0.526  24.642  0.00  0.00    -0.257 NA
ATOM     10  C   UNL     1      -0.565  -0.125  24.183  0.00  0.00    +0.121 C 
ATOM     11  C   UNL     1       0.100  -0.090  23.696  0.00  0.00    +0.090 A 
ATOM     12  C   UNL     1       0.555   0.598  23.669  0.00  0.00    +0.077 A 
ATOM     13  C   UNL     1       0.345   1.250  24.130  0.00  0.00    +0.073 C 
ATOM     14  C   UNL     1      -0.320   1.214  24.616  0.00  0.00    +0.144 C 
ATOM     26  N   UNL     1       1.176   0.472  23.142  0.00  0.00    -0.227 NA
ATOM     27  C   UNL     1       1.105  -0.293  22.842  0.00  0.00    +0.198 A 
ATOM     28  N   UNL     1       0.440  -0.640  23.184  0.00  0.00    -0.226 NA
ENDROOT
BRANCH  14  15
ATOM     15  C   UNL     1      -0.529   1.866  25.076  0.00  0.00    +0.251 A 
ATOM     16  N   UNL     1      -0.928   2.538  24.813  0.00  0.00    -0.190 NA
ATOM     17  C   UNL     1      -1.022   3.048  25.454  0.00  0.00    +0.203 A 
ATOM     18  N   UNL     1      -0.681   2.691  26.114  0.00  0.00    -0.056 NA
ATOM     19  O   UNL     1      -0.376   1.960  25.881  0.00  0.00    -0.336 OA
BRANCH  17  20
ATOM     20  C   UNL     1      -1.392   3.785  25.438  0.00  0.00    +0.042 A 
ATOM     21  C   UNL     1      -1.000   4.436  25.117  0.00  0.00    +0.024 A 
ATOM     22  C   UNL     1      -1.371   5.174  25.101  0.00  0.00    +0.099 A 
ATOM     23  N   UNL     1      -2.133   5.259  25.405  0.00  0.00    -0.242 NA
ATOM     24  C   UNL     1      -2.524   4.608  25.726  0.00  0.00    +0.099 A 
ATOM     25  C   UNL     1      -2.154   3.870  25.743  0.00  0.00    +0.024 A 
ENDBRANCH  17  20
ENDBRANCH  14  15
BRANCH   9   8
ATOM      8  C   UNL     1      -1.440   0.491  25.129  0.00  0.00    +0.100 C 
BRANCH   8   7
ATOM      4  C   UNL     1      -3.057  -1.366  24.880  0.00  0.00    +0.080 A 
ATOM      5  C   UNL     1      -3.155  -0.673  24.444  0.00  0.00    +0.006 A 
ATOM      6  C   UNL     1      -2.616  -0.054  24.527  0.00  0.00    -0.003 A 
ATOM      7  C   UNL     1      -1.979  -0.128  25.046  0.00  0.00    -0.006 A 
ATOM     29  C   UNL     1      -1.881  -0.822  25.482  0.00  0.00    -0.003 A 
ATOM     30  C   UNL     1      -2.420  -1.441  25.399  0.00  0.00    +0.006 A 
BRANCH   4   2
ATOM      1  O   UNL     1      -4.112  -2.000  24.152  0.00  0.00    -0.241 OA
ATOM      2  C   UNL     1      -3.596  -1.985  24.797  0.00  0.00    +0.388 C 
ATOM      3  O   UNL     1      -3.620  -2.590  25.358  0.00  0.00    -0.241 OA
ENDBRANCH   4   2
ENDBRANCH   8   7
ENDBRANCH   9   8
TORSDOF 5
ENDMDL
MODEL 5
REMARK VINA RESULT:     -11.1      2.535      3.784
REMARK  Name = 
REMARK  5 active torsions:
REMARK  status: ('A' for Active; 'I' for Inactive)
REMARK    1  A    between atoms: C_2  and  C_4
REMARK    2  A    between atoms: C_7  and  C_8
REMARK    3  A    between atoms: C_8  and  N_9
REMARK    4  A    between atoms: C_14  and  C_15
REMARK    5  A    between atoms: C_17  and  C_20
REMARK                            x       y       z     vdW  Elec       q    Type
REMARK                         _______ _______ _______ _____ _____    ______ ____
ROOT
ATOM      9  N   UNL     1      -0.606   0.817  24.561  0.00  0.00    -0.257 NA
ATOM     10  C   UNL     1       0.021   1.267  24.272  0.00  0.00    +0.121 C 
ATOM     11  C   UNL     1       0.603   0.914  23.807  0.00  0.00    +0.090 A 
ATOM     12  C   UNL     1       0.558   0.109  23.631  0.00  0.00    +0.077 A 
ATOM     13  C   UNL     1      -0.070  -0.342  23.920  0.00  0.00    +0.073 C 
ATOM     14  C   UNL     1      -0.652   0.012  24.385  0.00  0.00    +0.144 C 
ATOM     26  N   UNL     1       1.207  -0.086  23.162  0.00  0.00    -0.227 NA
ATOM     27  C   UNL     1       1.654   0.597  23.048  0.00  0.00    +0.198 A 
ATOM     28  N   UNL     1       1.281   1.215  23.447  0.00  0.00    -0.226 NA
ENDROOT
BRANCH  14  15
ATOM     15  C   UNL     1      -1.279  -0.439  24.674  0.00  0.00    +0.251 A 
ATOM     16  N   UNL     1      -1.887  -0.769  24.226  0.00  0.00    -0.190 NA
ATOM     17  C   UNL     1      -2.392  -1.174  24.738  0.00  0.00    +0.203 A 
ATOM     18  N   UNL     1      -2.096  -1.094  25.503  0.00  0.00    -0.056 NA
ATOM     19  O   UNL     1      -1.407  -0.639  25.465  0.00  0.00    -0.336 OA
BRANCH  17  20
ATOM     20  C   UNL     1      -3.073  -1.586  24.522  0.00  0.00    +0.042 A 
ATOM     21  C   UNL     1      -3.094  -2.409  24.581  0.00  0.00    +0.024 A 
ATOM     22  C   UNL     1      -3.776  -2.820  24.364  0.00  0.00    +0.099 A 
ATOM     23  N   UNL     1      -4.435  -2.409  24.089  0.00  0.00    -0.242 NA
ATOM     24  C   UNL     1      -4.415  -1.587  24.030  0.00  0.00    +0.099 A 
ATOM     25  C   UNL     1      -3.733  -1.175  24.246  0.00  0.00    +0.024 A 
ENDBRANCH  17  20
ENDBRANCH  14  15
BRANCH   9   8
ATOM      8  C   UNL     1      -1.188   1.171  25.027  0.00  0.00    +0.100 C 
BRANCH   8   7
ATOM      4  C   UNL     1      -1.313   3.637  25.188  0.00  0.00    +0.080 A 
ATOM      5  C   UNL     1      -0.899   3.207  25.757  0.00  0.00    +0.006 A 
ATOM      6  C   UNL     1      -0.858   2.385  25.703  0.00  0.00    -0.003 A 
ATOM      7  C   UNL     1      -1.230   1.993  25.080  0.00  0.00    -0.006 A 
ATOM     29  C   UNL     1      -1.644   2.423  24.511  0.00  0.00    -0.003 A 
ATOM     30  C   UNL     1      -1.686   3.245  24.564  0.00  0.00    +0.006 A 
BRANCH   4   2
ATOM      1  O   UNL     1      -2.021   4.818  25.572  0.00  0.00    -0.241 OA
ATOM      2  C   UNL     1      -1.355   4.459  25.242  0.00  0.00    +0.388 C 
ATOM      3  O   UNL     1      -0.732   4.923  24.966  0.00  0.00    -0.241 OA
ENDBRANCH   4   2
ENDBRANCH   8   7
ENDBRANCH   9   8
TORSDOF 5
ENDMDL
