MODEL 1
REMARK VINA RESULT:      -8.1      0.000      0.000
REMARK  Name = 
REMARK  6 active torsions:
REMARK  status: ('A' for Active; 'I' for Inactive)
REMARK    1  A    between atoms: N_2  and  C_4
REMARK    2  A    between atoms: C_7  and  C_10
REMARK    3  A    between atoms: N_15  and  C_16
REMARK    4  A    between atoms: C_20  and  N_24
REMARK    5  A    between atoms: C_25  and  C_27
REMARK    6  A    between atoms: C_30  and  C_33
REMARK                            x       y       z     vdW  Elec       q    Type
REMARK                         _______ _______ _______ _____ _____    ______ ____
ROOT
ATOM     16  C   UNL     1      -0.064   1.206  23.883  0.00  0.00    +0.154 C 
ATOM     17  C   UNL     1      -0.491   1.244  23.179  0.00  0.00    +0.166 C 
ATOM     18  O   UNL     1      -1.294   1.256  23.369  0.00  0.00    -0.350 OA
ATOM     19  C   UNL     1      -1.363   1.225  24.190  0.00  0.00    +0.166 C 
ATOM     20  C   UNL     1      -1.901   1.213  24.815  0.00  0.00    +0.155 C 
ATOM     21  C   UNL     1      -1.473   1.175  25.520  0.00  0.00    +0.166 C 
ATOM     22  O   UNL     1      -0.671   1.164  25.330  0.00  0.00    -0.350 OA
ATOM     23  C   UNL     1      -0.602   1.194  24.508  0.00  0.00    +0.166 C 
ENDROOT
BRANCH  16  15
ATOM     10  C   UNL     1       2.466   0.207  23.007  0.00  0.00    +0.086 A 
ATOM     11  C   UNL     1       2.087  -0.249  22.433  0.00  0.00    +0.040 A 
ATOM     12  C   UNL     1       1.265  -0.227  22.365  0.00  0.00    +0.103 A 
ATOM     13  N   UNL     1       0.822   0.251  22.871  0.00  0.00    -0.211 NA
ATOM     14  C   UNL     1       1.202   0.707  23.445  0.00  0.00    +0.237 A 
ATOM     15  N   UNL     1       0.758   1.184  23.951  0.00  0.00    -0.200 NA
ATOM     37  N   UNL     1       2.023   0.684  23.513  0.00  0.00    -0.212 NA
BRANCH  10   7
ATOM      4  C   UNL     1       4.932   0.141  23.209  0.00  0.00    +0.048 A 
ATOM      5  C   UNL     1       4.478  -0.492  23.482  0.00  0.00    +0.015 A 
ATOM      6  C   UNL     1       3.657  -0.470  23.415  0.00  0.00    +0.003 A 
ATOM      7  C   UNL     1       3.288   0.184  23.074  0.00  0.00    +0.018 A 
ATOM      8  C   UNL     1       3.741   0.817  22.800  0.00  0.00    +0.003 A 
ATOM      9  C   UNL     1       4.563   0.795  22.867  0.00  0.00    +0.015 A 
BRANCH   4   2
ATOM      1  C   UNL     1       6.124   0.478  23.919  0.00  0.00    +0.112 C 
ATOM      2  N   UNL     1       5.754   0.118  23.276  0.00  0.00    -0.304 N 
ATOM      3  C   UNL     1       6.205  -0.263  22.700  0.00  0.00    +0.112 C 
ENDBRANCH   4   2
ENDBRANCH  10   7
ENDBRANCH  16  15
BRANCH  20  24
ATOM     24  N   UNL     1      -2.723   1.235  24.748  0.00  0.00    -0.198 NA
ATOM     25  C   UNL     1      -3.157   1.795  25.170  0.00  0.00    +0.265 C 
ATOM     26  O   UNL     1      -2.769   2.333  25.661  0.00  0.00    -0.268 OA
BRANCH  25  27
ATOM     27  C   UNL     1      -3.979   1.817  25.103  0.00  0.00    +0.055 A 
ATOM     28  C   UNL     1      -4.407   1.114  25.041  0.00  0.00    +0.005 A 
ATOM     29  C   UNL     1      -5.229   1.135  24.973  0.00  0.00    +0.004 A 
ATOM     30  C   UNL     1      -5.623   1.861  24.967  0.00  0.00    +0.071 A 
ATOM     31  C   UNL     1      -5.195   2.563  25.029  0.00  0.00    +0.004 A 
ATOM     32  C   UNL     1      -4.373   2.542  25.097  0.00  0.00    +0.005 A 
BRANCH  30  33
ATOM     33  C   UNL     1      -6.445   1.883  24.900  0.00  0.00    +0.419 C 
ATOM     34  F   UNL     1      -7.266   1.905  24.831  0.00  0.00    -0.166 F 
ATOM     35  F   UNL     1      -6.513   1.860  25.721  0.00  0.00    -0.166 F 
ATOM     36  F   UNL     1      -6.377   1.906  24.077  0.00  0.00    -0.166 F 
ENDBRANCH  30  33
ENDBRANCH  25  27
ENDBRANCH  20  24
TORSDOF 6
ENDMDL
MODEL 2
REMARK VINA RESULT:      -8.1      3.843      8.315
REMARK  Name = 
REMARK  6 active torsions:
REMARK  status: ('A' for Active; 'I' for Inactive)
REMARK    1  A    between atoms: N_2  and  C_4
REMARK    2  A    between atoms: C_7  and  C_10
REMARK    3  A    between atoms: N_15  and  C_16
REMARK    4  A    between atoms: C_20  and  N_24
REMARK    5  A    between atoms: C_25  and  C_27
REMARK    6  A    between atoms: C_30  and  C_33
REMARK                            x       y       z     vdW  Elec       q    Type
REMARK                         _______ _______ _______ _____ _____    ______ ____
ROOT
ATOM     16  C   UNL     1      -0.371   1.540  24.049  0.00  0.00    +0.154 C 
ATOM     17  C   UNL     1       0.101   2.121  24.396  0.00  0.00    +0.166 C 
ATOM     18  O   UNL     1       0.890   1.913  24.275  0.00  0.00    -0.350 OA
ATOM     19  C   UNL     1       0.906   1.205  23.854  0.00  0.00    +0.166 C 
ATOM     20  C   UNL     1       1.403   0.638  23.518  0.00  0.00    +0.155 C 
ATOM     21  C   UNL     1       0.931   0.057  23.171  0.00  0.00    +0.166 C 
ATOM     22  O   UNL     1       0.142   0.265  23.292  0.00  0.00    -0.350 OA
ATOM     23  C   UNL     1       0.126   0.974  23.714  0.00  0.00    +0.166 C 
ENDROOT
BRANCH  16  15
ATOM     10  C   UNL     1      -2.873   2.369  25.156  0.00  0.00    +0.086 A 
ATOM     11  C   UNL     1      -2.474   2.808  25.729  0.00  0.00    +0.040 A 
ATOM     12  C   UNL     1      -1.649   2.821  25.738  0.00  0.00    +0.103 A 
ATOM     13  N   UNL     1      -1.222   2.394  25.175  0.00  0.00    -0.211 NA
ATOM     14  C   UNL     1      -1.622   1.954  24.602  0.00  0.00    +0.237 A 
ATOM     15  N   UNL     1      -1.196   1.527  24.039  0.00  0.00    -0.200 NA
ATOM     37  N   UNL     1      -2.447   1.942  24.593  0.00  0.00    -0.212 NA
BRANCH  10   7
ATOM      4  C   UNL     1      -5.348   2.331  25.127  0.00  0.00    +0.048 A 
ATOM      5  C   UNL     1      -4.946   3.047  25.219  0.00  0.00    +0.015 A 
ATOM      6  C   UNL     1      -4.122   3.059  25.228  0.00  0.00    +0.003 A 
ATOM      7  C   UNL     1      -3.697   2.356  25.146  0.00  0.00    +0.018 A 
ATOM      8  C   UNL     1      -4.098   1.641  25.054  0.00  0.00    +0.003 A 
ATOM      9  C   UNL     1      -4.923   1.629  25.045  0.00  0.00    +0.015 A 
BRANCH   4   2
ATOM      1  C   UNL     1      -6.598   2.818  25.617  0.00  0.00    +0.112 C 
ATOM      2  N   UNL     1      -6.172   2.319  25.117  0.00  0.00    -0.304 N 
ATOM      3  C   UNL     1      -6.572   1.808  24.608  0.00  0.00    +0.112 C 
ENDBRANCH   4   2
ENDBRANCH  10   7
ENDBRANCH  16  15
BRANCH  20  24
ATOM     24  N   UNL     1       2.228   0.651  23.528  0.00  0.00    -0.198 NA
ATOM     25  C   UNL     1       2.654   0.067  23.131  0.00  0.00    +0.265 C 
ATOM     26  O   UNL     1       2.256  -0.531  22.724  0.00  0.00    -0.268 OA
BRANCH  25  27
ATOM     27  C   UNL     1       3.479   0.079  23.141  0.00  0.00    +0.055 A 
ATOM     28  C   UNL     1       3.886   0.720  22.818  0.00  0.00    +0.005 A 
ATOM     29  C   UNL     1       4.711   0.733  22.827  0.00  0.00    +0.004 A 
ATOM     30  C   UNL     1       5.129   0.104  23.161  0.00  0.00    +0.071 A 
ATOM     31  C   UNL     1       4.722  -0.536  23.484  0.00  0.00    +0.004 A 
ATOM     32  C   UNL     1       3.897  -0.549  23.474  0.00  0.00    +0.005 A 
BRANCH  30  33
ATOM     33  C   UNL     1       5.954   0.116  23.171  0.00  0.00    +0.419 C 
ATOM     34  F   UNL     1       6.778   0.129  23.180  0.00  0.00    -0.166 F 
ATOM     35  F   UNL     1       5.940   0.433  23.931  0.00  0.00    -0.166 F 
ATOM     36  F   UNL     1       5.968  -0.201  22.409  0.00  0.00    -0.166 F 
ENDBRANCH  30  33
ENDBRANCH  25  27
ENDBRANCH  20  24
TORSDOF 6
ENDMDL
MODEL 3
REMARK VINA RESULT:      -6.1     16.439     18.398
REMARK  Name = 
REMARK  6 active torsions:
REMARK  status: ('A' for Active; 'I' for Inactive)
REMARK    1  A    between atoms: N_2  and  C_4
REMARK    2  A    between atoms: C_7  and  C_10
REMARK    3  A    between atoms: N_15  and  C_16
REMARK    4  A    between atoms: C_20  and  N_24
REMARK    5  A    between atoms: C_25  and  C_27
REMARK    6  A    between atoms: C_30  and  C_33
REMARK                            x       y       z     vdW  Elec       q    Type
REMARK                         _______ _______ _______ _____ _____    ______ ____
ROOT
ATOM     16  C   UNL     1      -5.484 -10.227  11.605  0.00  0.00    +0.154 C 
ATOM     17  C   UNL     1      -4.775  -9.992  11.256  0.00  0.00    +0.166 C 
ATOM     18  O   UNL     1      -4.179 -10.058  11.822  0.00  0.00    -0.350 OA
ATOM     19  C   UNL     1      -4.519 -10.333  12.521  0.00  0.00    +0.166 C 
ATOM     20  C   UNL     1      -4.362 -10.545  13.303  0.00  0.00    +0.155 C 
ATOM     21  C   UNL     1      -5.072 -10.779  13.652  0.00  0.00    +0.166 C 
ATOM     22  O   UNL     1      -5.668 -10.713  13.086  0.00  0.00    -0.350 OA
ATOM     23  C   UNL     1      -5.326 -10.438  12.386  0.00  0.00    +0.166 C 
ENDROOT
BRANCH  16  15
ATOM     10  C   UNL     1      -7.385  -9.079   9.805  0.00  0.00    +0.086 A 
ATOM     11  C   UNL     1      -6.860  -8.465   9.642  0.00  0.00    +0.040 A 
ATOM     12  C   UNL     1      -6.121  -8.445  10.010  0.00  0.00    +0.103 A 
ATOM     13  N   UNL     1      -5.909  -9.039  10.542  0.00  0.00    -0.211 NA
ATOM     14  C   UNL     1      -6.435  -9.653  10.705  0.00  0.00    +0.237 A 
ATOM     15  N   UNL     1      -6.223 -10.247  11.237  0.00  0.00    -0.200 NA
ATOM     37  N   UNL     1      -7.173  -9.673  10.337  0.00  0.00    -0.212 NA
BRANCH  10   7
ATOM      4  C   UNL     1      -9.599  -9.140   8.700  0.00  0.00    +0.048 A 
ATOM      5  C   UNL     1      -9.413  -8.526   9.219  0.00  0.00    +0.015 A 
ATOM      6  C   UNL     1      -8.676  -8.506   9.587  0.00  0.00    +0.003 A 
ATOM      7  C   UNL     1      -8.123  -9.100   9.437  0.00  0.00    +0.018 A 
ATOM      8  C   UNL     1      -8.308  -9.713   8.918  0.00  0.00    +0.003 A 
ATOM      9  C   UNL     1      -9.046  -9.734   8.550  0.00  0.00    +0.015 A 
BRANCH   4   2
ATOM      1  C   UNL     1     -10.713  -8.456   8.124  0.00  0.00    +0.112 C 
ATOM      2  N   UNL     1     -10.337  -9.160   8.332  0.00  0.00    -0.304 N 
ATOM      3  C   UNL     1     -10.699  -9.884   8.171  0.00  0.00    +0.112 C 
ENDBRANCH   4   2
ENDBRANCH  10   7
ENDBRANCH  16  15
BRANCH  20  24
ATOM     24  N   UNL     1      -3.624 -10.524  13.671  0.00  0.00    -0.198 NA
ATOM     25  C   UNL     1      -3.574 -10.482  14.493  0.00  0.00    +0.265 C 
ATOM     26  O   UNL     1      -4.262 -10.460  14.948  0.00  0.00    -0.268 OA
BRANCH  25  27
ATOM     27  C   UNL     1      -2.836 -10.462  14.862  0.00  0.00    +0.055 A 
ATOM     28  C   UNL     1      -2.175 -10.197  14.446  0.00  0.00    +0.005 A 
ATOM     29  C   UNL     1      -1.436 -10.176  14.813  0.00  0.00    +0.004 A 
ATOM     30  C   UNL     1      -1.360 -10.421  15.598  0.00  0.00    +0.071 A 
ATOM     31  C   UNL     1      -2.021 -10.686  16.013  0.00  0.00    +0.004 A 
ATOM     32  C   UNL     1      -2.760 -10.707  15.646  0.00  0.00    +0.005 A 
BRANCH  30  33
ATOM     33  C   UNL     1      -0.622 -10.401  15.967  0.00  0.00    +0.419 C 
ATOM     34  F   UNL     1       0.115 -10.381  16.335  0.00  0.00    -0.166 F 
ATOM     35  F   UNL     1      -0.255 -10.366  15.229  0.00  0.00    -0.166 F 
ATOM     36  F   UNL     1      -0.989 -10.436  16.705  0.00  0.00    -0.166 F 
ENDBRANCH  30  33
ENDBRANCH  25  27
ENDBRANCH  20  24
TORSDOF 6
ENDMDL
