MODEL 1
REMARK VINA RESULT:      -9.3      0.000      0.000
REMARK  Name = 
REMARK  9 active torsions:
REMARK  status: ('A' for Active; 'I' for Inactive)
REMARK    1  A    between atoms: C_2  and  C_4
REMARK    2  A    between atoms: C_6  and  C_7
REMARK    3  A    between atoms: C_7  and  C_8
REMARK    4  A    between atoms: C_11  and  C_13
REMARK    5  A    between atoms: C_22  and  C_23
REMARK    6  A    between atoms: C_23  and  N_24
REMARK    7  A    between atoms: N_24  and  C_25
REMARK    8  A    between atoms: C_25  and  C_26
REMARK    9  A    between atoms: C_29  and  C_32
REMARK                            x       y       z     vdW  Elec       q    Type
REMARK                         _______ _______ _______ _____ _____    ______ ____
ROOT
ATOM      4  C   UNL     1      -0.560   0.898  24.198  0.00  0.00    +0.006 C 
ATOM      5  C   UNL     1      -1.222   0.640  24.617  0.00  0.00    +0.005 C 
ATOM      6  C   UNL     1      -1.366  -0.166  24.705  0.00  0.00    +0.027 C 
ATOM     19  C   UNL     1      -0.849  -0.717  24.374  0.00  0.00    -0.048 C 
ATOM     20  C   UNL     1      -0.994  -1.524  24.462  0.00  0.00    +0.026 C 
ATOM     21  C   UNL     1      -0.186  -0.460  23.954  0.00  0.00    -0.033 C 
ATOM     22  C   UNL     1      -0.042   0.347  23.866  0.00  0.00    +0.039 C 
ENDROOT
BRANCH   4   2
ATOM      1  C   UNL     1       0.028   2.109  24.677  0.00  0.00    +0.000 C 
ATOM      2  C   UNL     1      -0.415   1.705  24.109  0.00  0.00    +0.000 C 
ATOM      3  C   UNL     1      -0.713   2.108  23.455  0.00  0.00    +0.000 C 
ENDBRANCH   4   2
BRANCH   6   7
ATOM      7  C   UNL     1      -2.029  -0.424  25.125  0.00  0.00    +0.091 C 
BRANCH   7   8
ATOM      8  C   UNL     1      -2.782  -0.168  24.904  0.00  0.00    +0.227 A 
ATOM      9  N   UNL     1      -3.297  -0.560  24.393  0.00  0.00    -0.111 NA
ATOM     10  N   UNL     1      -3.986  -0.109  24.329  0.00  0.00    -0.107 NA
ATOM     11  C   UNL     1      -3.896   0.562  24.801  0.00  0.00    +0.251 A 
ATOM     12  O   UNL     1      -3.152   0.526  25.157  0.00  0.00    -0.419 OA
BRANCH  11  13
ATOM     13  C   UNL     1      -4.452   1.163  24.901  0.00  0.00    +0.074 A 
ATOM     14  C   UNL     1      -5.104   1.044  25.392  0.00  0.00    +0.104 A 
ATOM     15  N   UNL     1      -5.660   1.645  25.492  0.00  0.00    -0.242 NA
ATOM     16  C   UNL     1      -5.564   2.364  25.101  0.00  0.00    +0.099 A 
ATOM     17  C   UNL     1      -4.912   2.483  24.609  0.00  0.00    +0.021 A 
ATOM     18  C   UNL     1      -4.356   1.882  24.510  0.00  0.00    +0.008 A 
ENDBRANCH  11  13
ENDBRANCH   7   8
ENDBRANCH   6   7
BRANCH  22  23
ATOM     23  C   UNL     1       0.620   0.604  23.447  0.00  0.00    +0.093 C 
BRANCH  23  24
ATOM     24  N   UNL     1       1.261   0.097  23.334  0.00  0.00    -0.213 NA
BRANCH  24  25
ATOM     25  C   UNL     1       1.781   0.223  22.708  0.00  0.00    +0.115 C 
BRANCH  25  26
ATOM     26  C   UNL     1       2.597   0.205  22.838  0.00  0.00    -0.005 A 
ATOM     27  C   UNL     1       3.046   0.890  22.735  0.00  0.00    -0.002 A 
ATOM     28  C   UNL     1       3.860   0.872  22.865  0.00  0.00    +0.010 A 
ATOM     29  C   UNL     1       4.226   0.169  23.099  0.00  0.00    +0.068 A 
ATOM     30  C   UNL     1       3.776  -0.514  23.201  0.00  0.00    +0.010 A 
ATOM     31  C   UNL     1       2.962  -0.497  23.071  0.00  0.00    -0.002 A 
BRANCH  29  32
ATOM     32  C   UNL     1       5.039   0.152  23.229  0.00  0.00    +0.100 C 
ATOM     33  N   UNL     1       5.855   0.134  23.359  0.00  0.00    -0.191 NA
ENDBRANCH  29  32
ENDBRANCH  25  26
ENDBRANCH  24  25
ENDBRANCH  23  24
ENDBRANCH  22  23
TORSDOF 9
ENDMDL
MODEL 2
REMARK VINA RESULT:      -9.1      1.175      1.930
REMARK  Name = 
REMARK  9 active torsions:
REMARK  status: ('A' for Active; 'I' for Inactive)
REMARK    1  A    between atoms: C_2  and  C_4
REMARK    2  A    between atoms: C_6  and  C_7
REMARK    3  A    between atoms: C_7  and  C_8
REMARK    4  A    between atoms: C_11  and  C_13
REMARK    5  A    between atoms: C_22  and  C_23
REMARK    6  A    between atoms: C_23  and  N_24
REMARK    7  A    between atoms: N_24  and  C_25
REMARK    8  A    between atoms: C_25  and  C_26
REMARK    9  A    between atoms: C_29  and  C_32
REMARK                            x       y       z     vdW  Elec       q    Type
REMARK                         _______ _______ _______ _____ _____    ______ ____
ROOT
ATOM      4  C   UNL     1      -0.665   0.757  24.379  0.00  0.00    +0.006 C 
ATOM      5  C   UNL     1      -1.155   1.287  24.779  0.00  0.00    +0.005 C 
ATOM      6  C   UNL     1      -0.950   2.084  24.823  0.00  0.00    +0.027 C 
ATOM     19  C   UNL     1      -0.257   2.353  24.466  0.00  0.00    -0.048 C 
ATOM     20  C   UNL     1      -0.052   3.151  24.510  0.00  0.00    +0.026 C 
ATOM     21  C   UNL     1       0.233   1.822  24.066  0.00  0.00    -0.033 C 
ATOM     22  C   UNL     1       0.029   1.025  24.022  0.00  0.00    +0.039 C 
ENDROOT
BRANCH   4   2
ATOM      1  C   UNL     1      -0.632  -0.561  24.931  0.00  0.00    +0.000 C 
ATOM      2  C   UNL     1      -0.870  -0.041  24.335  0.00  0.00    +0.000 C 
ATOM      3  C   UNL     1      -1.311  -0.319  23.697  0.00  0.00    +0.000 C 
ENDBRANCH   4   2
BRANCH   6   7
ATOM      7  C   UNL     1      -1.440   2.615  25.223  0.00  0.00    +0.091 C 
BRANCH   7   8
ATOM      8  C   UNL     1      -2.219   2.726  24.974  0.00  0.00    +0.227 A 
ATOM      9  N   UNL     1      -2.460   3.170  24.322  0.00  0.00    -0.111 NA
ATOM     10  N   UNL     1      -3.283   3.132  24.277  0.00  0.00    -0.107 NA
ATOM     11  C   UNL     1      -3.551   2.664  24.902  0.00  0.00    +0.251 A 
ATOM     12  O   UNL     1      -2.893   2.413  25.333  0.00  0.00    -0.419 OA
BRANCH  11  13
ATOM     13  C   UNL     1      -4.337   2.480  25.068  0.00  0.00    +0.074 A 
ATOM     14  C   UNL     1      -4.804   3.010  25.495  0.00  0.00    +0.104 A 
ATOM     15  N   UNL     1      -5.591   2.825  25.660  0.00  0.00    -0.242 NA
ATOM     16  C   UNL     1      -5.911   2.112  25.399  0.00  0.00    +0.099 A 
ATOM     17  C   UNL     1      -5.444   1.582  24.972  0.00  0.00    +0.021 A 
ATOM     18  C   UNL     1      -4.657   1.766  24.807  0.00  0.00    +0.008 A 
ENDBRANCH  11  13
ENDBRANCH   7   8
ENDBRANCH   6   7
BRANCH  22  23
ATOM     23  C   UNL     1       0.518   0.495  23.622  0.00  0.00    +0.093 C 
BRANCH  23  24
ATOM     24  N   UNL     1       1.283   0.719  23.409  0.00  0.00    -0.213 NA
BRANCH  24  25
ATOM     25  C   UNL     1       1.718   0.253  22.886  0.00  0.00    +0.115 C 
BRANCH  25  26
ATOM     26  C   UNL     1       2.542   0.226  22.944  0.00  0.00    -0.005 A 
ATOM     27  C   UNL     1       2.989   0.896  22.765  0.00  0.00    -0.002 A 
ATOM     28  C   UNL     1       3.811   0.870  22.822  0.00  0.00    +0.010 A 
ATOM     29  C   UNL     1       4.187   0.174  23.060  0.00  0.00    +0.068 A 
ATOM     30  C   UNL     1       3.738  -0.495  23.239  0.00  0.00    +0.010 A 
ATOM     31  C   UNL     1       2.916  -0.469  23.181  0.00  0.00    -0.002 A 
BRANCH  29  32
ATOM     32  C   UNL     1       5.008   0.147  23.117  0.00  0.00    +0.100 C 
ATOM     33  N   UNL     1       5.832   0.121  23.175  0.00  0.00    -0.191 NA
ENDBRANCH  29  32
ENDBRANCH  25  26
ENDBRANCH  24  25
ENDBRANCH  23  24
ENDBRANCH  22  23
TORSDOF 9
ENDMDL
MODEL 3
REMARK VINA RESULT:      -8.9      2.633      5.626
REMARK  Name = 
REMARK  9 active torsions:
REMARK  status: ('A' for Active; 'I' for Inactive)
REMARK    1  A    between atoms: C_2  and  C_4
REMARK    2  A    between atoms: C_6  and  C_7
REMARK    3  A    between atoms: C_7  and  C_8
REMARK    4  A    between atoms: C_11  and  C_13
REMARK    5  A    between atoms: C_22  and  C_23
REMARK    6  A    between atoms: C_23  and  N_24
REMARK    7  A    between atoms: N_24  and  C_25
REMARK    8  A    between atoms: C_25  and  C_26
REMARK    9  A    between atoms: C_29  and  C_32
REMARK                            x       y       z     vdW  Elec       q    Type
REMARK                         _______ _______ _______ _____ _____    ______ ____
ROOT
ATOM      4  C   UNL     1      -0.407   1.948  25.220  0.00  0.00    +0.006 C 
ATOM      5  C   UNL     1      -0.181   1.198  24.962  0.00  0.00    +0.005 C 
ATOM      6  C   UNL     1      -0.411   0.932  24.217  0.00  0.00    +0.027 C 
ATOM     19  C   UNL     1      -0.867   1.415  23.728  0.00  0.00    -0.048 C 
ATOM     20  C   UNL     1      -1.097   1.148  22.982  0.00  0.00    +0.026 C 
ATOM     21  C   UNL     1      -1.093   2.166  23.986  0.00  0.00    -0.033 C 
ATOM     22  C   UNL     1      -0.864   2.432  24.731  0.00  0.00    +0.039 C 
ENDROOT
BRANCH   4   2
ATOM      1  C   UNL     1      -0.576   1.951  26.639  0.00  0.00    +0.000 C 
ATOM      2  C   UNL     1      -0.177   2.215  25.966  0.00  0.00    +0.000 C 
ATOM      3  C   UNL     1       0.450   2.744  26.039  0.00  0.00    +0.000 C 
ENDBRANCH   4   2
BRANCH   6   7
ATOM      7  C   UNL     1      -0.185   0.181  23.959  0.00  0.00    +0.091 C 
BRANCH   7   8
ATOM      8  C   UNL     1      -0.516  -0.491  24.304  0.00  0.00    +0.227 A 
ATOM      9  N   UNL     1      -0.117  -1.049  24.761  0.00  0.00    -0.111 NA
ATOM     10  N   UNL     1      -0.660  -1.627  24.992  0.00  0.00    -0.107 NA
ATOM     11  C   UNL     1      -1.395  -1.425  24.677  0.00  0.00    +0.251 A 
ATOM     12  O   UNL     1      -1.307  -0.723  24.251  0.00  0.00    -0.419 OA
BRANCH  11  13
ATOM     13  C   UNL     1      -2.096  -1.850  24.771  0.00  0.00    +0.074 A 
ATOM     14  C   UNL     1      -2.197  -2.570  24.380  0.00  0.00    +0.104 A 
ATOM     15  N   UNL     1      -2.897  -2.995  24.474  0.00  0.00    -0.242 NA
ATOM     16  C   UNL     1      -3.497  -2.701  24.957  0.00  0.00    +0.099 A 
ATOM     17  C   UNL     1      -3.396  -1.981  25.348  0.00  0.00    +0.021 A 
ATOM     18  C   UNL     1      -2.695  -1.556  25.254  0.00  0.00    +0.008 A 
ENDBRANCH  11  13
ENDBRANCH   7   8
ENDBRANCH   6   7
BRANCH  22  23
ATOM     23  C   UNL     1      -1.089   3.182  24.989  0.00  0.00    +0.093 C 
BRANCH  23  24
ATOM     24  N   UNL     1      -1.772   3.535  24.689  0.00  0.00    -0.213 NA
BRANCH  24  25
ATOM     25  C   UNL     1      -2.182   4.090  25.139  0.00  0.00    +0.115 C 
BRANCH  25  26
ATOM     26  C   UNL     1      -2.995   4.006  25.258  0.00  0.00    -0.005 A 
ATOM     27  C   UNL     1      -3.302   4.018  26.024  0.00  0.00    -0.002 A 
ATOM     28  C   UNL     1      -4.114   3.934  26.143  0.00  0.00    +0.010 A 
ATOM     29  C   UNL     1      -4.619   3.839  25.497  0.00  0.00    +0.068 A 
ATOM     30  C   UNL     1      -4.310   3.827  24.732  0.00  0.00    +0.010 A 
ATOM     31  C   UNL     1      -3.498   3.911  24.613  0.00  0.00    -0.002 A 
BRANCH  29  32
ATOM     32  C   UNL     1      -5.430   3.755  25.616  0.00  0.00    +0.100 C 
ATOM     33  N   UNL     1      -6.243   3.671  25.735  0.00  0.00    -0.191 NA
ENDBRANCH  29  32
ENDBRANCH  25  26
ENDBRANCH  24  25
ENDBRANCH  23  24
ENDBRANCH  22  23
TORSDOF 9
ENDMDL
MODEL 4
REMARK VINA RESULT:      -8.4      1.378      6.765
REMARK  Name = 
REMARK  9 active torsions:
REMARK  status: ('A' for Active; 'I' for Inactive)
REMARK    1  A    between atoms: C_2  and  C_4
REMARK    2  A    between atoms: C_6  and  C_7
REMARK    3  A    between atoms: C_7  and  C_8
REMARK    4  A    between atoms: C_11  and  C_13
REMARK    5  A    between atoms: C_22  and  C_23
REMARK    6  A    between atoms: C_23  and  N_24
REMARK    7  A    between atoms: N_24  and  C_25
REMARK    8  A    between atoms: C_25  and  C_26
REMARK    9  A    between atoms: C_29  and  C_32
REMARK                            x       y       z     vdW  Elec       q    Type
REMARK                         _______ _______ _______ _____ _____    ______ ____
ROOT
ATOM      4  C   UNL     1      -0.532   1.676  24.270  0.00  0.00    +0.006 C 
ATOM      5  C   UNL     1       0.019   1.072  24.152  0.00  0.00    +0.005 C 
ATOM      6  C   UNL     1      -0.237   0.312  23.965  0.00  0.00    +0.027 C 
ATOM     19  C   UNL     1      -1.043   0.153  23.895  0.00  0.00    -0.048 C 
ATOM     20  C   UNL     1      -1.299  -0.609  23.707  0.00  0.00    +0.026 C 
ATOM     21  C   UNL     1      -1.594   0.756  24.013  0.00  0.00    -0.033 C 
ATOM     22  C   UNL     1      -1.339   1.517  24.200  0.00  0.00    +0.039 C 
ENDROOT
BRANCH   4   2
ATOM      1  C   UNL     1      -0.095   2.630  25.239  0.00  0.00    +0.000 C 
ATOM      2  C   UNL     1      -0.276   2.437  24.457  0.00  0.00    +0.000 C 
ATOM      3  C   UNL     1      -0.200   3.004  23.864  0.00  0.00    +0.000 C 
ENDBRANCH   4   2
BRANCH   6   7
ATOM      7  C   UNL     1       0.314  -0.292  23.847  0.00  0.00    +0.091 C 
BRANCH   7   8
ATOM      8  C   UNL     1       0.961  -0.169  23.350  0.00  0.00    +0.227 A 
ATOM      9  N   UNL     1       0.948  -0.175  22.526  0.00  0.00    -0.111 NA
ATOM     10  N   UNL     1       1.714  -0.028  22.257  0.00  0.00    -0.107 NA
ATOM     11  C   UNL     1       2.201   0.070  22.915  0.00  0.00    +0.251 A 
ATOM     12  O   UNL     1       1.736  -0.017  23.591  0.00  0.00    -0.419 OA
BRANCH  11  13
ATOM     13  C   UNL     1       3.010   0.227  22.901  0.00  0.00    +0.074 A 
ATOM     14  C   UNL     1       3.549  -0.368  23.092  0.00  0.00    +0.104 A 
ATOM     15  N   UNL     1       4.359  -0.211  23.077  0.00  0.00    -0.242 NA
ATOM     16  C   UNL     1       4.630   0.540  22.872  0.00  0.00    +0.099 A 
ATOM     17  C   UNL     1       4.091   1.135  22.682  0.00  0.00    +0.021 A 
ATOM     18  C   UNL     1       3.281   0.978  22.696  0.00  0.00    +0.008 A 
ENDBRANCH  11  13
ENDBRANCH   7   8
ENDBRANCH   6   7
BRANCH  22  23
ATOM     23  C   UNL     1      -1.889   2.120  24.318  0.00  0.00    +0.093 C 
BRANCH  23  24
ATOM     24  N   UNL     1      -2.689   1.939  24.400  0.00  0.00    -0.213 NA
BRANCH  24  25
ATOM     25  C   UNL     1      -3.254   2.539  24.366  0.00  0.00    +0.115 C 
BRANCH  25  26
ATOM     26  C   UNL     1      -3.954   2.472  24.799  0.00  0.00    -0.005 A 
ATOM     27  C   UNL     1      -4.151   3.049  25.356  0.00  0.00    -0.002 A 
ATOM     28  C   UNL     1      -4.850   2.983  25.788  0.00  0.00    +0.010 A 
ATOM     29  C   UNL     1      -5.353   2.339  25.664  0.00  0.00    +0.068 A 
ATOM     30  C   UNL     1      -5.155   1.763  25.107  0.00  0.00    +0.010 A 
ATOM     31  C   UNL     1      -4.455   1.830  24.675  0.00  0.00    -0.002 A 
BRANCH  29  32
ATOM     32  C   UNL     1      -6.051   2.273  26.096  0.00  0.00    +0.100 C 
ATOM     33  N   UNL     1      -6.752   2.206  26.528  0.00  0.00    -0.191 NA
ENDBRANCH  29  32
ENDBRANCH  25  26
ENDBRANCH  24  25
ENDBRANCH  23  24
ENDBRANCH  22  23
TORSDOF 9
ENDMDL
MODEL 5
REMARK VINA RESULT:      -8.4      3.371      5.887
REMARK  Name = 
REMARK  9 active torsions:
REMARK  status: ('A' for Active; 'I' for Inactive)
REMARK    1  A    between atoms: C_2  and  C_4
REMARK    2  A    between atoms: C_6  and  C_7
REMARK    3  A    between atoms: C_7  and  C_8
REMARK    4  A    between atoms: C_11  and  C_13
REMARK    5  A    between atoms: C_22  and  C_23
REMARK    6  A    between atoms: C_23  and  N_24
REMARK    7  A    between atoms: N_24  and  C_25
REMARK    8  A    between atoms: C_25  and  C_26
REMARK    9  A    between atoms: C_29  and  C_32
REMARK                            x       y       z     vdW  Elec       q    Type
REMARK                         _______ _______ _______ _____ _____    ______ ____
ROOT
ATOM      4  C   UNL     1      -4.803   2.434  24.995  0.00  0.00    +0.006 C 
ATOM      5  C   UNL     1      -4.358   3.122  24.904  0.00  0.00    +0.005 C 
ATOM      6  C   UNL     1      -3.810   3.181  24.291  0.00  0.00    +0.027 C 
ATOM     19  C   UNL     1      -3.706   2.552  23.768  0.00  0.00    -0.048 C 
ATOM     20  C   UNL     1      -3.157   2.611  23.155  0.00  0.00    +0.026 C 
ATOM     21  C   UNL     1      -4.151   1.863  23.859  0.00  0.00    -0.033 C 
ATOM     22  C   UNL     1      -4.699   1.804  24.472  0.00  0.00    +0.039 C 
ENDROOT
BRANCH   4   2
ATOM      1  C   UNL     1      -5.092   2.293  26.387  0.00  0.00    +0.000 C 
ATOM      2  C   UNL     1      -5.352   2.375  25.608  0.00  0.00    +0.000 C 
ATOM      3  C   UNL     1      -6.159   2.397  25.442  0.00  0.00    +0.000 C 
ENDBRANCH   4   2
BRANCH   6   7
ATOM      7  C   UNL     1      -3.365   3.871  24.201  0.00  0.00    +0.091 C 
BRANCH   7   8
ATOM      8  C   UNL     1      -2.687   3.987  24.657  0.00  0.00    +0.227 A 
ATOM      9  N   UNL     1      -2.457   4.696  25.010  0.00  0.00    -0.111 NA
ATOM     10  N   UNL     1      -1.748   4.562  25.412  0.00  0.00    -0.107 NA
ATOM     11  C   UNL     1      -1.541   3.771  25.306  0.00  0.00    +0.251 A 
ATOM     12  O   UNL     1      -2.121   3.415  24.840  0.00  0.00    -0.419 OA
BRANCH  11  13
ATOM     13  C   UNL     1      -0.871   3.400  25.613  0.00  0.00    +0.074 A 
ATOM     14  C   UNL     1      -0.150   3.455  25.214  0.00  0.00    +0.104 A 
ATOM     15  N   UNL     1       0.519   3.084  25.521  0.00  0.00    -0.242 NA
ATOM     16  C   UNL     1       0.469   2.658  26.225  0.00  0.00    +0.099 A 
ATOM     17  C   UNL     1      -0.252   2.603  26.624  0.00  0.00    +0.021 A 
ATOM     18  C   UNL     1      -0.921   2.974  26.317  0.00  0.00    +0.008 A 
ENDBRANCH  11  13
ENDBRANCH   7   8
ENDBRANCH   6   7
BRANCH  22  23
ATOM     23  C   UNL     1      -5.144   1.115  24.563  0.00  0.00    +0.093 C 
BRANCH  23  24
ATOM     24  N   UNL     1      -4.859   0.398  24.272  0.00  0.00    -0.213 NA
BRANCH  24  25
ATOM     25  C   UNL     1      -4.953  -0.292  24.713  0.00  0.00    +0.115 C 
BRANCH  25  26
ATOM     26  C   UNL     1      -4.388  -0.893  24.664  0.00  0.00    -0.005 A 
ATOM     27  C   UNL     1      -3.845  -0.999  25.276  0.00  0.00    -0.002 A 
ATOM     28  C   UNL     1      -3.281  -1.599  25.227  0.00  0.00    +0.010 A 
ATOM     29  C   UNL     1      -3.261  -2.094  24.566  0.00  0.00    +0.068 A 
ATOM     30  C   UNL     1      -3.805  -1.987  23.955  0.00  0.00    +0.010 A 
ATOM     31  C   UNL     1      -4.369  -1.387  24.004  0.00  0.00    -0.002 A 
BRANCH  29  32
ATOM     32  C   UNL     1      -2.698  -2.694  24.517  0.00  0.00    +0.100 C 
ATOM     33  N   UNL     1      -2.134  -3.295  24.468  0.00  0.00    -0.191 NA
ENDBRANCH  29  32
ENDBRANCH  25  26
ENDBRANCH  24  25
ENDBRANCH  23  24
ENDBRANCH  22  23
TORSDOF 9
ENDMDL
MODEL 6
REMARK VINA RESULT:      -8.2      1.710      6.573
REMARK  Name = 
REMARK  9 active torsions:
REMARK  status: ('A' for Active; 'I' for Inactive)
REMARK    1  A    between atoms: C_2  and  C_4
REMARK    2  A    between atoms: C_6  and  C_7
REMARK    3  A    between atoms: C_7  and  C_8
REMARK    4  A    between atoms: C_11  and  C_13
REMARK    5  A    between atoms: C_22  and  C_23
REMARK    6  A    between atoms: C_23  and  N_24
REMARK    7  A    between atoms: N_24  and  C_25
REMARK    8  A    between atoms: C_25  and  C_26
REMARK    9  A    between atoms: C_29  and  C_32
REMARK                            x       y       z     vdW  Elec       q    Type
REMARK                         _______ _______ _______ _____ _____    ______ ____
ROOT
ATOM      4  C   UNL     1      -3.386  -1.233  24.524  0.00  0.00    +0.006 C 
ATOM      5  C   UNL     1      -2.614  -1.518  24.579  0.00  0.00    +0.005 C 
ATOM      6  C   UNL     1      -2.123  -1.263  25.190  0.00  0.00    +0.027 C 
ATOM     19  C   UNL     1      -2.403  -0.723  25.747  0.00  0.00    -0.048 C 
ATOM     20  C   UNL     1      -1.911  -0.468  26.358  0.00  0.00    +0.026 C 
ATOM     21  C   UNL     1      -3.176  -0.438  25.692  0.00  0.00    -0.033 C 
ATOM     22  C   UNL     1      -3.667  -0.692  25.081  0.00  0.00    +0.039 C 
ENDROOT
BRANCH   4   2
ATOM      1  C   UNL     1      -4.315  -2.182  23.998  0.00  0.00    +0.000 C 
ATOM      2  C   UNL     1      -3.878  -1.488  23.912  0.00  0.00    +0.000 C 
ATOM      3  C   UNL     1      -3.931  -1.049  23.217  0.00  0.00    +0.000 C 
ENDBRANCH   4   2
BRANCH   6   7
ATOM      7  C   UNL     1      -1.350  -1.549  25.245  0.00  0.00    +0.091 C 
BRANCH   7   8
ATOM      8  C   UNL     1      -0.797  -1.357  24.663  0.00  0.00    +0.227 A 
ATOM      9  N   UNL     1      -0.550  -1.847  24.048  0.00  0.00    -0.111 NA
ATOM     10  N   UNL     1       0.006  -1.434  23.599  0.00  0.00    -0.107 NA
ATOM     11  C   UNL     1       0.102  -0.688  23.937  0.00  0.00    +0.251 A 
ATOM     12  O   UNL     1      -0.394  -0.640  24.595  0.00  0.00    -0.419 OA
BRANCH  11  13
ATOM     13  C   UNL     1       0.606  -0.094  23.666  0.00  0.00    +0.074 A 
ATOM     14  C   UNL     1       1.210  -0.277  23.134  0.00  0.00    +0.104 A 
ATOM     15  N   UNL     1       1.714   0.317  22.863  0.00  0.00    -0.242 NA
ATOM     16  C   UNL     1       1.614   1.093  23.122  0.00  0.00    +0.099 A 
ATOM     17  C   UNL     1       1.010   1.276  23.654  0.00  0.00    +0.021 A 
ATOM     18  C   UNL     1       0.506   0.682  23.925  0.00  0.00    +0.008 A 
ENDBRANCH  11  13
ENDBRANCH   7   8
ENDBRANCH   6   7
BRANCH  22  23
ATOM     23  C   UNL     1      -4.439  -0.408  25.026  0.00  0.00    +0.093 C 
BRANCH  23  24
ATOM     24  N   UNL     1      -4.629   0.333  25.335  0.00  0.00    -0.213 NA
BRANCH  24  25
ATOM     25  C   UNL     1      -5.309   0.723  25.081  0.00  0.00    +0.115 C 
BRANCH  25  26
ATOM     26  C   UNL     1      -5.394   1.534  25.214  0.00  0.00    -0.005 A 
ATOM     27  C   UNL     1      -5.808   1.803  25.875  0.00  0.00    -0.002 A 
ATOM     28  C   UNL     1      -5.892   2.613  26.008  0.00  0.00    +0.010 A 
ATOM     29  C   UNL     1      -5.563   3.154  25.478  0.00  0.00    +0.068 A 
ATOM     30  C   UNL     1      -5.149   2.885  24.817  0.00  0.00    +0.010 A 
ATOM     31  C   UNL     1      -5.065   2.075  24.685  0.00  0.00    -0.002 A 
BRANCH  29  32
ATOM     32  C   UNL     1      -5.647   3.963  25.610  0.00  0.00    +0.100 C 
ATOM     33  N   UNL     1      -5.731   4.774  25.743  0.00  0.00    -0.191 NA
ENDBRANCH  29  32
ENDBRANCH  25  26
ENDBRANCH  24  25
ENDBRANCH  23  24
ENDBRANCH  22  23
TORSDOF 9
ENDMDL
MODEL 7
REMARK VINA RESULT:      -8.2      2.728      4.138
REMARK  Name = 
REMARK  9 active torsions:
REMARK  status: ('A' for Active; 'I' for Inactive)
REMARK    1  A    between atoms: C_2  and  C_4
REMARK    2  A    between atoms: C_6  and  C_7
REMARK    3  A    between atoms: C_7  and  C_8
REMARK    4  A    between atoms: C_11  and  C_13
REMARK    5  A    between atoms: C_22  and  C_23
REMARK    6  A    between atoms: C_23  and  N_24
REMARK    7  A    between atoms: N_24  and  C_25
REMARK    8  A    between atoms: C_25  and  C_26
REMARK    9  A    between atoms: C_29  and  C_32
REMARK                            x       y       z     vdW  Elec       q    Type
REMARK                         _______ _______ _______ _____ _____    ______ ____
ROOT
ATOM      4  C   UNL     1      -0.984   2.044  24.770  0.00  0.00    +0.006 C 
ATOM      5  C   UNL     1      -1.490   2.662  24.563  0.00  0.00    +0.005 C 
ATOM      6  C   UNL     1      -1.970   2.598  23.897  0.00  0.00    +0.027 C 
ATOM     19  C   UNL     1      -1.946   1.914  23.435  0.00  0.00    -0.048 C 
ATOM     20  C   UNL     1      -2.427   1.850  22.768  0.00  0.00    +0.026 C 
ATOM     21  C   UNL     1      -1.440   1.295  23.641  0.00  0.00    -0.033 C 
ATOM     22  C   UNL     1      -0.960   1.360  24.308  0.00  0.00    +0.039 C 
ENDROOT
BRANCH   4   2
ATOM      1  C   UNL     1       0.298   2.285  25.351  0.00  0.00    +0.000 C 
ATOM      2  C   UNL     1      -0.503   2.109  25.437  0.00  0.00    +0.000 C 
ATOM      3  C   UNL     1      -0.824   1.997  26.188  0.00  0.00    +0.000 C 
ENDBRANCH   4   2
BRANCH   6   7
ATOM      7  C   UNL     1      -2.476   3.217  23.691  0.00  0.00    +0.091 C 
BRANCH   7   8
ATOM      8  C   UNL     1      -3.129   3.391  24.164  0.00  0.00    +0.227 A 
ATOM      9  N   UNL     1      -3.303   4.124  24.499  0.00  0.00    -0.111 NA
ATOM     10  N   UNL     1      -4.004   4.049  24.928  0.00  0.00    -0.107 NA
ATOM     11  C   UNL     1      -4.264   3.269  24.857  0.00  0.00    +0.251 A 
ATOM     12  O   UNL     1      -3.723   2.862  24.385  0.00  0.00    -0.419 OA
BRANCH  11  13
ATOM     13  C   UNL     1      -4.945   2.952  25.197  0.00  0.00    +0.074 A 
ATOM     14  C   UNL     1      -5.263   3.294  25.878  0.00  0.00    +0.104 A 
ATOM     15  N   UNL     1      -5.944   2.977  26.218  0.00  0.00    -0.242 NA
ATOM     16  C   UNL     1      -6.306   2.318  25.880  0.00  0.00    +0.099 A 
ATOM     17  C   UNL     1      -5.987   1.975  25.200  0.00  0.00    +0.021 A 
ATOM     18  C   UNL     1      -5.307   2.293  24.859  0.00  0.00    +0.008 A 
ENDBRANCH  11  13
ENDBRANCH   7   8
ENDBRANCH   6   7
BRANCH  22  23
ATOM     23  C   UNL     1      -0.455   0.742  24.514  0.00  0.00    +0.093 C 
BRANCH  23  24
ATOM     24  N   UNL     1      -0.606  -0.023  24.244  0.00  0.00    -0.213 NA
BRANCH  24  25
ATOM     25  C   UNL     1      -0.586  -0.657  24.770  0.00  0.00    +0.115 C 
BRANCH  25  26
ATOM     26  C   UNL     1      -1.182  -1.230  24.748  0.00  0.00    -0.005 A 
ATOM     27  C   UNL     1      -1.781  -1.222  25.315  0.00  0.00    -0.002 A 
ATOM     28  C   UNL     1      -2.376  -1.794  25.294  0.00  0.00    +0.010 A 
ATOM     29  C   UNL     1      -2.371  -2.373  24.705  0.00  0.00    +0.068 A 
ATOM     30  C   UNL     1      -1.771  -2.380  24.139  0.00  0.00    +0.010 A 
ATOM     31  C   UNL     1      -1.176  -1.808  24.161  0.00  0.00    -0.002 A 
BRANCH  29  32
ATOM     32  C   UNL     1      -2.964  -2.944  24.684  0.00  0.00    +0.100 C 
ATOM     33  N   UNL     1      -3.560  -3.516  24.663  0.00  0.00    -0.191 NA
ENDBRANCH  29  32
ENDBRANCH  25  26
ENDBRANCH  24  25
ENDBRANCH  23  24
ENDBRANCH  22  23
TORSDOF 9
ENDMDL
MODEL 8
REMARK VINA RESULT:      -8.1      2.541      6.396
REMARK  Name = 
REMARK  9 active torsions:
REMARK  status: ('A' for Active; 'I' for Inactive)
REMARK    1  A    between atoms: C_2  and  C_4
REMARK    2  A    between atoms: C_6  and  C_7
REMARK    3  A    between atoms: C_7  and  C_8
REMARK    4  A    between atoms: C_11  and  C_13
REMARK    5  A    between atoms: C_22  and  C_23
REMARK    6  A    between atoms: C_23  and  N_24
REMARK    7  A    between atoms: N_24  and  C_25
REMARK    8  A    between atoms: C_25  and  C_26
REMARK    9  A    between atoms: C_29  and  C_32
REMARK                            x       y       z     vdW  Elec       q    Type
REMARK                         _______ _______ _______ _____ _____    ______ ____
ROOT
ATOM      4  C   UNL     1      -2.133   2.130  23.294  0.00  0.00    +0.006 C 
ATOM      5  C   UNL     1      -1.397   1.771  23.392  0.00  0.00    +0.005 C 
ATOM      6  C   UNL     1      -0.953   1.919  24.070  0.00  0.00    +0.027 C 
ATOM     19  C   UNL     1      -1.243   2.426  24.652  0.00  0.00    -0.048 C 
ATOM     20  C   UNL     1      -0.799   2.574  25.331  0.00  0.00    +0.026 C 
ATOM     21  C   UNL     1      -1.980   2.786  24.554  0.00  0.00    -0.033 C 
ATOM     22  C   UNL     1      -2.424   2.638  23.876  0.00  0.00    +0.039 C 
ENDROOT
BRANCH   4   2
ATOM      1  C   UNL     1      -3.035   1.297  22.563  0.00  0.00    +0.000 C 
ATOM      2  C   UNL     1      -2.577   1.982  22.615  0.00  0.00    +0.000 C 
ATOM      3  C   UNL     1      -2.565   2.519  21.989  0.00  0.00    +0.000 C 
ENDBRANCH   4   2
BRANCH   6   7
ATOM      7  C   UNL     1      -0.216   1.559  24.168  0.00  0.00    +0.091 C 
BRANCH   7   8
ATOM      8  C   UNL     1      -0.146   0.739  24.112  0.00  0.00    +0.227 A 
ATOM      9  N   UNL     1       0.389   0.329  23.637  0.00  0.00    -0.111 NA
ATOM     10  N   UNL     1       0.266  -0.479  23.753  0.00  0.00    -0.107 NA
ATOM     11  C   UNL     1      -0.346  -0.568  24.299  0.00  0.00    +0.251 A 
ATOM     12  O   UNL     1      -0.601   0.185  24.521  0.00  0.00    -0.419 OA
BRANCH  11  13
ATOM     13  C   UNL     1      -0.650  -1.284  24.575  0.00  0.00    +0.074 A 
ATOM     14  C   UNL     1      -0.261  -1.691  25.179  0.00  0.00    +0.104 A 
ATOM     15  N   UNL     1      -0.564  -2.406  25.455  0.00  0.00    -0.242 NA
ATOM     16  C   UNL     1      -1.256  -2.715  25.128  0.00  0.00    +0.099 A 
ATOM     17  C   UNL     1      -1.644  -2.308  24.524  0.00  0.00    +0.021 A 
ATOM     18  C   UNL     1      -1.341  -1.592  24.248  0.00  0.00    +0.008 A 
ENDBRANCH  11  13
ENDBRANCH   7   8
ENDBRANCH   6   7
BRANCH  22  23
ATOM     23  C   UNL     1      -3.160   2.998  23.778  0.00  0.00    +0.093 C 
BRANCH  23  24
ATOM     24  N   UNL     1      -3.621   3.181  24.437  0.00  0.00    -0.213 NA
BRANCH  24  25
ATOM     25  C   UNL     1      -4.435   3.284  24.355  0.00  0.00    +0.115 C 
BRANCH  25  26
ATOM     26  C   UNL     1      -4.951   2.955  24.909  0.00  0.00    -0.005 A 
ATOM     27  C   UNL     1      -5.406   2.296  24.708  0.00  0.00    -0.002 A 
ATOM     28  C   UNL     1      -5.921   1.967  25.262  0.00  0.00    +0.010 A 
ATOM     29  C   UNL     1      -5.982   2.296  26.017  0.00  0.00    +0.068 A 
ATOM     30  C   UNL     1      -5.526   2.954  26.217  0.00  0.00    +0.010 A 
ATOM     31  C   UNL     1      -5.011   3.284  25.663  0.00  0.00    -0.002 A 
BRANCH  29  32
ATOM     32  C   UNL     1      -6.496   1.967  26.570  0.00  0.00    +0.100 C 
ATOM     33  N   UNL     1      -7.012   1.638  27.125  0.00  0.00    -0.191 NA
ENDBRANCH  29  32
ENDBRANCH  25  26
ENDBRANCH  24  25
ENDBRANCH  23  24
ENDBRANCH  22  23
TORSDOF 9
ENDMDL
