MODEL 1
REMARK VINA RESULT:      -9.1      0.000      0.000
REMARK  Name = 
REMARK  6 active torsions:
REMARK  status: ('A' for Active; 'I' for Inactive)
REMARK    1  A    between atoms: N_6  and  C_25
REMARK    2  A    between atoms: C_12  and  C_13
REMARK    3  A    between atoms: C_13  and  C_14
REMARK    4  A    between atoms: C_14  and  C_15
REMARK    5  A    between atoms: N_17  and  C_18
REMARK    6  A    between atoms: C_18  and  C_19
REMARK                            x       y       z     vdW  Elec       q    Type
REMARK                         _______ _______ _______ _____ _____    ______ ____
ROOT
ATOM      1  C   UNL     1       0.164   1.429  23.876  0.00  0.00    +0.090 C 
ATOM      2  N   UNL     1      -0.163   0.673  23.930  0.00  0.00    -0.271 NA
ATOM      3  C   UNL     1      -0.897   0.627  24.306  0.00  0.00    +0.083 C 
ATOM      4  C   UNL     1      -1.292   1.283  24.614  0.00  0.00    +0.035 C 
ATOM      5  C   UNL     1      -2.001   1.021  24.943  0.00  0.00    +0.074 C 
ATOM      6  N   UNL     1      -2.045   0.203  24.840  0.00  0.00    -0.267 NA
ATOM      7  C   UNL     1      -1.362  -0.040  24.446  0.00  0.00    +0.151 C 
ATOM      8  C   UNL     1      -1.209  -0.825  24.245  0.00  0.00    +0.257 C 
ATOM      9  O   UNL     1      -1.788  -1.370  24.463  0.00  0.00    -0.272 OA
ATOM     10  N   UNL     1      -0.553  -1.138  23.854  0.00  0.00    -0.203 NA
ATOM     11  C   UNL     1       0.113  -0.741  23.568  0.00  0.00    +0.131 C 
ATOM     12  C   UNL     1       0.285   0.064  23.602  0.00  0.00    +0.080 C 
ENDROOT
BRANCH   6  25
ATOM     25  C   UNL     1      -2.662  -0.285  25.087  0.00  0.00    +0.058 C 
ATOM     26  C   UNL     1      -3.323  -0.389  24.606  0.00  0.00    +0.016 C 
ATOM     27  C   UNL     1      -3.942  -0.877  24.853  0.00  0.00    +0.001 C 
ATOM     28  C   UNL     1      -3.897  -1.261  25.581  0.00  0.00    +0.000 C 
ATOM     29  C   UNL     1      -3.236  -1.157  26.063  0.00  0.00    +0.001 C 
ATOM     30  C   UNL     1      -2.618  -0.668  25.816  0.00  0.00    +0.016 C 
ENDBRANCH   6  25
BRANCH  12  13
ATOM     13  C   UNL     1       1.003   0.291  23.263  0.00  0.00    +0.027 C 
BRANCH  13  14
ATOM     14  C   UNL     1       1.494  -0.276  22.920  0.00  0.00    +0.088 C 
BRANCH  14  15
ATOM     15  C   UNL     1       2.212  -0.049  22.582  0.00  0.00    +0.242 C 
ATOM     16  O   UNL     1       2.238   0.206  21.798  0.00  0.00    -0.273 OA
ATOM     17  N   UNL     1       2.905  -0.078  23.030  0.00  0.00    -0.200 NA
BRANCH  17  18
ATOM     18  C   UNL     1       3.623   0.148  22.692  0.00  0.00    +0.143 C 
BRANCH  18  19
ATOM     19  C   UNL     1       4.314   0.127  23.142  0.00  0.00    +0.019 A 
ATOM     20  C   UNL     1       4.605  -0.593  23.420  0.00  0.00    +0.001 A 
ATOM     21  C   UNL     1       5.295  -0.614  23.869  0.00  0.00    +0.020 A 
ATOM     22  C   UNL     1       5.696   0.086  24.043  0.00  0.00    +0.099 A 
ATOM     23  N   UNL     1       5.406   0.807  23.765  0.00  0.00    -0.243 NA
ATOM     24  C   UNL     1       4.714   0.828  23.315  0.00  0.00    +0.096 A 
ENDBRANCH  18  19
ENDBRANCH  17  18
ENDBRANCH  14  15
ENDBRANCH  13  14
ENDBRANCH  12  13
TORSDOF 6
ENDMDL
MODEL 2
REMARK VINA RESULT:      -8.9      1.559      2.178
REMARK  Name = 
REMARK  6 active torsions:
REMARK  status: ('A' for Active; 'I' for Inactive)
REMARK    1  A    between atoms: N_6  and  C_25
REMARK    2  A    between atoms: C_12  and  C_13
REMARK    3  A    between atoms: C_13  and  C_14
REMARK    4  A    between atoms: C_14  and  C_15
REMARK    5  A    between atoms: N_17  and  C_18
REMARK    6  A    between atoms: C_18  and  C_19
REMARK                            x       y       z     vdW  Elec       q    Type
REMARK                         _______ _______ _______ _____ _____    ______ ____
ROOT
ATOM      1  C   UNL     1      -0.910  -0.560  24.501  0.00  0.00    +0.090 C 
ATOM      2  N   UNL     1      -1.151   0.193  24.266  0.00  0.00    -0.271 NA
ATOM      3  C   UNL     1      -1.890   0.436  24.544  0.00  0.00    +0.083 C 
ATOM      4  C   UNL     1      -2.370  -0.031  25.026  0.00  0.00    +0.035 C 
ATOM      5  C   UNL     1      -3.058   0.393  25.189  0.00  0.00    +0.074 C 
ATOM      6  N   UNL     1      -3.004   1.124  24.807  0.00  0.00    -0.267 NA
ATOM      7  C   UNL     1      -2.281   1.149  24.409  0.00  0.00    +0.151 C 
ATOM      8  C   UNL     1      -2.032   1.797  23.963  0.00  0.00    +0.257 C 
ATOM      9  O   UNL     1      -2.553   2.434  23.934  0.00  0.00    -0.272 OA
ATOM     10  N   UNL     1      -1.328   1.891  23.542  0.00  0.00    -0.203 NA
ATOM     11  C   UNL     1      -0.701   1.360  23.463  0.00  0.00    +0.131 C 
ATOM     12  C   UNL     1      -0.623   0.605  23.785  0.00  0.00    +0.080 C 
ENDROOT
BRANCH   6  25
ATOM     25  C   UNL     1      -3.571   1.722  24.822  0.00  0.00    +0.058 C 
ATOM     26  C   UNL     1      -3.513   2.332  25.372  0.00  0.00    +0.016 C 
ATOM     27  C   UNL     1      -4.080   2.931  25.388  0.00  0.00    +0.001 C 
ATOM     28  C   UNL     1      -4.706   2.918  24.851  0.00  0.00    +0.000 C 
ATOM     29  C   UNL     1      -4.766   2.307  24.300  0.00  0.00    +0.001 C 
ATOM     30  C   UNL     1      -4.197   1.709  24.285  0.00  0.00    +0.016 C 
ENDBRANCH   6  25
BRANCH  12  13
ATOM     13  C   UNL     1       0.078   0.208  23.602  0.00  0.00    +0.027 C 
BRANCH  13  14
ATOM     14  C   UNL     1       0.700   0.615  23.245  0.00  0.00    +0.088 C 
BRANCH  14  15
ATOM     15  C   UNL     1       1.313   0.196  22.884  0.00  0.00    +0.242 C 
ATOM     16  O   UNL     1       1.140  -0.410  22.352  0.00  0.00    -0.273 OA
ATOM     17  N   UNL     1       2.097   0.384  23.055  0.00  0.00    -0.200 NA
BRANCH  17  18
ATOM     18  C   UNL     1       2.710  -0.035  22.693  0.00  0.00    +0.143 C 
BRANCH  18  19
ATOM     19  C   UNL     1       3.493   0.113  22.908  0.00  0.00    +0.019 A 
ATOM     20  C   UNL     1       3.930  -0.466  23.300  0.00  0.00    +0.001 A 
ATOM     21  C   UNL     1       4.712  -0.317  23.514  0.00  0.00    +0.020 A 
ATOM     22  C   UNL     1       5.058   0.411  23.337  0.00  0.00    +0.099 A 
ATOM     23  N   UNL     1       4.621   0.990  22.945  0.00  0.00    -0.243 NA
ATOM     24  C   UNL     1       3.837   0.842  22.730  0.00  0.00    +0.096 A 
ENDBRANCH  18  19
ENDBRANCH  17  18
ENDBRANCH  14  15
ENDBRANCH  13  14
ENDBRANCH  12  13
TORSDOF 6
ENDMDL
MODEL 3
REMARK VINA RESULT:      -8.8      4.633      5.529
REMARK  Name = 
REMARK  6 active torsions:
REMARK  status: ('A' for Active; 'I' for Inactive)
REMARK    1  A    between atoms: N_6  and  C_25
REMARK    2  A    between atoms: C_12  and  C_13
REMARK    3  A    between atoms: C_13  and  C_14
REMARK    4  A    between atoms: C_14  and  C_15
REMARK    5  A    between atoms: N_17  and  C_18
REMARK    6  A    between atoms: C_18  and  C_19
REMARK                            x       y       z     vdW  Elec       q    Type
REMARK                         _______ _______ _______ _____ _____    ______ ____
ROOT
ATOM      1  C   UNL     1      -3.623   1.959  23.523  0.00  0.00    +0.090 C 
ATOM      2  N   UNL     1      -3.858   1.388  24.069  0.00  0.00    -0.271 NA
ATOM      3  C   UNL     1      -3.669   0.608  23.875  0.00  0.00    +0.083 C 
ATOM      4  C   UNL     1      -3.270   0.395  23.185  0.00  0.00    +0.035 C 
ATOM      5  C   UNL     1      -3.181  -0.425  23.185  0.00  0.00    +0.074 C 
ATOM      6  N   UNL     1      -3.525  -0.720  23.875  0.00  0.00    -0.267 NA
ATOM      7  C   UNL     1      -3.826  -0.080  24.302  0.00  0.00    +0.151 C 
ATOM      8  C   UNL     1      -4.212  -0.161  25.027  0.00  0.00    +0.257 C 
ATOM      9  O   UNL     1      -4.284  -0.931  25.311  0.00  0.00    -0.272 OA
ATOM     10  N   UNL     1      -4.536   0.429  25.504  0.00  0.00    -0.203 NA
ATOM     11  C   UNL     1      -4.553   1.245  25.375  0.00  0.00    +0.131 C 
ATOM     12  C   UNL     1      -4.252   1.670  24.736  0.00  0.00    +0.080 C 
ENDROOT
BRANCH   6  25
ATOM     25  C   UNL     1      -3.561  -1.513  24.099  0.00  0.00    +0.058 C 
ATOM     26  C   UNL     1      -4.186  -1.985  23.842  0.00  0.00    +0.016 C 
ATOM     27  C   UNL     1      -4.222  -2.779  24.066  0.00  0.00    +0.001 C 
ATOM     28  C   UNL     1      -3.633  -3.099  24.546  0.00  0.00    +0.000 C 
ATOM     29  C   UNL     1      -3.007  -2.626  24.803  0.00  0.00    +0.001 C 
ATOM     30  C   UNL     1      -2.972  -1.832  24.579  0.00  0.00    +0.016 C 
ENDBRANCH   6  25
BRANCH  12  13
ATOM     13  C   UNL     1      -4.358   2.488  24.769  0.00  0.00    +0.027 C 
BRANCH  13  14
ATOM     14  C   UNL     1      -4.345   2.876  25.497  0.00  0.00    +0.088 C 
BRANCH  14  15
ATOM     15  C   UNL     1      -4.011   3.629  25.557  0.00  0.00    +0.242 C 
ATOM     16  O   UNL     1      -4.495   4.297  25.544  0.00  0.00    -0.273 OA
ATOM     17  N   UNL     1      -3.194   3.712  25.630  0.00  0.00    -0.200 NA
BRANCH  17  18
ATOM     18  C   UNL     1      -2.860   4.465  25.690  0.00  0.00    +0.143 C 
BRANCH  18  19
ATOM     19  C   UNL     1      -2.079   4.588  25.454  0.00  0.00    +0.019 A 
ATOM     20  C   UNL     1      -1.862   5.303  25.104  0.00  0.00    +0.001 A 
ATOM     21  C   UNL     1      -1.082   5.426  24.869  0.00  0.00    +0.020 A 
ATOM     22  C   UNL     1      -0.517   4.835  24.983  0.00  0.00    +0.099 A 
ATOM     23  N   UNL     1      -0.735   4.120  25.333  0.00  0.00    -0.243 NA
ATOM     24  C   UNL     1      -1.516   3.997  25.569  0.00  0.00    +0.096 A 
ENDBRANCH  18  19
ENDBRANCH  17  18
ENDBRANCH  14  15
ENDBRANCH  13  14
ENDBRANCH  12  13
TORSDOF 6
ENDMDL
MODEL 4
REMARK VINA RESULT:      -8.6      2.177      2.927
REMARK  Name = 
REMARK  6 active torsions:
REMARK  status: ('A' for Active; 'I' for Inactive)
REMARK    1  A    between atoms: N_6  and  C_25
REMARK    2  A    between atoms: C_12  and  C_13
REMARK    3  A    between atoms: C_13  and  C_14
REMARK    4  A    between atoms: C_14  and  C_15
REMARK    5  A    between atoms: N_17  and  C_18
REMARK    6  A    between atoms: C_18  and  C_19
REMARK                            x       y       z     vdW  Elec       q    Type
REMARK                         _______ _______ _______ _____ _____    ______ ____
ROOT
ATOM      1  C   UNL     1      -1.815   1.958  22.730  0.00  0.00    +0.090 C 
ATOM      2  N   UNL     1      -2.170   1.693  23.427  0.00  0.00    -0.271 NA
ATOM      3  C   UNL     1      -2.891   2.046  23.618  0.00  0.00    +0.083 C 
ATOM      4  C   UNL     1      -3.249   2.627  23.156  0.00  0.00    +0.035 C 
ATOM      5  C   UNL     1      -3.956   2.844  23.521  0.00  0.00    +0.074 C 
ATOM      6  N   UNL     1      -4.035   2.397  24.211  0.00  0.00    -0.267 NA
ATOM      7  C   UNL     1      -3.376   1.904  24.270  0.00  0.00    +0.151 C 
ATOM      8  C   UNL     1      -3.261   1.373  24.892  0.00  0.00    +0.257 C 
ATOM      9  O   UNL     1      -3.852   1.360  25.466  0.00  0.00    -0.272 OA
ATOM     10  N   UNL     1      -2.631   0.854  25.014  0.00  0.00    -0.203 NA
ATOM     11  C   UNL     1      -1.962   0.737  24.546  0.00  0.00    +0.131 C 
ATOM     12  C   UNL     1      -1.757   1.111  23.840  0.00  0.00    +0.080 C 
ENDROOT
BRANCH   6  25
ATOM     25  C   UNL     1      -4.661   2.436  24.745  0.00  0.00    +0.058 C 
ATOM     26  C   UNL     1      -5.304   1.926  24.666  0.00  0.00    +0.016 C 
ATOM     27  C   UNL     1      -5.931   1.964  25.201  0.00  0.00    +0.001 C 
ATOM     28  C   UNL     1      -5.915   2.515  25.815  0.00  0.00    +0.000 C 
ATOM     29  C   UNL     1      -5.272   3.026  25.895  0.00  0.00    +0.001 C 
ATOM     30  C   UNL     1      -4.645   2.986  25.360  0.00  0.00    +0.016 C 
ENDBRANCH   6  25
BRANCH  12  13
ATOM     13  C   UNL     1      -1.044   0.870  23.501  0.00  0.00    +0.027 C 
BRANCH  13  14
ATOM     14  C   UNL     1      -0.470   0.502  23.966  0.00  0.00    +0.088 C 
BRANCH  14  15
ATOM     15  C   UNL     1       0.112   0.036  23.612  0.00  0.00    +0.242 C 
ATOM     16  O   UNL     1      -0.024  -0.768  23.485  0.00  0.00    -0.273 OA
ATOM     17  N   UNL     1       0.829   0.374  23.384  0.00  0.00    -0.200 NA
BRANCH  17  18
ATOM     18  C   UNL     1       1.410  -0.092  23.030  0.00  0.00    +0.143 C 
BRANCH  18  19
ATOM     19  C   UNL     1       2.150   0.231  22.859  0.00  0.00    +0.019 A 
ATOM     20  C   UNL     1       2.586  -0.052  22.218  0.00  0.00    +0.001 A 
ATOM     21  C   UNL     1       3.325   0.272  22.048  0.00  0.00    +0.020 A 
ATOM     22  C   UNL     1       3.628   0.879  22.517  0.00  0.00    +0.099 A 
ATOM     23  N   UNL     1       3.192   1.162  23.157  0.00  0.00    -0.243 NA
ATOM     24  C   UNL     1       2.452   0.838  23.328  0.00  0.00    +0.096 A 
ENDBRANCH  18  19
ENDBRANCH  17  18
ENDBRANCH  14  15
ENDBRANCH  13  14
ENDBRANCH  12  13
TORSDOF 6
ENDMDL
MODEL 5
REMARK VINA RESULT:      -8.4      2.956      4.644
REMARK  Name = 
REMARK  6 active torsions:
REMARK  status: ('A' for Active; 'I' for Inactive)
REMARK    1  A    between atoms: N_6  and  C_25
REMARK    2  A    between atoms: C_12  and  C_13
REMARK    3  A    between atoms: C_13  and  C_14
REMARK    4  A    between atoms: C_14  and  C_15
REMARK    5  A    between atoms: N_17  and  C_18
REMARK    6  A    between atoms: C_18  and  C_19
REMARK                            x       y       z     vdW  Elec       q    Type
REMARK                         _______ _______ _______ _____ _____    ______ ____
ROOT
ATOM      1  C   UNL     1       0.017  -0.188  24.439  0.00  0.00    +0.090 C 
ATOM      2  N   UNL     1      -0.770  -0.216  24.687  0.00  0.00    -0.271 NA
ATOM      3  C   UNL     1      -1.186  -0.898  24.479  0.00  0.00    +0.083 C 
ATOM      4  C   UNL     1      -0.855  -1.520  24.051  0.00  0.00    +0.035 C 
ATOM      5  C   UNL     1      -1.435  -2.098  23.951  0.00  0.00    +0.074 C 
ATOM      6  N   UNL     1      -2.126  -1.833  24.317  0.00  0.00    -0.267 NA
ATOM      7  C   UNL     1      -1.971  -1.091  24.644  0.00  0.00    +0.151 C 
ATOM      8  C   UNL     1      -2.534  -0.651  25.057  0.00  0.00    +0.257 C 
ATOM      9  O   UNL     1      -3.278  -0.998  25.129  0.00  0.00    -0.272 OA
ATOM     10  N   UNL     1      -2.450   0.092  25.407  0.00  0.00    -0.203 NA
ATOM     11  C   UNL     1      -1.782   0.577  25.431  0.00  0.00    +0.131 C 
ATOM     12  C   UNL     1      -1.035   0.439  25.111  0.00  0.00    +0.080 C 
ENDROOT
BRANCH   6  25
ATOM     25  C   UNL     1      -2.843  -2.238  24.351  0.00  0.00    +0.058 C 
ATOM     26  C   UNL     1      -3.439  -2.068  23.807  0.00  0.00    +0.016 C 
ATOM     27  C   UNL     1      -4.157  -2.473  23.841  0.00  0.00    +0.001 C 
ATOM     28  C   UNL     1      -4.279  -3.048  24.419  0.00  0.00    +0.000 C 
ATOM     29  C   UNL     1      -3.683  -3.220  24.963  0.00  0.00    +0.001 C 
ATOM     30  C   UNL     1      -2.965  -2.814  24.929  0.00  0.00    +0.016 C 
ENDBRANCH   6  25
BRANCH  12  13
ATOM     13  C   UNL     1      -0.479   1.038  25.229  0.00  0.00    +0.027 C 
BRANCH  13  14
ATOM     14  C   UNL     1      -0.598   1.599  25.822  0.00  0.00    +0.088 C 
BRANCH  14  15
ATOM     15  C   UNL     1      -0.288   2.359  25.739  0.00  0.00    +0.242 C 
ATOM     16  O   UNL     1       0.519   2.491  25.852  0.00  0.00    -0.273 OA
ATOM     17  N   UNL     1      -0.784   2.987  25.541  0.00  0.00    -0.200 NA
BRANCH  17  18
ATOM     18  C   UNL     1      -0.474   3.748  25.457  0.00  0.00    +0.143 C 
BRANCH  18  19
ATOM     19  C   UNL     1      -0.978   4.384  25.309  0.00  0.00    +0.019 A 
ATOM     20  C   UNL     1      -0.705   5.037  24.885  0.00  0.00    +0.001 A 
ATOM     21  C   UNL     1      -1.209   5.673  24.738  0.00  0.00    +0.020 A 
ATOM     22  C   UNL     1      -1.986   5.656  25.014  0.00  0.00    +0.099 A 
ATOM     23  N   UNL     1      -2.259   5.003  25.438  0.00  0.00    -0.243 NA
ATOM     24  C   UNL     1      -1.754   4.367  25.586  0.00  0.00    +0.096 A 
ENDBRANCH  18  19
ENDBRANCH  17  18
ENDBRANCH  14  15
ENDBRANCH  13  14
ENDBRANCH  12  13
TORSDOF 6
ENDMDL
MODEL 6
REMARK VINA RESULT:      -8.3      4.562      6.299
REMARK  Name = 
REMARK  6 active torsions:
REMARK  status: ('A' for Active; 'I' for Inactive)
REMARK    1  A    between atoms: N_6  and  C_25
REMARK    2  A    between atoms: C_12  and  C_13
REMARK    3  A    between atoms: C_13  and  C_14
REMARK    4  A    between atoms: C_14  and  C_15
REMARK    5  A    between atoms: N_17  and  C_18
REMARK    6  A    between atoms: C_18  and  C_19
REMARK                            x       y       z     vdW  Elec       q    Type
REMARK                         _______ _______ _______ _____ _____    ______ ____
ROOT
ATOM      1  C   UNL     1      -4.573   2.420  25.703  0.00  0.00    +0.090 C 
ATOM      2  N   UNL     1      -3.924   2.536  25.207  0.00  0.00    -0.271 NA
ATOM      3  C   UNL     1      -3.443   3.182  25.392  0.00  0.00    +0.083 C 
ATOM      4  C   UNL     1      -3.587   3.689  26.027  0.00  0.00    +0.035 C 
ATOM      5  C   UNL     1      -2.995   4.262  26.034  0.00  0.00    +0.074 C 
ATOM      6  N   UNL     1      -2.484   4.110  25.404  0.00  0.00    -0.267 NA
ATOM      7  C   UNL     1      -2.762   3.442  25.007  0.00  0.00    +0.151 C 
ATOM      8  C   UNL     1      -2.391   3.122  24.343  0.00  0.00    +0.257 C 
ATOM      9  O   UNL     1      -1.711   3.513  24.089  0.00  0.00    -0.272 OA
ATOM     10  N   UNL     1      -2.611   2.462  23.899  0.00  0.00    -0.203 NA
ATOM     11  C   UNL     1      -3.257   1.959  24.011  0.00  0.00    +0.131 C 
ATOM     12  C   UNL     1      -3.840   1.993  24.592  0.00  0.00    +0.080 C 
ENDROOT
BRANCH   6  25
ATOM     25  C   UNL     1      -1.814   4.549  25.206  0.00  0.00    +0.058 C 
ATOM     26  C   UNL     1      -1.063   4.243  25.352  0.00  0.00    +0.016 C 
ATOM     27  C   UNL     1      -0.392   4.681  25.154  0.00  0.00    +0.001 C 
ATOM     28  C   UNL     1      -0.474   5.426  24.810  0.00  0.00    +0.000 C 
ATOM     29  C   UNL     1      -1.225   5.733  24.663  0.00  0.00    +0.001 C 
ATOM     30  C   UNL     1      -1.896   5.294  24.862  0.00  0.00    +0.016 C 
ENDBRANCH   6  25
BRANCH  12  13
ATOM     13  C   UNL     1      -4.417   1.404  24.555  0.00  0.00    +0.027 C 
BRANCH  13  14
ATOM     14  C   UNL     1      -4.323   0.767  24.039  0.00  0.00    +0.088 C 
BRANCH  14  15
ATOM     15  C   UNL     1      -4.524   0.005  24.285  0.00  0.00    +0.242 C 
ATOM     16  O   UNL     1      -5.286  -0.153  24.559  0.00  0.00    -0.273 OA
ATOM     17  N   UNL     1      -3.962  -0.599  24.255  0.00  0.00    -0.200 NA
BRANCH  17  18
ATOM     18  C   UNL     1      -4.163  -1.361  24.501  0.00  0.00    +0.143 C 
BRANCH  18  19
ATOM     19  C   UNL     1      -3.595  -1.958  24.496  0.00  0.00    +0.019 A 
ATOM     20  C   UNL     1      -3.807  -2.730  24.296  0.00  0.00    +0.001 A 
ATOM     21  C   UNL     1      -3.238  -3.326  24.292  0.00  0.00    +0.020 A 
ATOM     22  C   UNL     1      -2.456  -3.152  24.488  0.00  0.00    +0.099 A 
ATOM     23  N   UNL     1      -2.243  -2.381  24.688  0.00  0.00    -0.243 NA
ATOM     24  C   UNL     1      -2.813  -1.783  24.692  0.00  0.00    +0.096 A 
ENDBRANCH  18  19
ENDBRANCH  17  18
ENDBRANCH  14  15
ENDBRANCH  13  14
ENDBRANCH  12  13
TORSDOF 6
ENDMDL
MODEL 7
REMARK VINA RESULT:      -8.3      3.311      5.634
REMARK  Name = 
REMARK  6 active torsions:
REMARK  status: ('A' for Active; 'I' for Inactive)
REMARK    1  A    between atoms: N_6  and  C_25
REMARK    2  A    between atoms: C_12  and  C_13
REMARK    3  A    between atoms: C_13  and  C_14
REMARK    4  A    between atoms: C_14  and  C_15
REMARK    5  A    between atoms: N_17  and  C_18
REMARK    6  A    between atoms: C_18  and  C_19
REMARK                            x       y       z     vdW  Elec       q    Type
REMARK                         _______ _______ _______ _____ _____    ______ ____
ROOT
ATOM      1  C   UNL     1      -0.959   0.600  23.571  0.00  0.00    +0.090 C 
ATOM      2  N   UNL     1      -0.950   1.070  24.249  0.00  0.00    -0.271 NA
ATOM      3  C   UNL     1      -1.110   1.871  24.131  0.00  0.00    +0.083 C 
ATOM      4  C   UNL     1      -1.269   2.199  23.391  0.00  0.00    +0.035 C 
ATOM      5  C   UNL     1      -1.399   3.007  23.493  0.00  0.00    +0.074 C 
ATOM      6  N   UNL     1      -1.320   3.179  24.297  0.00  0.00    -0.267 NA
ATOM      7  C   UNL     1      -1.141   2.477  24.691  0.00  0.00    +0.151 C 
ATOM      8  C   UNL     1      -1.022   2.431  25.506  0.00  0.00    +0.257 C 
ATOM      9  O   UNL     1      -1.092   3.141  25.919  0.00  0.00    -0.272 OA
ATOM     10  N   UNL     1      -0.841   1.768  25.963  0.00  0.00    -0.203 NA
ATOM     11  C   UNL     1      -0.735   0.987  25.717  0.00  0.00    +0.131 C 
ATOM     12  C   UNL     1      -0.784   0.677  24.955  0.00  0.00    +0.080 C 
ENDROOT
BRANCH   6  25
ATOM     25  C   UNL     1      -1.406   3.923  24.644  0.00  0.00    +0.058 C 
ATOM     26  C   UNL     1      -0.765   4.440  24.672  0.00  0.00    +0.016 C 
ATOM     27  C   UNL     1      -0.850   5.184  25.020  0.00  0.00    +0.001 C 
ATOM     28  C   UNL     1      -1.576   5.409  25.339  0.00  0.00    +0.000 C 
ATOM     29  C   UNL     1      -2.218   4.891  25.311  0.00  0.00    +0.001 C 
ATOM     30  C   UNL     1      -2.132   4.147  24.963  0.00  0.00    +0.016 C 
ENDBRANCH   6  25
BRANCH  12  13
ATOM     13  C   UNL     1      -0.648  -0.134  24.889  0.00  0.00    +0.027 C 
BRANCH  13  14
ATOM     14  C   UNL     1      -0.896  -0.643  25.489  0.00  0.00    +0.088 C 
BRANCH  14  15
ATOM     15  C   UNL     1      -1.181  -1.395  25.301  0.00  0.00    +0.242 C 
ATOM     16  O   UNL     1      -0.664  -2.037  25.272  0.00  0.00    -0.273 OA
ATOM     17  N   UNL     1      -1.983  -1.503  25.141  0.00  0.00    -0.200 NA
BRANCH  17  18
ATOM     18  C   UNL     1      -2.268  -2.254  24.953  0.00  0.00    +0.143 C 
BRANCH  18  19
ATOM     19  C   UNL     1      -3.003  -2.336  24.586  0.00  0.00    +0.019 A 
ATOM     20  C   UNL     1      -3.534  -1.705  24.581  0.00  0.00    +0.001 A 
ATOM     21  C   UNL     1      -4.268  -1.787  24.215  0.00  0.00    +0.020 A 
ATOM     22  C   UNL     1      -4.472  -2.500  23.853  0.00  0.00    +0.099 A 
ATOM     23  N   UNL     1      -3.940  -3.131  23.858  0.00  0.00    -0.243 NA
ATOM     24  C   UNL     1      -3.205  -3.049  24.225  0.00  0.00    +0.096 A 
ENDBRANCH  18  19
ENDBRANCH  17  18
ENDBRANCH  14  15
ENDBRANCH  13  14
ENDBRANCH  12  13
TORSDOF 6
ENDMDL
