MODEL 1
REMARK VINA RESULT:      -8.6      0.000      0.000
REMARK  Name = 
REMARK  5 active torsions:
REMARK  status: ('A' for Active; 'I' for Inactive)
REMARK    1  A    between atoms: N_5  and  C_8
REMARK    2  A    between atoms: C_11  and  C_14
REMARK    3  A    between atoms: C_17  and  C_19
REMARK    4  A    between atoms: N_23  and  C_24
REMARK    5  A    between atoms: C_24  and  C_25
REMARK                            x       y       z     vdW  Elec       q    Type
REMARK                         _______ _______ _______ _____ _____    ______ ____
ROOT
ATOM     14  C   UNL     1      -1.361   0.105  24.623  0.00  0.00    +0.205 A 
ATOM     15  N   UNL     1      -1.490  -0.129  25.404  0.00  0.00    -0.056 NA
ATOM     16  O   UNL     1      -2.302  -0.095  25.550  0.00  0.00    -0.336 OA
ATOM     17  C   UNL     1      -2.674   0.160  24.860  0.00  0.00    +0.251 A 
ATOM     18  N   UNL     1      -2.093   0.284  24.287  0.00  0.00    -0.190 NA
ENDROOT
BRANCH  14  11
ATOM      8  C   UNL     1       0.835   0.245  23.490  0.00  0.00    +0.132 A 
ATOM      9  C   UNL     1       0.446   0.934  23.724  0.00  0.00    +0.034 A 
ATOM     10  C   UNL     1      -0.286   0.888  24.101  0.00  0.00    +0.008 A 
ATOM     11  C   UNL     1      -0.629   0.152  24.246  0.00  0.00    +0.058 A 
ATOM     12  C   UNL     1      -0.241  -0.538  24.013  0.00  0.00    +0.103 A 
ATOM     13  N   UNL     1       0.491  -0.491  23.635  0.00  0.00    -0.229 NA
BRANCH   8   5
ATOM      1  C   UNL     1       3.763   0.433  21.980  0.00  0.00    +0.090 C 
ATOM      2  N   UNL     1       3.031   0.386  22.357  0.00  0.00    -0.269 NA
ATOM      3  C   UNL     1       2.450  -0.124  22.070  0.00  0.00    +0.094 C 
ATOM      4  C   UNL     1       1.718  -0.171  22.448  0.00  0.00    +0.109 C 
ATOM      5  N   UNL     1       1.567   0.292  23.113  0.00  0.00    -0.290 N 
ATOM      6  C   UNL     1       2.147   0.803  23.401  0.00  0.00    +0.109 C 
ATOM      7  C   UNL     1       2.879   0.850  23.023  0.00  0.00    +0.094 C 
ENDBRANCH   8   5
ENDBRANCH  14  11
BRANCH  17  19
ATOM     19  C   UNL     1      -3.485   0.273  24.759  0.00  0.00    +0.138 C 
ATOM     20  C   UNL     1      -4.033  -0.309  24.550  0.00  0.00    +0.027 C 
ATOM     21  C   UNL     1      -4.777   0.044  24.512  0.00  0.00    +0.019 C 
ATOM     22  C   UNL     1      -4.690   0.844  24.697  0.00  0.00    +0.073 C 
ATOM     23  N   UNL     1      -3.891   0.985  24.850  0.00  0.00    -0.263 NA
BRANCH  23  24
ATOM     24  C   UNL     1      -3.558   1.710  25.057  0.00  0.00    +0.101 C 
BRANCH  24  25
ATOM     25  C   UNL     1      -4.025   2.390  25.071  0.00  0.00    +0.013 A 
ATOM     26  C   UNL     1      -4.020   2.908  24.429  0.00  0.00    +0.000 A 
ATOM     27  C   UNL     1      -4.487   3.588  24.443  0.00  0.00    +0.020 A 
ATOM     28  C   UNL     1      -4.959   3.750  25.100  0.00  0.00    +0.099 A 
ATOM     29  N   UNL     1      -4.964   3.232  25.742  0.00  0.00    -0.243 NA
ATOM     30  C   UNL     1      -4.498   2.552  25.728  0.00  0.00    +0.096 A 
ENDBRANCH  24  25
ENDBRANCH  23  24
ENDBRANCH  17  19
TORSDOF 5
ENDMDL
MODEL 2
REMARK VINA RESULT:      -8.3      3.373      4.925
REMARK  Name = 
REMARK  5 active torsions:
REMARK  status: ('A' for Active; 'I' for Inactive)
REMARK    1  A    between atoms: N_5  and  C_8
REMARK    2  A    between atoms: C_11  and  C_14
REMARK    3  A    between atoms: C_17  and  C_19
REMARK    4  A    between atoms: N_23  and  C_24
REMARK    5  A    between atoms: C_24  and  C_25
REMARK                            x       y       z     vdW  Elec       q    Type
REMARK                         _______ _______ _______ _____ _____    ______ ____
ROOT
ATOM     14  C   UNL     1      -4.171   1.764  24.781  0.00  0.00    +0.205 A 
ATOM     15  N   UNL     1      -4.676   2.263  24.359  0.00  0.00    -0.056 NA
ATOM     16  O   UNL     1      -4.571   3.031  24.644  0.00  0.00    -0.336 OA
ATOM     17  C   UNL     1      -4.002   3.006  25.240  0.00  0.00    +0.251 A 
ATOM     18  N   UNL     1      -3.755   2.223  25.325  0.00  0.00    -0.190 NA
ENDROOT
BRANCH  14  11
ATOM      8  C   UNL     1      -3.947  -0.680  24.465  0.00  0.00    +0.132 A 
ATOM      9  C   UNL     1      -4.401  -0.384  25.087  0.00  0.00    +0.034 A 
ATOM     10  C   UNL     1      -4.475   0.431  25.192  0.00  0.00    +0.008 A 
ATOM     11  C   UNL     1      -4.096   0.949  24.676  0.00  0.00    +0.058 A 
ATOM     12  C   UNL     1      -3.642   0.654  24.053  0.00  0.00    +0.103 A 
ATOM     13  N   UNL     1      -3.567  -0.161  23.948  0.00  0.00    -0.229 NA
BRANCH   8   5
ATOM      1  C   UNL     1      -3.648  -3.940  24.045  0.00  0.00    +0.090 C 
ATOM      2  N   UNL     1      -3.723  -3.125  24.150  0.00  0.00    -0.269 NA
ATOM      3  C   UNL     1      -4.244  -2.694  23.678  0.00  0.00    +0.094 C 
ATOM      4  C   UNL     1      -4.319  -1.879  23.783  0.00  0.00    +0.109 C 
ATOM      5  N   UNL     1      -3.872  -1.495  24.360  0.00  0.00    -0.290 N 
ATOM      6  C   UNL     1      -3.350  -1.926  24.833  0.00  0.00    +0.109 C 
ATOM      7  C   UNL     1      -3.275  -2.740  24.728  0.00  0.00    +0.094 C 
ENDBRANCH   8   5
ENDBRANCH  14  11
BRANCH  17  19
ATOM     19  C   UNL     1      -3.727   3.650  25.676  0.00  0.00    +0.138 C 
ATOM     20  C   UNL     1      -4.069   3.950  26.365  0.00  0.00    +0.027 C 
ATOM     21  C   UNL     1      -3.616   4.593  26.615  0.00  0.00    +0.019 C 
ATOM     22  C   UNL     1      -2.995   4.691  26.080  0.00  0.00    +0.073 C 
ATOM     23  N   UNL     1      -3.064   4.108  25.500  0.00  0.00    -0.263 NA
BRANCH  23  24
ATOM     24  C   UNL     1      -2.558   4.002  24.857  0.00  0.00    +0.101 C 
BRANCH  24  25
ATOM     25  C   UNL     1      -1.781   4.276  24.894  0.00  0.00    +0.013 A 
ATOM     26  C   UNL     1      -1.616   5.069  24.738  0.00  0.00    +0.000 A 
ATOM     27  C   UNL     1      -0.838   5.344  24.775  0.00  0.00    +0.020 A 
ATOM     28  C   UNL     1      -0.227   4.824  24.967  0.00  0.00    +0.099 A 
ATOM     29  N   UNL     1      -0.392   4.031  25.123  0.00  0.00    -0.243 NA
ATOM     30  C   UNL     1      -1.169   3.757  25.086  0.00  0.00    +0.096 A 
ENDBRANCH  24  25
ENDBRANCH  23  24
ENDBRANCH  17  19
TORSDOF 5
ENDMDL
MODEL 3
REMARK VINA RESULT:      -8.2      2.847      4.620
REMARK  Name = 
REMARK  5 active torsions:
REMARK  status: ('A' for Active; 'I' for Inactive)
REMARK    1  A    between atoms: N_5  and  C_8
REMARK    2  A    between atoms: C_11  and  C_14
REMARK    3  A    between atoms: C_17  and  C_19
REMARK    4  A    between atoms: N_23  and  C_24
REMARK    5  A    between atoms: C_24  and  C_25
REMARK                            x       y       z     vdW  Elec       q    Type
REMARK                         _______ _______ _______ _____ _____    ______ ____
ROOT
ATOM     14  C   UNL     1      -1.134   0.477  25.573  0.00  0.00    +0.205 A 
ATOM     15  N   UNL     1      -0.992   0.071  26.278  0.00  0.00    -0.056 NA
ATOM     16  O   UNL     1      -0.994  -0.737  26.112  0.00  0.00    -0.336 OA
ATOM     17  C   UNL     1      -1.138  -0.831  25.305  0.00  0.00    +0.251 A 
ATOM     18  N   UNL     1      -1.225  -0.081  24.972  0.00  0.00    -0.190 NA
ENDROOT
BRANCH  14  11
ATOM      8  C   UNL     1      -1.269   2.934  25.312  0.00  0.00    +0.132 A 
ATOM      9  C   UNL     1      -0.673   2.600  25.775  0.00  0.00    +0.034 A 
ATOM     10  C   UNL     1      -0.629   1.781  25.862  0.00  0.00    +0.008 A 
ATOM     11  C   UNL     1      -1.179   1.296  25.486  0.00  0.00    +0.058 A 
ATOM     12  C   UNL     1      -1.775   1.629  25.023  0.00  0.00    +0.103 A 
ATOM     13  N   UNL     1      -1.820   2.448  24.935  0.00  0.00    -0.229 NA
BRANCH   8   5
ATOM      1  C   UNL     1      -1.447   6.211  24.962  0.00  0.00    +0.090 C 
ATOM      2  N   UNL     1      -1.403   5.392  25.050  0.00  0.00    -0.269 NA
ATOM      3  C   UNL     1      -0.739   4.983  24.780  0.00  0.00    +0.094 C 
ATOM      4  C   UNL     1      -0.694   4.164  24.867  0.00  0.00    +0.109 C 
ATOM      5  N   UNL     1      -1.313   3.753  25.224  0.00  0.00    -0.290 N 
ATOM      6  C   UNL     1      -1.978   4.161  25.495  0.00  0.00    +0.109 C 
ATOM      7  C   UNL     1      -2.023   4.980  25.407  0.00  0.00    +0.094 C 
ENDBRANCH   8   5
ENDBRANCH  14  11
BRANCH  17  19
ATOM     19  C   UNL     1      -1.186  -1.549  24.901  0.00  0.00    +0.138 C 
ATOM     20  C   UNL     1      -0.558  -1.948  24.544  0.00  0.00    +0.027 C 
ATOM     21  C   UNL     1      -0.854  -2.639  24.206  0.00  0.00    +0.019 C 
ATOM     22  C   UNL     1      -1.666  -2.668  24.353  0.00  0.00    +0.073 C 
ATOM     23  N   UNL     1      -1.871  -1.993  24.783  0.00  0.00    -0.263 NA
BRANCH  23  24
ATOM     24  C   UNL     1      -2.627  -1.799  25.048  0.00  0.00    +0.101 C 
BRANCH  24  25
ATOM     25  C   UNL     1      -3.289  -2.036  24.617  0.00  0.00    +0.013 A 
ATOM     26  C   UNL     1      -3.710  -1.485  24.170  0.00  0.00    +0.000 A 
ATOM     27  C   UNL     1      -4.372  -1.722  23.739  0.00  0.00    +0.020 A 
ATOM     28  C   UNL     1      -4.613  -2.511  23.754  0.00  0.00    +0.099 A 
ATOM     29  N   UNL     1      -4.192  -3.062  24.201  0.00  0.00    -0.243 NA
ATOM     30  C   UNL     1      -3.531  -2.825  24.632  0.00  0.00    +0.096 A 
ENDBRANCH  24  25
ENDBRANCH  23  24
ENDBRANCH  17  19
TORSDOF 5
ENDMDL
MODEL 4
REMARK VINA RESULT:      -7.3      1.446      2.220
REMARK  Name = 
REMARK  5 active torsions:
REMARK  status: ('A' for Active; 'I' for Inactive)
REMARK    1  A    between atoms: N_5  and  C_8
REMARK    2  A    between atoms: C_11  and  C_14
REMARK    3  A    between atoms: C_17  and  C_19
REMARK    4  A    between atoms: N_23  and  C_24
REMARK    5  A    between atoms: C_24  and  C_25
REMARK                            x       y       z     vdW  Elec       q    Type
REMARK                         _______ _______ _______ _____ _____    ______ ____
ROOT
ATOM     14  C   UNL     1      -1.205   2.390  24.946  0.00  0.00    +0.205 A 
ATOM     15  N   UNL     1      -1.283   2.470  25.764  0.00  0.00    -0.056 NA
ATOM     16  O   UNL     1      -1.973   2.899  25.913  0.00  0.00    -0.336 OA
ATOM     17  C   UNL     1      -2.321   3.083  25.188  0.00  0.00    +0.251 A 
ATOM     18  N   UNL     1      -1.846   2.768  24.591  0.00  0.00    -0.190 NA
ENDROOT
BRANCH  14  11
ATOM      8  C   UNL     1       0.630   1.219  23.768  0.00  0.00    +0.132 A 
ATOM      9  C   UNL     1      -0.130   0.898  23.771  0.00  0.00    +0.034 A 
ATOM     10  C   UNL     1      -0.742   1.289  24.163  0.00  0.00    +0.008 A 
ATOM     11  C   UNL     1      -0.594   2.000  24.553  0.00  0.00    +0.058 A 
ATOM     12  C   UNL     1       0.166   2.321  24.552  0.00  0.00    +0.103 A 
ATOM     13  N   UNL     1       0.778   1.931  24.159  0.00  0.00    -0.229 NA
BRANCH   8   5
ATOM      1  C   UNL     1       3.076  -0.343  22.198  0.00  0.00    +0.090 C 
ATOM      2  N   UNL     1       2.465   0.048  22.591  0.00  0.00    -0.269 NA
ATOM      3  C   UNL     1       1.697  -0.253  22.561  0.00  0.00    +0.094 C 
ATOM      4  C   UNL     1       1.085   0.138  22.954  0.00  0.00    +0.109 C 
ATOM      5  N   UNL     1       1.241   0.829  23.376  0.00  0.00    -0.290 N 
ATOM      6  C   UNL     1       2.009   1.130  23.406  0.00  0.00    +0.109 C 
ATOM      7  C   UNL     1       2.621   0.740  23.013  0.00  0.00    +0.094 C 
ENDBRANCH   8   5
ENDBRANCH  14  11
BRANCH  17  19
ATOM     19  C   UNL     1      -3.020   3.506  25.079  0.00  0.00    +0.138 C 
ATOM     20  C   UNL     1      -3.077   4.305  24.880  0.00  0.00    +0.027 C 
ATOM     21  C   UNL     1      -3.876   4.499  24.828  0.00  0.00    +0.019 C 
ATOM     22  C   UNL     1      -4.315   3.820  24.995  0.00  0.00    +0.073 C 
ATOM     23  N   UNL     1      -3.785   3.206  25.150  0.00  0.00    -0.263 NA
BRANCH  23  24
ATOM     24  C   UNL     1      -3.986   2.430  25.342  0.00  0.00    +0.101 C 
BRANCH  24  25
ATOM     25  C   UNL     1      -4.772   2.185  25.304  0.00  0.00    +0.013 A 
ATOM     26  C   UNL     1      -5.041   1.759  24.651  0.00  0.00    +0.000 A 
ATOM     27  C   UNL     1      -5.828   1.514  24.612  0.00  0.00    +0.020 A 
ATOM     28  C   UNL     1      -6.346   1.696  25.228  0.00  0.00    +0.099 A 
ATOM     29  N   UNL     1      -6.078   2.122  25.881  0.00  0.00    -0.243 NA
ATOM     30  C   UNL     1      -5.291   2.367  25.919  0.00  0.00    +0.096 A 
ENDBRANCH  24  25
ENDBRANCH  23  24
ENDBRANCH  17  19
TORSDOF 5
ENDMDL
MODEL 5
REMARK VINA RESULT:      -7.1      1.247      2.615
REMARK  Name = 
REMARK  5 active torsions:
REMARK  status: ('A' for Active; 'I' for Inactive)
REMARK    1  A    between atoms: N_5  and  C_8
REMARK    2  A    between atoms: C_11  and  C_14
REMARK    3  A    between atoms: C_17  and  C_19
REMARK    4  A    between atoms: N_23  and  C_24
REMARK    5  A    between atoms: C_24  and  C_25
REMARK                            x       y       z     vdW  Elec       q    Type
REMARK                         _______ _______ _______ _____ _____    ______ ____
ROOT
ATOM     14  C   UNL     1      -1.069   1.019  24.609  0.00  0.00    +0.205 A 
ATOM     15  N   UNL     1      -1.199   1.376  25.341  0.00  0.00    -0.056 NA
ATOM     16  O   UNL     1      -2.009   1.346  25.499  0.00  0.00    -0.336 OA
ATOM     17  C   UNL     1      -2.378   0.970  24.865  0.00  0.00    +0.251 A 
ATOM     18  N   UNL     1      -1.797   0.768  24.314  0.00  0.00    -0.190 NA
ENDROOT
BRANCH  14  11
ATOM      8  C   UNL     1       1.123   0.749  23.492  0.00  0.00    +0.132 A 
ATOM      9  C   UNL     1       0.580   0.129  23.490  0.00  0.00    +0.034 A 
ATOM     10  C   UNL     1      -0.151   0.219  23.862  0.00  0.00    +0.008 A 
ATOM     11  C   UNL     1      -0.338   0.929  24.236  0.00  0.00    +0.058 A 
ATOM     12  C   UNL     1       0.205   1.550  24.239  0.00  0.00    +0.103 A 
ATOM     13  N   UNL     1       0.936   1.460  23.867  0.00  0.00    -0.229 NA
BRANCH   8   5
ATOM      1  C   UNL     1       4.046   0.389  22.003  0.00  0.00    +0.090 C 
ATOM      2  N   UNL     1       3.315   0.479  22.375  0.00  0.00    -0.269 NA
ATOM      3  C   UNL     1       2.691  -0.026  22.187  0.00  0.00    +0.094 C 
ATOM      4  C   UNL     1       1.960   0.064  22.559  0.00  0.00    +0.109 C 
ATOM      5  N   UNL     1       1.854   0.659  23.120  0.00  0.00    -0.290 N 
ATOM      6  C   UNL     1       2.478   1.165  23.309  0.00  0.00    +0.109 C 
ATOM      7  C   UNL     1       3.209   1.075  22.937  0.00  0.00    +0.094 C 
ENDBRANCH   8   5
ENDBRANCH  14  11
BRANCH  17  19
ATOM     19  C   UNL     1      -3.186   0.822  24.793  0.00  0.00    +0.138 C 
ATOM     20  C   UNL     1      -3.772   1.386  24.653  0.00  0.00    +0.027 C 
ATOM     21  C   UNL     1      -4.499   0.997  24.621  0.00  0.00    +0.019 C 
ATOM     22  C   UNL     1      -4.363   0.192  24.741  0.00  0.00    +0.073 C 
ATOM     23  N   UNL     1      -3.551   0.084  24.847  0.00  0.00    -0.263 NA
BRANCH  23  24
ATOM     24  C   UNL     1      -3.172  -0.636  24.984  0.00  0.00    +0.101 C 
BRANCH  24  25
ATOM     25  C   UNL     1      -3.496  -1.335  24.692  0.00  0.00    +0.013 A 
ATOM     26  C   UNL     1      -3.471  -2.023  25.146  0.00  0.00    +0.000 A 
ATOM     27  C   UNL     1      -3.795  -2.724  24.853  0.00  0.00    +0.020 A 
ATOM     28  C   UNL     1      -4.145  -2.735  24.105  0.00  0.00    +0.099 A 
ATOM     29  N   UNL     1      -4.170  -2.047  23.652  0.00  0.00    -0.243 NA
ATOM     30  C   UNL     1      -3.846  -1.347  23.944  0.00  0.00    +0.096 A 
ENDBRANCH  24  25
ENDBRANCH  23  24
ENDBRANCH  17  19
TORSDOF 5
ENDMDL
MODEL 6
REMARK VINA RESULT:      -6.8      2.688      4.156
REMARK  Name = 
REMARK  5 active torsions:
REMARK  status: ('A' for Active; 'I' for Inactive)
REMARK    1  A    between atoms: N_5  and  C_8
REMARK    2  A    between atoms: C_11  and  C_14
REMARK    3  A    between atoms: C_17  and  C_19
REMARK    4  A    between atoms: N_23  and  C_24
REMARK    5  A    between atoms: C_24  and  C_25
REMARK                            x       y       z     vdW  Elec       q    Type
REMARK                         _______ _______ _______ _____ _____    ______ ____
ROOT
ATOM     14  C   UNL     1      -0.979   1.467  25.170  0.00  0.00    +0.205 A 
ATOM     15  N   UNL     1      -0.212   1.620  25.433  0.00  0.00    -0.056 NA
ATOM     16  O   UNL     1      -0.111   2.439  25.461  0.00  0.00    -0.336 OA
ATOM     17  C   UNL     1      -0.815   2.791  25.216  0.00  0.00    +0.251 A 
ATOM     18  N   UNL     1      -1.351   2.191  25.035  0.00  0.00    -0.190 NA
ENDROOT
BRANCH  14  11
ATOM      8  C   UNL     1      -1.985  -0.770  24.841  0.00  0.00    +0.132 A 
ATOM      9  C   UNL     1      -1.664  -0.565  25.572  0.00  0.00    +0.034 A 
ATOM     10  C   UNL     1      -1.328   0.181  25.682  0.00  0.00    +0.008 A 
ATOM     11  C   UNL     1      -1.314   0.721  25.060  0.00  0.00    +0.058 A 
ATOM     12  C   UNL     1      -1.635   0.518  24.328  0.00  0.00    +0.103 A 
ATOM     13  N   UNL     1      -1.970  -0.228  24.218  0.00  0.00    -0.229 NA
BRANCH   8   5
ATOM      1  C   UNL     1      -3.326  -3.753  24.402  0.00  0.00    +0.090 C 
ATOM      2  N   UNL     1      -2.990  -3.008  24.512  0.00  0.00    -0.269 NA
ATOM      3  C   UNL     1      -3.461  -2.374  24.751  0.00  0.00    +0.094 C 
ATOM      4  C   UNL     1      -3.126  -1.628  24.861  0.00  0.00    +0.109 C 
ATOM      5  N   UNL     1      -2.320  -1.516  24.731  0.00  0.00    -0.290 N 
ATOM      6  C   UNL     1      -1.847  -2.149  24.492  0.00  0.00    +0.109 C 
ATOM      7  C   UNL     1      -2.183  -2.895  24.382  0.00  0.00    +0.094 C 
ENDBRANCH   8   5
ENDBRANCH  14  11
BRANCH  17  19
ATOM     19  C   UNL     1      -0.958   3.602  25.160  0.00  0.00    +0.138 C 
ATOM     20  C   UNL     1      -0.462   4.158  24.806  0.00  0.00    +0.027 C 
ATOM     21  C   UNL     1      -0.819   4.899  24.875  0.00  0.00    +0.019 C 
ATOM     22  C   UNL     1      -1.536   4.800  25.272  0.00  0.00    +0.073 C 
ATOM     23  N   UNL     1      -1.621   3.998  25.448  0.00  0.00    -0.263 NA
BRANCH  23  24
ATOM     24  C   UNL     1      -2.259   3.654  25.843  0.00  0.00    +0.101 C 
BRANCH  24  25
ATOM     25  C   UNL     1      -3.028   3.903  25.680  0.00  0.00    +0.013 A 
ATOM     26  C   UNL     1      -3.467   4.290  26.261  0.00  0.00    +0.000 A 
ATOM     27  C   UNL     1      -4.237   4.539  26.099  0.00  0.00    +0.020 A 
ATOM     28  C   UNL     1      -4.567   4.402  25.355  0.00  0.00    +0.099 A 
ATOM     29  N   UNL     1      -4.127   4.016  24.774  0.00  0.00    -0.243 NA
ATOM     30  C   UNL     1      -3.358   3.766  24.936  0.00  0.00    +0.096 A 
ENDBRANCH  24  25
ENDBRANCH  23  24
ENDBRANCH  17  19
TORSDOF 5
ENDMDL
MODEL 7
REMARK VINA RESULT:      -6.8      1.028      6.030
REMARK  Name = 
REMARK  5 active torsions:
REMARK  status: ('A' for Active; 'I' for Inactive)
REMARK    1  A    between atoms: N_5  and  C_8
REMARK    2  A    between atoms: C_11  and  C_14
REMARK    3  A    between atoms: C_17  and  C_19
REMARK    4  A    between atoms: N_23  and  C_24
REMARK    5  A    between atoms: C_24  and  C_25
REMARK                            x       y       z     vdW  Elec       q    Type
REMARK                         _______ _______ _______ _____ _____    ______ ____
ROOT
ATOM     14  C   UNL     1      -2.969   0.064  24.635  0.00  0.00    +0.205 A 
ATOM     15  N   UNL     1      -3.204  -0.604  24.211  0.00  0.00    -0.056 NA
ATOM     16  O   UNL     1      -2.567  -1.128  24.187  0.00  0.00    -0.336 OA
ATOM     17  C   UNL     1      -1.938  -0.784  24.596  0.00  0.00    +0.251 A 
ATOM     18  N   UNL     1      -2.187  -0.047  24.873  0.00  0.00    -0.190 NA
ENDROOT
BRANCH  14  11
ATOM      8  C   UNL     1      -4.366   2.052  25.109  0.00  0.00    +0.132 A 
ATOM      9  C   UNL     1      -4.711   1.304  25.071  0.00  0.00    +0.034 A 
ATOM     10  C   UNL     1      -4.246   0.641  24.913  0.00  0.00    +0.008 A 
ATOM     11  C   UNL     1      -3.434   0.727  24.793  0.00  0.00    +0.058 A 
ATOM     12  C   UNL     1      -3.088   1.475  24.831  0.00  0.00    +0.103 A 
ATOM     13  N   UNL     1      -3.553   2.137  24.989  0.00  0.00    -0.229 NA
BRANCH   8   5
ATOM      1  C   UNL     1      -6.228   4.701  25.741  0.00  0.00    +0.090 C 
ATOM      2  N   UNL     1      -5.763   4.039  25.583  0.00  0.00    -0.269 NA
ATOM      3  C   UNL     1      -5.005   4.132  25.271  0.00  0.00    +0.094 C 
ATOM      4  C   UNL     1      -4.539   3.469  25.113  0.00  0.00    +0.109 C 
ATOM      5  N   UNL     1      -4.831   2.714  25.267  0.00  0.00    -0.290 N 
ATOM      6  C   UNL     1      -5.589   2.620  25.579  0.00  0.00    +0.109 C 
ATOM      7  C   UNL     1      -6.055   3.282  25.737  0.00  0.00    +0.094 C 
ENDBRANCH   8   5
ENDBRANCH  14  11
BRANCH  17  19
ATOM     19  C   UNL     1      -1.192  -1.117  24.709  0.00  0.00    +0.138 C 
ATOM     20  C   UNL     1      -1.002  -1.705  25.256  0.00  0.00    +0.027 C 
ATOM     21  C   UNL     1      -0.198  -1.873  25.180  0.00  0.00    +0.019 C 
ATOM     22  C   UNL     1       0.109  -1.389  24.586  0.00  0.00    +0.073 C 
ATOM     23  N   UNL     1      -0.506  -0.922  24.295  0.00  0.00    -0.263 NA
BRANCH  23  24
ATOM     24  C   UNL     1      -0.445  -0.359  23.695  0.00  0.00    +0.101 C 
BRANCH  24  25
ATOM     25  C   UNL     1       0.294  -0.062  23.482  0.00  0.00    +0.013 A 
ATOM     26  C   UNL     1       0.574   0.634  23.826  0.00  0.00    +0.000 A 
ATOM     27  C   UNL     1       1.314   0.931  23.612  0.00  0.00    +0.020 A 
ATOM     28  C   UNL     1       1.773   0.532  23.054  0.00  0.00    +0.099 A 
ATOM     29  N   UNL     1       1.493  -0.163  22.710  0.00  0.00    -0.243 NA
ATOM     30  C   UNL     1       0.754  -0.460  22.924  0.00  0.00    +0.096 A 
ENDBRANCH  24  25
ENDBRANCH  23  24
ENDBRANCH  17  19
TORSDOF 5
ENDMDL
MODEL 8
REMARK VINA RESULT:      -6.6      2.931      4.769
REMARK  Name = 
REMARK  5 active torsions:
REMARK  status: ('A' for Active; 'I' for Inactive)
REMARK    1  A    between atoms: N_5  and  C_8
REMARK    2  A    between atoms: C_11  and  C_14
REMARK    3  A    between atoms: C_17  and  C_19
REMARK    4  A    between atoms: N_23  and  C_24
REMARK    5  A    between atoms: C_24  and  C_25
REMARK                            x       y       z     vdW  Elec       q    Type
REMARK                         _______ _______ _______ _____ _____    ______ ____
ROOT
ATOM     14  C   UNL     1      -3.740   1.005  24.857  0.00  0.00    +0.205 A 
ATOM     15  N   UNL     1      -4.472   0.873  25.215  0.00  0.00    -0.056 NA
ATOM     16  O   UNL     1      -4.693   0.092  25.063  0.00  0.00    -0.336 OA
ATOM     17  C   UNL     1      -4.098  -0.257  24.611  0.00  0.00    +0.251 A 
ATOM     18  N   UNL     1      -3.510   0.307  24.483  0.00  0.00    -0.190 NA
ENDROOT
BRANCH  14  11
ATOM      8  C   UNL     1      -2.465   3.126  24.896  0.00  0.00    +0.132 A 
ATOM      9  C   UNL     1      -3.122   3.048  24.404  0.00  0.00    +0.034 A 
ATOM     10  C   UNL     1      -3.547   2.341  24.391  0.00  0.00    +0.008 A 
ATOM     11  C   UNL     1      -3.315   1.712  24.870  0.00  0.00    +0.058 A 
ATOM     12  C   UNL     1      -2.658   1.788  25.363  0.00  0.00    +0.103 A 
ATOM     13  N   UNL     1      -2.233   2.495  25.376  0.00  0.00    -0.229 NA
BRANCH   8   5
ATOM      1  C   UNL     1      -0.764   5.953  24.948  0.00  0.00    +0.090 C 
ATOM      2  N   UNL     1      -1.189   5.246  24.935  0.00  0.00    -0.269 NA
ATOM      3  C   UNL     1      -0.842   4.561  24.635  0.00  0.00    +0.094 C 
ATOM      4  C   UNL     1      -1.267   3.854  24.622  0.00  0.00    +0.109 C 
ATOM      5  N   UNL     1      -2.039   3.833  24.909  0.00  0.00    -0.290 N 
ATOM      6  C   UNL     1      -2.388   4.518  25.210  0.00  0.00    +0.109 C 
ATOM      7  C   UNL     1      -1.962   5.224  25.223  0.00  0.00    +0.094 C 
ENDBRANCH   8   5
ENDBRANCH  14  11
BRANCH  17  19
ATOM     19  C   UNL     1      -4.092  -1.034  24.334  0.00  0.00    +0.138 C 
ATOM     20  C   UNL     1      -4.586  -1.345  23.751  0.00  0.00    +0.027 C 
ATOM     21  C   UNL     1      -4.391  -2.140  23.648  0.00  0.00    +0.019 C 
ATOM     22  C   UNL     1      -3.776  -2.321  24.168  0.00  0.00    +0.073 C 
ATOM     23  N   UNL     1      -3.592  -1.637  24.592  0.00  0.00    -0.263 NA
BRANCH  23  24
ATOM     24  C   UNL     1      -3.009  -1.569  25.172  0.00  0.00    +0.101 C 
BRANCH  24  25
ATOM     25  C   UNL     1      -2.258  -1.882  25.041  0.00  0.00    +0.013 A 
ATOM     26  C   UNL     1      -1.588  -1.432  25.211  0.00  0.00    +0.000 A 
ATOM     27  C   UNL     1      -0.836  -1.746  25.079  0.00  0.00    +0.020 A 
ATOM     28  C   UNL     1      -0.755  -2.510  24.778  0.00  0.00    +0.099 A 
ATOM     29  N   UNL     1      -1.424  -2.960  24.609  0.00  0.00    -0.243 NA
ATOM     30  C   UNL     1      -2.176  -2.647  24.740  0.00  0.00    +0.096 A 
ENDBRANCH  24  25
ENDBRANCH  23  24
ENDBRANCH  17  19
TORSDOF 5
ENDMDL
MODEL 9
REMARK VINA RESULT:      -6.3     14.516     15.513
REMARK  Name = 
REMARK  5 active torsions:
REMARK  status: ('A' for Active; 'I' for Inactive)
REMARK    1  A    between atoms: N_5  and  C_8
REMARK    2  A    between atoms: C_11  and  C_14
REMARK    3  A    between atoms: C_17  and  C_19
REMARK    4  A    between atoms: N_23  and  C_24
REMARK    5  A    between atoms: C_24  and  C_25
REMARK                            x       y       z     vdW  Elec       q    Type
REMARK                         _______ _______ _______ _____ _____    ______ ____
ROOT
ATOM     14  C   UNL     1      -6.667 -10.150  14.261  0.00  0.00    +0.205 A 
ATOM     15  N   UNL     1      -7.182 -10.781  14.394  0.00  0.00    -0.056 NA
ATOM     16  O   UNL     1      -7.418 -10.756  15.185  0.00  0.00    -0.336 OA
ATOM     17  C   UNL     1      -7.049 -10.109  15.540  0.00  0.00    +0.251 A 
ATOM     18  N   UNL     1      -6.585  -9.735  14.969  0.00  0.00    -0.190 NA
ENDROOT
BRANCH  14  11
ATOM      8  C   UNL     1      -5.564  -9.600  12.115  0.00  0.00    +0.132 A 
ATOM      9  C   UNL     1      -6.354  -9.396  12.238  0.00  0.00    +0.034 A 
ATOM     10  C   UNL     1      -6.721  -9.579  12.953  0.00  0.00    +0.008 A 
ATOM     11  C   UNL     1      -6.300  -9.967  13.546  0.00  0.00    +0.058 A 
ATOM     12  C   UNL     1      -5.509 -10.172  13.424  0.00  0.00    +0.103 A 
ATOM     13  N   UNL     1      -5.142  -9.988  12.709  0.00  0.00    -0.229 NA
BRANCH   8   5
ATOM      1  C   UNL     1      -4.093  -8.867   9.253  0.00  0.00    +0.090 C 
ATOM      2  N   UNL     1      -4.460  -9.051   9.969  0.00  0.00    -0.269 NA
ATOM      3  C   UNL     1      -4.806  -8.453  10.420  0.00  0.00    +0.094 C 
ATOM      4  C   UNL     1      -5.174  -8.636  11.136  0.00  0.00    +0.109 C 
ATOM      5  N   UNL     1      -5.196  -9.417  11.400  0.00  0.00    -0.290 N 
ATOM      6  C   UNL     1      -4.850 -10.016  10.949  0.00  0.00    +0.109 C 
ATOM      7  C   UNL     1      -4.482  -9.832  10.234  0.00  0.00    +0.094 C 
ENDBRANCH   8   5
ENDBRANCH  14  11
BRANCH  17  19
ATOM     19  C   UNL     1      -7.130  -9.877  16.327  0.00  0.00    +0.138 C 
ATOM     20  C   UNL     1      -6.563  -9.968  16.920  0.00  0.00    +0.027 C 
ATOM     21  C   UNL     1      -6.873  -9.661  17.619  0.00  0.00    +0.019 C 
ATOM     22  C   UNL     1      -7.632  -9.379  17.459  0.00  0.00    +0.073 C 
ATOM     23  N   UNL     1      -7.791  -9.513  16.660  0.00  0.00    -0.263 NA
BRANCH  23  24
ATOM     24  C   UNL     1      -8.487  -9.316  16.265  0.00  0.00    +0.101 C 
BRANCH  24  25
ATOM     25  C   UNL     1      -9.122  -8.995  16.682  0.00  0.00    +0.013 A 
ATOM     26  C   UNL     1      -9.223  -8.177  16.714  0.00  0.00    +0.000 A 
ATOM     27  C   UNL     1      -9.858  -7.855  17.132  0.00  0.00    +0.020 A 
ATOM     28  C   UNL     1     -10.392  -8.353  17.516  0.00  0.00    +0.099 A 
ATOM     29  N   UNL     1     -10.291  -9.171  17.484  0.00  0.00    -0.243 NA
ATOM     30  C   UNL     1      -9.657  -9.492  17.067  0.00  0.00    +0.096 A 
ENDBRANCH  24  25
ENDBRANCH  23  24
ENDBRANCH  17  19
TORSDOF 5
ENDMDL
MODEL 10
REMARK VINA RESULT:      -6.2     14.758     16.437
REMARK  Name = 
REMARK  5 active torsions:
REMARK  status: ('A' for Active; 'I' for Inactive)
REMARK    1  A    between atoms: N_5  and  C_8
REMARK    2  A    between atoms: C_11  and  C_14
REMARK    3  A    between atoms: C_17  and  C_19
REMARK    4  A    between atoms: N_23  and  C_24
REMARK    5  A    between atoms: C_24  and  C_25
REMARK                            x       y       z     vdW  Elec       q    Type
REMARK                         _______ _______ _______ _____ _____    ______ ____
ROOT
ATOM     14  C   UNL     1      -4.832 -10.588  14.125  0.00  0.00    +0.205 A 
ATOM     15  N   UNL     1      -5.340 -10.722  13.489  0.00  0.00    -0.056 NA
ATOM     16  O   UNL     1      -4.893 -10.698  12.796  0.00  0.00    -0.336 OA
ATOM     17  C   UNL     1      -4.108 -10.549  13.004  0.00  0.00    +0.251 A 
ATOM     18  N   UNL     1      -4.071 -10.481  13.825  0.00  0.00    -0.190 NA
ENDROOT
BRANCH  14  11
ATOM      8  C   UNL     1      -5.479 -10.518  16.513  0.00  0.00    +0.132 A 
ATOM      9  C   UNL     1      -4.682 -10.524  16.301  0.00  0.00    +0.034 A 
ATOM     10  C   UNL     1      -4.466 -10.547  15.505  0.00  0.00    +0.008 A 
ATOM     11  C   UNL     1      -5.047 -10.565  14.921  0.00  0.00    +0.058 A 
ATOM     12  C   UNL     1      -5.845 -10.559  15.132  0.00  0.00    +0.103 A 
ATOM     13  N   UNL     1      -6.061 -10.536  15.928  0.00  0.00    -0.229 NA
BRANCH   8   5
ATOM      1  C   UNL     1      -6.341 -10.426  19.697  0.00  0.00    +0.090 C 
ATOM      2  N   UNL     1      -6.126 -10.449  18.901  0.00  0.00    -0.269 NA
ATOM      3  C   UNL     1      -6.676 -10.255  18.318  0.00  0.00    +0.094 C 
ATOM      4  C   UNL     1      -6.460 -10.278  17.522  0.00  0.00    +0.109 C 
ATOM      5  N   UNL     1      -5.694 -10.495  17.309  0.00  0.00    -0.290 N 
ATOM      6  C   UNL     1      -5.143 -10.690  17.891  0.00  0.00    +0.109 C 
ATOM      7  C   UNL     1      -5.358 -10.666  18.687  0.00  0.00    +0.094 C 
ENDBRANCH   8   5
ENDBRANCH  14  11
BRANCH  17  19
ATOM     19  C   UNL     1      -3.473 -10.480  12.483  0.00  0.00    +0.138 C 
ATOM     20  C   UNL     1      -2.687 -10.673  12.648  0.00  0.00    +0.027 C 
ATOM     21  C   UNL     1      -2.240 -10.519  11.972  0.00  0.00    +0.019 C 
ATOM     22  C   UNL     1      -2.748 -10.231  11.389  0.00  0.00    +0.073 C 
ATOM     23  N   UNL     1      -3.511 -10.208  11.705  0.00  0.00    -0.263 NA
BRANCH  23  24
ATOM     24  C   UNL     1      -4.190  -9.956  11.312  0.00  0.00    +0.101 C 
BRANCH  24  25
ATOM     25  C   UNL     1      -4.147  -9.720  10.523  0.00  0.00    +0.013 A 
ATOM     26  C   UNL     1      -4.240 -10.276   9.921  0.00  0.00    +0.000 A 
ATOM     27  C   UNL     1      -4.197 -10.041   9.131  0.00  0.00    +0.020 A 
ATOM     28  C   UNL     1      -4.061  -9.249   8.944  0.00  0.00    +0.099 A 
ATOM     29  N   UNL     1      -3.968  -8.693   9.546  0.00  0.00    -0.243 NA
ATOM     30  C   UNL     1      -4.011  -8.928  10.335  0.00  0.00    +0.096 A 
ENDBRANCH  24  25
ENDBRANCH  23  24
ENDBRANCH  17  19
TORSDOF 5
ENDMDL
