MODEL 1
REMARK VINA RESULT:     -12.4      0.000      0.000
REMARK  Name = 
REMARK  8 active torsions:
REMARK  status: ('A' for Active; 'I' for Inactive)
REMARK    1  A    between atoms: O_2  and  C_3
REMARK    2  A    between atoms: C_8  and  O_9
REMARK    3  A    between atoms: C_11  and  C_12
REMARK    4  A    between atoms: C_12  and  C_13
REMARK    5  A    between atoms: C_18  and  C_19
REMARK    6  A    between atoms: C_19  and  C_20
REMARK    7  A    between atoms: C_23  and  C_25
REMARK    8  A    between atoms: C_25  and  C_26
REMARK                            x       y       z     vdW  Elec       q    Type
REMARK                         _______ _______ _______ _____ _____    ______ ____
ROOT
ATOM     13  C   UNL     1      -1.444   1.338  24.549  0.00  0.00    +0.026 C 
ATOM     14  C   UNL     1      -1.870   0.639  24.640  0.00  0.00    +0.094 C 
ATOM     15  N   UNL     1      -1.487  -0.090  24.577  0.00  0.00    -0.279 N 
ATOM     16  C   UNL     1      -0.678  -0.118  24.422  0.00  0.00    +0.093 C 
ATOM     17  C   UNL     1      -0.251   0.581  24.330  0.00  0.00    +0.022 C 
ATOM     18  C   UNL     1      -0.633   1.310  24.394  0.00  0.00    +0.015 C 
ATOM     23  C   UNL     1      -1.914  -0.790  24.668  0.00  0.00    +0.230 C 
ATOM     24  O   UNL     1      -1.532  -1.517  24.605  0.00  0.00    -0.275 OA
ENDROOT
BRANCH  13  12
ATOM     12  C   UNL     1      -1.826   2.066  24.612  0.00  0.00    +0.047 C 
BRANCH  12  11
ATOM      3  C   UNL     1      -4.355   3.561  25.083  0.00  0.00    +0.172 A 
ATOM      4  C   UNL     1      -4.398   3.274  24.311  0.00  0.00    +0.036 A 
ATOM      5  C   UNL     1      -3.777   2.829  23.999  0.00  0.00    -0.016 A 
ATOM      6  C   UNL     1      -3.111   2.670  24.461  0.00  0.00    +0.012 A 
ATOM      7  C   UNL     1      -3.068   2.956  25.234  0.00  0.00    +0.041 A 
ATOM      8  C   UNL     1      -3.689   3.401  25.546  0.00  0.00    +0.172 A 
ATOM     11  C   UNL     1      -2.490   2.225  24.150  0.00  0.00    +0.054 C 
ATOM     32  N   UNL     1      -2.534   1.940  23.378  0.00  0.00    -0.274 NA
ATOM     33  C   UNL     1      -3.200   2.099  22.916  0.00  0.00    +0.130 C 
ATOM     34  C   UNL     1      -3.820   2.544  23.227  0.00  0.00    +0.053 C 
BRANCH   3   2
ATOM      1  C   UNL     1      -5.744   3.709  25.377  0.00  0.00    +0.253 C 
ATOM      2  O   UNL     1      -4.976   4.005  25.394  0.00  0.00    -0.468 OA
ENDBRANCH   3   2
BRANCH   8   9
ATOM      9  O   UNL     1      -3.646   3.687  26.318  0.00  0.00    -0.468 OA
ATOM     10  C   UNL     1      -2.975   4.094  26.570  0.00  0.00    +0.253 C 
ENDBRANCH   8   9
ENDBRANCH  12  11
ENDBRANCH  13  12
BRANCH  18  19
ATOM     19  C   UNL     1      -0.206   2.010  24.302  0.00  0.00    +0.114 C 
BRANCH  19  20
ATOM     20  C   UNL     1       0.585   2.043  24.532  0.00  0.00    +0.365 C 
ATOM     21  O   UNL     1       1.182   1.885  23.985  0.00  0.00    -0.246 OA
ATOM     22  O   UNL     1       0.781   2.234  25.312  0.00  0.00    -0.246 OA
ENDBRANCH  19  20
ENDBRANCH  18  19
BRANCH  23  25
ATOM     25  C   UNL     1      -2.724  -0.761  24.823  0.00  0.00    +0.112 C 
BRANCH  25  26
ATOM     26  C   UNL     1      -3.208  -1.392  24.605  0.00  0.00    -0.013 A 
ATOM     27  C   UNL     1      -3.123  -2.125  24.975  0.00  0.00    -0.004 A 
ATOM     28  C   UNL     1      -3.607  -2.756  24.757  0.00  0.00    -0.000 A 
ATOM     29  C   UNL     1      -4.177  -2.656  24.169  0.00  0.00    -0.000 A 
ATOM     30  C   UNL     1      -4.263  -1.923  23.799  0.00  0.00    -0.000 A 
ATOM     31  C   UNL     1      -3.779  -1.292  24.017  0.00  0.00    -0.004 A 
ENDBRANCH  25  26
ENDBRANCH  23  25
TORSDOF 8
ENDMDL
MODEL 2
REMARK VINA RESULT:     -12.3      1.308      3.599
REMARK  Name = 
REMARK  8 active torsions:
REMARK  status: ('A' for Active; 'I' for Inactive)
REMARK    1  A    between atoms: O_2  and  C_3
REMARK    2  A    between atoms: C_8  and  O_9
REMARK    3  A    between atoms: C_11  and  C_12
REMARK    4  A    between atoms: C_12  and  C_13
REMARK    5  A    between atoms: C_18  and  C_19
REMARK    6  A    between atoms: C_19  and  C_20
REMARK    7  A    between atoms: C_23  and  C_25
REMARK    8  A    between atoms: C_25  and  C_26
REMARK                            x       y       z     vdW  Elec       q    Type
REMARK                         _______ _______ _______ _____ _____    ______ ____
ROOT
ATOM     13  C   UNL     1      -3.800   1.949  24.873  0.00  0.00    +0.026 C 
ATOM     14  C   UNL     1      -3.805   1.136  24.737  0.00  0.00    +0.094 C 
ATOM     15  N   UNL     1      -4.505   0.707  24.827  0.00  0.00    -0.279 N 
ATOM     16  C   UNL     1      -5.198   1.093  25.053  0.00  0.00    +0.093 C 
ATOM     17  C   UNL     1      -5.193   1.905  25.189  0.00  0.00    +0.022 C 
ATOM     18  C   UNL     1      -4.494   2.334  25.099  0.00  0.00    +0.015 C 
ATOM     23  C   UNL     1      -4.510  -0.106  24.691  0.00  0.00    +0.230 C 
ATOM     24  O   UNL     1      -5.209  -0.535  24.781  0.00  0.00    -0.275 OA
ENDROOT
BRANCH  13  12
ATOM     12  C   UNL     1      -3.101   2.378  24.783  0.00  0.00    +0.047 C 
BRANCH  12  11
ATOM      3  C   UNL     1      -0.187   1.953  24.359  0.00  0.00    +0.172 A 
ATOM      4  C   UNL     1      -0.532   1.946  23.609  0.00  0.00    +0.036 A 
ATOM      5  C   UNL     1      -1.346   2.050  23.527  0.00  0.00    -0.016 A 
ATOM      6  C   UNL     1      -1.817   2.162  24.196  0.00  0.00    +0.012 A 
ATOM      7  C   UNL     1      -1.473   2.169  24.946  0.00  0.00    +0.041 A 
ATOM      8  C   UNL     1      -0.658   2.065  25.028  0.00  0.00    +0.172 A 
ATOM     11  C   UNL     1      -2.631   2.266  24.114  0.00  0.00    +0.054 C 
ATOM     32  N   UNL     1      -2.975   2.259  23.365  0.00  0.00    -0.274 NA
ATOM     33  C   UNL     1      -2.504   2.147  22.696  0.00  0.00    +0.130 C 
ATOM     34  C   UNL     1      -1.690   2.042  22.777  0.00  0.00    +0.053 C 
BRANCH   3   2
ATOM      1  C   UNL     1       1.047   1.427  23.871  0.00  0.00    +0.253 C 
ATOM      2  O   UNL     1       0.626   1.849  24.440  0.00  0.00    -0.468 OA
ENDBRANCH   3   2
BRANCH   8   9
ATOM      9  O   UNL     1      -0.315   2.073  25.777  0.00  0.00    -0.468 OA
ATOM     10  C   UNL     1      -0.501   2.673  26.311  0.00  0.00    +0.253 C 
ENDBRANCH   8   9
ENDBRANCH  12  11
ENDBRANCH  13  12
BRANCH  18  19
ATOM     19  C   UNL     1      -4.489   3.148  25.236  0.00  0.00    +0.114 C 
BRANCH  19  20
ATOM     20  C   UNL     1      -5.077   3.492  25.699  0.00  0.00    +0.365 C 
ATOM     21  O   UNL     1      -5.024   3.463  26.522  0.00  0.00    -0.246 OA
ATOM     22  O   UNL     1      -5.720   3.866  25.340  0.00  0.00    -0.246 OA
ENDBRANCH  19  20
ENDBRANCH  18  19
BRANCH  23  25
ATOM     25  C   UNL     1      -3.816  -0.491  24.464  0.00  0.00    +0.112 C 
BRANCH  25  26
ATOM     26  C   UNL     1      -3.784  -1.315  24.461  0.00  0.00    -0.013 A 
ATOM     27  C   UNL     1      -3.450  -1.718  25.099  0.00  0.00    -0.004 A 
ATOM     28  C   UNL     1      -3.417  -2.542  25.096  0.00  0.00    -0.000 A 
ATOM     29  C   UNL     1      -3.720  -2.965  24.455  0.00  0.00    -0.000 A 
ATOM     30  C   UNL     1      -4.055  -2.562  23.817  0.00  0.00    -0.000 A 
ATOM     31  C   UNL     1      -4.087  -1.738  23.820  0.00  0.00    -0.004 A 
ENDBRANCH  25  26
ENDBRANCH  23  25
TORSDOF 8
ENDMDL
MODEL 3
REMARK VINA RESULT:     -11.2      1.743      5.310
REMARK  Name = 
REMARK  8 active torsions:
REMARK  status: ('A' for Active; 'I' for Inactive)
REMARK    1  A    between atoms: O_2  and  C_3
REMARK    2  A    between atoms: C_8  and  O_9
REMARK    3  A    between atoms: C_11  and  C_12
REMARK    4  A    between atoms: C_12  and  C_13
REMARK    5  A    between atoms: C_18  and  C_19
REMARK    6  A    between atoms: C_19  and  C_20
REMARK    7  A    between atoms: C_23  and  C_25
REMARK    8  A    between atoms: C_25  and  C_26
REMARK                            x       y       z     vdW  Elec       q    Type
REMARK                         _______ _______ _______ _____ _____    ______ ____
ROOT
ATOM     13  C   UNL     1      -3.924   2.087  25.099  0.00  0.00    +0.026 C 
ATOM     14  C   UNL     1      -3.368   2.644  25.341  0.00  0.00    +0.094 C 
ATOM     15  N   UNL     1      -3.616   3.371  25.643  0.00  0.00    -0.279 N 
ATOM     16  C   UNL     1      -4.421   3.539  25.703  0.00  0.00    +0.093 C 
ATOM     17  C   UNL     1      -4.978   2.982  25.461  0.00  0.00    +0.022 C 
ATOM     18  C   UNL     1      -4.730   2.255  25.159  0.00  0.00    +0.015 C 
ATOM     23  C   UNL     1      -3.059   3.929  25.886  0.00  0.00    +0.230 C 
ATOM     24  O   UNL     1      -3.307   4.655  26.187  0.00  0.00    -0.275 OA
ENDROOT
BRANCH  13  12
ATOM     12  C   UNL     1      -3.677   1.360  24.797  0.00  0.00    +0.047 C 
BRANCH  12  11
ATOM      3  C   UNL     1      -1.154  -0.162  24.380  0.00  0.00    +0.172 A 
ATOM      4  C   UNL     1      -1.251   0.310  23.710  0.00  0.00    +0.036 A 
ATOM      5  C   UNL     1      -1.905   0.809  23.646  0.00  0.00    -0.016 A 
ATOM      6  C   UNL     1      -2.465   0.835  24.254  0.00  0.00    +0.012 A 
ATOM      7  C   UNL     1      -2.368   0.363  24.924  0.00  0.00    +0.041 A 
ATOM      8  C   UNL     1      -1.713  -0.135  24.988  0.00  0.00    +0.172 A 
ATOM     11  C   UNL     1      -3.118   1.333  24.191  0.00  0.00    +0.054 C 
ATOM     32  N   UNL     1      -3.215   1.805  23.521  0.00  0.00    -0.274 NA
ATOM     33  C   UNL     1      -2.656   1.778  22.914  0.00  0.00    +0.130 C 
ATOM     34  C   UNL     1      -2.002   1.280  22.977  0.00  0.00    +0.053 C 
BRANCH   3   2
ATOM      1  C   UNL     1       0.118  -0.599  23.902  0.00  0.00    +0.253 C 
ATOM      2  O   UNL     1      -0.500  -0.660  24.444  0.00  0.00    -0.468 OA
ENDBRANCH   3   2
BRANCH   8   9
ATOM      9  O   UNL     1      -1.617  -0.607  25.657  0.00  0.00    -0.468 OA
ATOM     10  C   UNL     1      -2.258  -1.025  25.963  0.00  0.00    +0.253 C 
ENDBRANCH   8   9
ENDBRANCH  12  11
ENDBRANCH  13  12
BRANCH  18  19
ATOM     19  C   UNL     1      -5.288   1.697  24.916  0.00  0.00    +0.114 C 
BRANCH  19  20
ATOM     20  C   UNL     1      -6.067   1.753  25.178  0.00  0.00    +0.365 C 
ATOM     21  O   UNL     1      -6.261   1.531  25.949  0.00  0.00    -0.246 OA
ATOM     22  O   UNL     1      -6.655   2.030  24.669  0.00  0.00    -0.246 OA
ENDBRANCH  19  20
ENDBRANCH  18  19
BRANCH  23  25
ATOM     25  C   UNL     1      -2.253   3.760  25.826  0.00  0.00    +0.112 C 
BRANCH  25  26
ATOM     26  C   UNL     1      -1.745   4.300  25.464  0.00  0.00    -0.013 A 
ATOM     27  C   UNL     1      -1.984   5.081  25.352  0.00  0.00    -0.004 A 
ATOM     28  C   UNL     1      -1.475   5.621  24.990  0.00  0.00    -0.000 A 
ATOM     29  C   UNL     1      -0.727   5.380  24.740  0.00  0.00    -0.000 A 
ATOM     30  C   UNL     1      -0.488   4.597  24.852  0.00  0.00    -0.000 A 
ATOM     31  C   UNL     1      -0.996   4.058  25.214  0.00  0.00    -0.004 A 
ENDBRANCH  25  26
ENDBRANCH  23  25
TORSDOF 8
ENDMDL
MODEL 4
REMARK VINA RESULT:     -10.9      1.397      3.644
REMARK  Name = 
REMARK  8 active torsions:
REMARK  status: ('A' for Active; 'I' for Inactive)
REMARK    1  A    between atoms: O_2  and  C_3
REMARK    2  A    between atoms: C_8  and  O_9
REMARK    3  A    between atoms: C_11  and  C_12
REMARK    4  A    between atoms: C_12  and  C_13
REMARK    5  A    between atoms: C_18  and  C_19
REMARK    6  A    between atoms: C_19  and  C_20
REMARK    7  A    between atoms: C_23  and  C_25
REMARK    8  A    between atoms: C_25  and  C_26
REMARK                            x       y       z     vdW  Elec       q    Type
REMARK                         _______ _______ _______ _____ _____    ______ ____
ROOT
ATOM     13  C   UNL     1      -3.431  -0.112  24.761  0.00  0.00    +0.026 C 
ATOM     14  C   UNL     1      -2.754   0.255  25.054  0.00  0.00    +0.094 C 
ATOM     15  N   UNL     1      -2.058  -0.179  25.148  0.00  0.00    -0.279 N 
ATOM     16  C   UNL     1      -2.041  -0.979  24.949  0.00  0.00    +0.093 C 
ATOM     17  C   UNL     1      -2.718  -1.346  24.656  0.00  0.00    +0.022 C 
ATOM     18  C   UNL     1      -3.414  -0.913  24.562  0.00  0.00    +0.015 C 
ATOM     23  C   UNL     1      -1.380   0.188  25.442  0.00  0.00    +0.230 C 
ATOM     24  O   UNL     1      -0.685  -0.245  25.536  0.00  0.00    -0.275 OA
ENDROOT
BRANCH  13  12
ATOM     12  C   UNL     1      -4.127   0.320  24.666  0.00  0.00    +0.047 C 
BRANCH  12  11
ATOM      3  C   UNL     1      -5.380   2.942  25.308  0.00  0.00    +0.172 A 
ATOM      4  C   UNL     1      -4.933   3.062  24.625  0.00  0.00    +0.036 A 
ATOM      5  C   UNL     1      -4.508   2.437  24.293  0.00  0.00    -0.016 A 
ATOM      6  C   UNL     1      -4.530   1.691  24.645  0.00  0.00    +0.012 A 
ATOM      7  C   UNL     1      -4.977   1.570  25.328  0.00  0.00    +0.041 A 
ATOM      8  C   UNL     1      -5.402   2.195  25.660  0.00  0.00    +0.172 A 
ATOM     11  C   UNL     1      -4.105   1.066  24.314  0.00  0.00    +0.054 C 
ATOM     32  N   UNL     1      -3.659   1.187  23.632  0.00  0.00    -0.274 NA
ATOM     33  C   UNL     1      -3.637   1.934  23.280  0.00  0.00    +0.130 C 
ATOM     34  C   UNL     1      -4.062   2.558  23.611  0.00  0.00    +0.053 C 
BRANCH   3   2
ATOM      1  C   UNL     1      -5.576   4.344  25.491  0.00  0.00    +0.253 C 
ATOM      2  O   UNL     1      -5.805   3.566  25.639  0.00  0.00    -0.468 OA
ENDBRANCH   3   2
BRANCH   8   9
ATOM      9  O   UNL     1      -5.848   2.074  26.343  0.00  0.00    -0.468 OA
ATOM     10  C   UNL     1      -6.422   1.483  26.361  0.00  0.00    +0.253 C 
ENDBRANCH   8   9
ENDBRANCH  12  11
ENDBRANCH  13  12
BRANCH  18  19
ATOM     19  C   UNL     1      -4.092  -1.281  24.268  0.00  0.00    +0.114 C 
BRANCH  19  20
ATOM     20  C   UNL     1      -4.077  -2.083  24.079  0.00  0.00    +0.365 C 
ATOM     21  O   UNL     1      -4.116  -2.323  23.291  0.00  0.00    -0.246 OA
ATOM     22  O   UNL     1      -4.023  -2.647  24.680  0.00  0.00    -0.246 OA
ENDBRANCH  19  20
ENDBRANCH  18  19
BRANCH  23  25
ATOM     25  C   UNL     1      -1.398   0.989  25.641  0.00  0.00    +0.112 C 
BRANCH  25  26
ATOM     26  C   UNL     1      -0.743   1.466  25.489  0.00  0.00    -0.013 A 
ATOM     27  C   UNL     1      -0.369   1.432  24.754  0.00  0.00    -0.004 A 
ATOM     28  C   UNL     1       0.287   1.910  24.602  0.00  0.00    -0.000 A 
ATOM     29  C   UNL     1       0.569   2.422  25.184  0.00  0.00    -0.000 A 
ATOM     30  C   UNL     1       0.195   2.456  25.919  0.00  0.00    -0.000 A 
ATOM     31  C   UNL     1      -0.461   1.979  26.071  0.00  0.00    -0.004 A 
ENDBRANCH  25  26
ENDBRANCH  23  25
TORSDOF 8
ENDMDL
MODEL 5
REMARK VINA RESULT:     -10.5      1.236      2.085
REMARK  Name = 
REMARK  8 active torsions:
REMARK  status: ('A' for Active; 'I' for Inactive)
REMARK    1  A    between atoms: O_2  and  C_3
REMARK    2  A    between atoms: C_8  and  O_9
REMARK    3  A    between atoms: C_11  and  C_12
REMARK    4  A    between atoms: C_12  and  C_13
REMARK    5  A    between atoms: C_18  and  C_19
REMARK    6  A    between atoms: C_19  and  C_20
REMARK    7  A    between atoms: C_23  and  C_25
REMARK    8  A    between atoms: C_25  and  C_26
REMARK                            x       y       z     vdW  Elec       q    Type
REMARK                         _______ _______ _______ _____ _____    ______ ____
ROOT
ATOM     13  C   UNL     1      -0.520   0.338  23.965  0.00  0.00    +0.026 C 
ATOM     14  C   UNL     1      -1.080  -0.169  24.296  0.00  0.00    +0.094 C 
ATOM     15  N   UNL     1      -0.910  -0.972  24.382  0.00  0.00    -0.279 N 
ATOM     16  C   UNL     1      -0.180  -1.267  24.136  0.00  0.00    +0.093 C 
ATOM     17  C   UNL     1       0.380  -0.761  23.805  0.00  0.00    +0.022 C 
ATOM     18  C   UNL     1       0.210   0.042  23.719  0.00  0.00    +0.015 C 
ATOM     23  C   UNL     1      -1.470  -1.479  24.714  0.00  0.00    +0.230 C 
ATOM     24  O   UNL     1      -1.300  -2.281  24.800  0.00  0.00    -0.275 OA
ENDROOT
BRANCH  13  12
ATOM     12  C   UNL     1      -0.690   1.140  23.878  0.00  0.00    +0.047 C 
BRANCH  12  11
ATOM      3  C   UNL     1      -2.846   3.093  24.504  0.00  0.00    +0.172 A 
ATOM      4  C   UNL     1      -2.372   3.051  25.178  0.00  0.00    +0.036 A 
ATOM      5  C   UNL     1      -1.714   2.553  25.190  0.00  0.00    -0.016 A 
ATOM      6  C   UNL     1      -1.530   2.095  24.528  0.00  0.00    +0.012 A 
ATOM      7  C   UNL     1      -2.005   2.137  23.854  0.00  0.00    +0.041 A 
ATOM      8  C   UNL     1      -2.662   2.635  23.841  0.00  0.00    +0.172 A 
ATOM     11  C   UNL     1      -0.873   1.597  24.540  0.00  0.00    +0.054 C 
ATOM     32  N   UNL     1      -0.400   1.556  25.214  0.00  0.00    -0.274 NA
ATOM     33  C   UNL     1      -0.584   2.013  25.876  0.00  0.00    +0.130 C 
ATOM     34  C   UNL     1      -1.241   2.511  25.864  0.00  0.00    +0.053 C 
BRANCH   3   2
ATOM      1  C   UNL     1      -3.874   3.802  25.196  0.00  0.00    +0.253 C 
ATOM      2  O   UNL     1      -3.503   3.590  24.491  0.00  0.00    -0.468 OA
ENDBRANCH   3   2
BRANCH   8   9
ATOM      9  O   UNL     1      -3.136   2.676  23.167  0.00  0.00    -0.468 OA
ATOM     10  C   UNL     1      -2.935   2.245  22.494  0.00  0.00    +0.253 C 
ENDBRANCH   8   9
ENDBRANCH  12  11
ENDBRANCH  13  12
BRANCH  18  19
ATOM     19  C   UNL     1       0.770   0.549  23.387  0.00  0.00    +0.114 C 
BRANCH  19  20
ATOM     20  C   UNL     1       1.375   0.244  22.918  0.00  0.00    +0.365 C 
ATOM     21  O   UNL     1       1.209  -0.037  22.160  0.00  0.00    -0.246 OA
ATOM     22  O   UNL     1       2.149   0.219  23.206  0.00  0.00    -0.246 OA
ENDBRANCH  19  20
ENDBRANCH  18  19
BRANCH  23  25
ATOM     25  C   UNL     1      -2.200  -1.183  24.959  0.00  0.00    +0.112 C 
BRANCH  25  26
ATOM     26  C   UNL     1      -2.897  -1.554  24.720  0.00  0.00    -0.013 A 
ATOM     27  C   UNL     1      -3.008  -2.358  24.867  0.00  0.00    -0.004 A 
ATOM     28  C   UNL     1      -3.705  -2.729  24.627  0.00  0.00    -0.000 A 
ATOM     29  C   UNL     1      -4.291  -2.296  24.240  0.00  0.00    -0.000 A 
ATOM     30  C   UNL     1      -4.180  -1.491  24.093  0.00  0.00    -0.000 A 
ATOM     31  C   UNL     1      -3.483  -1.120  24.333  0.00  0.00    -0.004 A 
ENDBRANCH  25  26
ENDBRANCH  23  25
TORSDOF 8
ENDMDL
MODEL 6
REMARK VINA RESULT:     -10.5      1.720      3.864
REMARK  Name = 
REMARK  8 active torsions:
REMARK  status: ('A' for Active; 'I' for Inactive)
REMARK    1  A    between atoms: O_2  and  C_3
REMARK    2  A    between atoms: C_8  and  O_9
REMARK    3  A    between atoms: C_11  and  C_12
REMARK    4  A    between atoms: C_12  and  C_13
REMARK    5  A    between atoms: C_18  and  C_19
REMARK    6  A    between atoms: C_19  and  C_20
REMARK    7  A    between atoms: C_23  and  C_25
REMARK    8  A    between atoms: C_25  and  C_26
REMARK                            x       y       z     vdW  Elec       q    Type
REMARK                         _______ _______ _______ _____ _____    ______ ____
ROOT
ATOM     13  C   UNL     1      -1.048   1.094  24.278  0.00  0.00    +0.026 C 
ATOM     14  C   UNL     1      -1.041   1.773  24.744  0.00  0.00    +0.094 C 
ATOM     15  N   UNL     1      -0.322   2.124  24.952  0.00  0.00    -0.279 N 
ATOM     16  C   UNL     1       0.387   1.794  24.691  0.00  0.00    +0.093 C 
ATOM     17  C   UNL     1       0.380   1.114  24.225  0.00  0.00    +0.022 C 
ATOM     18  C   UNL     1      -0.337   0.764  24.018  0.00  0.00    +0.015 C 
ATOM     23  C   UNL     1      -0.315   2.804  25.419  0.00  0.00    +0.230 C 
ATOM     24  O   UNL     1       0.402   3.154  25.626  0.00  0.00    -0.275 OA
ENDROOT
BRANCH  13  12
ATOM     12  C   UNL     1      -1.765   0.743  24.070  0.00  0.00    +0.047 C 
BRANCH  12  11
ATOM      3  C   UNL     1      -4.659   1.033  24.697  0.00  0.00    +0.172 A 
ATOM      4  C   UNL     1      -4.507   1.550  24.072  0.00  0.00    +0.036 A 
ATOM      5  C   UNL     1      -3.746   1.607  23.758  0.00  0.00    -0.016 A 
ATOM      6  C   UNL     1      -3.135   1.146  24.071  0.00  0.00    +0.012 A 
ATOM      7  C   UNL     1      -3.288   0.630  24.696  0.00  0.00    +0.041 A 
ATOM      8  C   UNL     1      -4.049   0.573  25.010  0.00  0.00    +0.172 A 
ATOM     11  C   UNL     1      -2.375   1.203  23.758  0.00  0.00    +0.054 C 
ATOM     32  N   UNL     1      -2.223   1.719  23.133  0.00  0.00    -0.274 NA
ATOM     33  C   UNL     1      -2.834   2.179  22.821  0.00  0.00    +0.130 C 
ATOM     34  C   UNL     1      -3.594   2.123  23.133  0.00  0.00    +0.053 C 
BRANCH   3   2
ATOM      1  C   UNL     1      -5.914   1.636  25.015  0.00  0.00    +0.253 C 
ATOM      2  O   UNL     1      -5.420   0.976  25.010  0.00  0.00    -0.468 OA
ENDBRANCH   3   2
BRANCH   8   9
ATOM      9  O   UNL     1      -4.201   0.057  25.634  0.00  0.00    -0.468 OA
ATOM     10  C   UNL     1      -3.890  -0.707  25.624  0.00  0.00    +0.253 C 
ENDBRANCH   8   9
ENDBRANCH  12  11
ENDBRANCH  13  12
BRANCH  18  19
ATOM     19  C   UNL     1      -0.345   0.084  23.550  0.00  0.00    +0.114 C 
BRANCH  19  20
ATOM     20  C   UNL     1       0.343  -0.362  23.461  0.00  0.00    +0.365 C 
ATOM     21  O   UNL     1       0.868  -0.192  22.847  0.00  0.00    -0.246 OA
ATOM     22  O   UNL     1       0.506  -0.979  23.985  0.00  0.00    -0.246 OA
ENDBRANCH  19  20
ENDBRANCH  18  19
BRANCH  23  25
ATOM     25  C   UNL     1      -1.026   3.133  25.678  0.00  0.00    +0.112 C 
BRANCH  25  26
ATOM     26  C   UNL     1      -1.210   3.915  25.490  0.00  0.00    -0.013 A 
ATOM     27  C   UNL     1      -0.672   4.377  25.070  0.00  0.00    -0.004 A 
ATOM     28  C   UNL     1      -0.857   5.159  24.882  0.00  0.00    -0.000 A 
ATOM     29  C   UNL     1      -1.580   5.479  25.114  0.00  0.00    -0.000 A 
ATOM     30  C   UNL     1      -2.120   5.017  25.535  0.00  0.00    -0.000 A 
ATOM     31  C   UNL     1      -1.935   4.235  25.723  0.00  0.00    -0.004 A 
ENDBRANCH  25  26
ENDBRANCH  23  25
TORSDOF 8
ENDMDL
MODEL 7
REMARK VINA RESULT:     -10.0      1.846      3.382
REMARK  Name = 
REMARK  8 active torsions:
REMARK  status: ('A' for Active; 'I' for Inactive)
REMARK    1  A    between atoms: O_2  and  C_3
REMARK    2  A    between atoms: C_8  and  O_9
REMARK    3  A    between atoms: C_11  and  C_12
REMARK    4  A    between atoms: C_12  and  C_13
REMARK    5  A    between atoms: C_18  and  C_19
REMARK    6  A    between atoms: C_19  and  C_20
REMARK    7  A    between atoms: C_23  and  C_25
REMARK    8  A    between atoms: C_25  and  C_26
REMARK                            x       y       z     vdW  Elec       q    Type
REMARK                         _______ _______ _______ _____ _____    ______ ____
ROOT
ATOM     13  C   UNL     1      -2.067   0.144  24.827  0.00  0.00    +0.026 C 
ATOM     14  C   UNL     1      -2.812   0.465  24.970  0.00  0.00    +0.094 C 
ATOM     15  N   UNL     1      -3.463  -0.031  25.077  0.00  0.00    -0.279 N 
ATOM     16  C   UNL     1      -3.366  -0.850  25.041  0.00  0.00    +0.093 C 
ATOM     17  C   UNL     1      -2.621  -1.172  24.898  0.00  0.00    +0.022 C 
ATOM     18  C   UNL     1      -1.971  -0.676  24.791  0.00  0.00    +0.015 C 
ATOM     23  C   UNL     1      -4.209   0.291  25.219  0.00  0.00    +0.230 C 
ATOM     24  O   UNL     1      -4.858  -0.205  25.326  0.00  0.00    -0.275 OA
ENDROOT
BRANCH  13  12
ATOM     12  C   UNL     1      -1.416   0.639  24.721  0.00  0.00    +0.047 C 
BRANCH  12  11
ATOM      3  C   UNL     1      -0.721   3.520  24.984  0.00  0.00    +0.172 A 
ATOM      4  C   UNL     1      -1.025   3.426  24.223  0.00  0.00    +0.036 A 
ATOM      5  C   UNL     1      -1.276   2.683  23.966  0.00  0.00    -0.016 A 
ATOM      6  C   UNL     1      -1.221   2.032  24.472  0.00  0.00    +0.012 A 
ATOM      7  C   UNL     1      -0.916   2.126  25.233  0.00  0.00    +0.041 A 
ATOM      8  C   UNL     1      -0.666   2.870  25.489  0.00  0.00    +0.172 A 
ATOM     11  C   UNL     1      -1.471   1.289  24.216  0.00  0.00    +0.054 C 
ATOM     32  N   UNL     1      -1.775   1.196  23.455  0.00  0.00    -0.274 NA
ATOM     33  C   UNL     1      -1.829   1.847  22.949  0.00  0.00    +0.130 C 
ATOM     34  C   UNL     1      -1.580   2.589  23.205  0.00  0.00    +0.053 C 
BRANCH   3   2
ATOM      1  C   UNL     1      -0.842   4.943  24.957  0.00  0.00    +0.253 C 
ATOM      2  O   UNL     1      -0.471   4.263  25.240  0.00  0.00    -0.468 OA
ENDBRANCH   3   2
BRANCH   8   9
ATOM      9  O   UNL     1      -0.362   2.963  26.250  0.00  0.00    -0.468 OA
ATOM     10  C   UNL     1       0.160   2.404  26.557  0.00  0.00    +0.253 C 
ENDBRANCH   8   9
ENDBRANCH  12  11
ENDBRANCH  13  12
BRANCH  18  19
ATOM     19  C   UNL     1      -1.225  -0.998  24.649  0.00  0.00    +0.114 C 
BRANCH  19  20
ATOM     20  C   UNL     1      -1.078  -1.790  24.823  0.00  0.00    +0.365 C 
ATOM     21  O   UNL     1      -1.307  -2.379  24.293  0.00  0.00    -0.246 OA
ATOM     22  O   UNL     1      -0.701  -1.995  25.529  0.00  0.00    -0.246 OA
ENDBRANCH  19  20
ENDBRANCH  18  19
BRANCH  23  25
ATOM     25  C   UNL     1      -4.304   1.110  25.255  0.00  0.00    +0.112 C 
BRANCH  25  26
ATOM     26  C   UNL     1      -5.061   1.436  25.286  0.00  0.00    -0.013 A 
ATOM     27  C   UNL     1      -5.477   1.581  24.589  0.00  0.00    -0.004 A 
ATOM     28  C   UNL     1      -6.235   1.906  24.620  0.00  0.00    -0.000 A 
ATOM     29  C   UNL     1      -6.576   2.088  25.349  0.00  0.00    -0.000 A 
ATOM     30  C   UNL     1      -6.160   1.943  26.047  0.00  0.00    -0.000 A 
ATOM     31  C   UNL     1      -5.403   1.617  26.016  0.00  0.00    -0.004 A 
ENDBRANCH  25  26
ENDBRANCH  23  25
TORSDOF 8
ENDMDL
MODEL 8
REMARK VINA RESULT:      -9.8      1.859      2.584
REMARK  Name = 
REMARK  8 active torsions:
REMARK  status: ('A' for Active; 'I' for Inactive)
REMARK    1  A    between atoms: O_2  and  C_3
REMARK    2  A    between atoms: C_8  and  O_9
REMARK    3  A    between atoms: C_11  and  C_12
REMARK    4  A    between atoms: C_12  and  C_13
REMARK    5  A    between atoms: C_18  and  C_19
REMARK    6  A    between atoms: C_19  and  C_20
REMARK    7  A    between atoms: C_23  and  C_25
REMARK    8  A    between atoms: C_25  and  C_26
REMARK                            x       y       z     vdW  Elec       q    Type
REMARK                         _______ _______ _______ _____ _____    ______ ____
ROOT
ATOM     13  C   UNL     1      -1.920   3.205  24.963  0.00  0.00    +0.026 C 
ATOM     14  C   UNL     1      -1.692   2.439  25.161  0.00  0.00    +0.094 C 
ATOM     15  N   UNL     1      -0.896   2.268  25.300  0.00  0.00    -0.279 N 
ATOM     16  C   UNL     1      -0.330   2.866  25.240  0.00  0.00    +0.093 C 
ATOM     17  C   UNL     1      -0.559   3.632  25.041  0.00  0.00    +0.022 C 
ATOM     18  C   UNL     1      -1.354   3.803  24.903  0.00  0.00    +0.015 C 
ATOM     23  C   UNL     1      -0.667   1.501  25.498  0.00  0.00    +0.230 C 
ATOM     24  O   UNL     1       0.128   1.331  25.637  0.00  0.00    -0.275 OA
ENDROOT
BRANCH  13  12
ATOM     12  C   UNL     1      -2.715   3.376  24.824  0.00  0.00    +0.047 C 
BRANCH  12  11
ATOM      3  C   UNL     1      -5.472   2.268  24.982  0.00  0.00    +0.172 A 
ATOM      4  C   UNL     1      -5.151   1.984  24.277  0.00  0.00    +0.036 A 
ATOM      5  C   UNL     1      -4.382   2.190  24.061  0.00  0.00    -0.016 A 
ATOM      6  C   UNL     1      -3.932   2.680  24.551  0.00  0.00    +0.012 A 
ATOM      7  C   UNL     1      -4.254   2.964  25.256  0.00  0.00    +0.041 A 
ATOM      8  C   UNL     1      -5.023   2.758  25.472  0.00  0.00    +0.172 A 
ATOM     11  C   UNL     1      -3.164   2.886  24.335  0.00  0.00    +0.054 C 
ATOM     32  N   UNL     1      -2.843   2.603  23.630  0.00  0.00    -0.274 NA
ATOM     33  C   UNL     1      -3.293   2.112  23.140  0.00  0.00    +0.130 C 
ATOM     34  C   UNL     1      -4.061   1.907  23.356  0.00  0.00    +0.053 C 
BRANCH   3   2
ATOM      1  C   UNL     1      -6.615   1.424  24.834  0.00  0.00    +0.253 C 
ATOM      2  O   UNL     1      -6.241   2.062  25.198  0.00  0.00    -0.468 OA
ENDBRANCH   3   2
BRANCH   8   9
ATOM      9  O   UNL     1      -5.343   3.041  26.177  0.00  0.00    -0.468 OA
ATOM     10  C   UNL     1      -5.208   3.821  26.408  0.00  0.00    +0.253 C 
ENDBRANCH   8   9
ENDBRANCH  12  11
ENDBRANCH  13  12
BRANCH  18  19
ATOM     19  C   UNL     1      -1.583   4.570  24.704  0.00  0.00    +0.114 C 
BRANCH  19  20
ATOM     20  C   UNL     1      -1.121   5.211  24.937  0.00  0.00    +0.365 C 
ATOM     21  O   UNL     1      -0.386   5.342  24.584  0.00  0.00    -0.246 OA
ATOM     22  O   UNL     1      -1.393   5.724  25.525  0.00  0.00    -0.246 OA
ENDBRANCH  19  20
ENDBRANCH  18  19
BRANCH  23  25
ATOM     25  C   UNL     1      -1.234   0.904  25.558  0.00  0.00    +0.112 C 
BRANCH  25  26
ATOM     26  C   UNL     1      -1.027   0.122  25.396  0.00  0.00    -0.013 A 
ATOM     27  C   UNL     1      -0.729  -0.080  24.654  0.00  0.00    -0.004 A 
ATOM     28  C   UNL     1      -0.523  -0.862  24.491  0.00  0.00    -0.000 A 
ATOM     29  C   UNL     1      -0.614  -1.443  25.070  0.00  0.00    -0.000 A 
ATOM     30  C   UNL     1      -0.913  -1.240  25.813  0.00  0.00    -0.000 A 
ATOM     31  C   UNL     1      -1.119  -0.458  25.976  0.00  0.00    -0.004 A 
ENDBRANCH  25  26
ENDBRANCH  23  25
TORSDOF 8
ENDMDL
MODEL 9
REMARK VINA RESULT:      -9.6      1.792      3.819
REMARK  Name = 
REMARK  8 active torsions:
REMARK  status: ('A' for Active; 'I' for Inactive)
REMARK    1  A    between atoms: O_2  and  C_3
REMARK    2  A    between atoms: C_8  and  O_9
REMARK    3  A    between atoms: C_11  and  C_12
REMARK    4  A    between atoms: C_12  and  C_13
REMARK    5  A    between atoms: C_18  and  C_19
REMARK    6  A    between atoms: C_19  and  C_20
REMARK    7  A    between atoms: C_23  and  C_25
REMARK    8  A    between atoms: C_25  and  C_26
REMARK                            x       y       z     vdW  Elec       q    Type
REMARK                         _______ _______ _______ _____ _____    ______ ____
ROOT
ATOM     13  C   UNL     1      -1.695   0.362  24.859  0.00  0.00    +0.026 C 
ATOM     14  C   UNL     1      -1.020   0.309  24.390  0.00  0.00    +0.094 C 
ATOM     15  N   UNL     1      -0.719  -0.431  24.183  0.00  0.00    -0.279 N 
ATOM     16  C   UNL     1      -1.094  -1.117  24.446  0.00  0.00    +0.093 C 
ATOM     17  C   UNL     1      -1.770  -1.064  24.915  0.00  0.00    +0.022 C 
ATOM     18  C   UNL     1      -2.071  -0.324  25.122  0.00  0.00    +0.015 C 
ATOM     23  C   UNL     1      -0.043  -0.485  23.713  0.00  0.00    +0.230 C 
ATOM     24  O   UNL     1       0.258  -1.224  23.506  0.00  0.00    -0.275 OA
ENDROOT
BRANCH  13  12
ATOM     12  C   UNL     1      -1.997   1.102  25.067  0.00  0.00    +0.047 C 
BRANCH  12  11
ATOM      3  C   UNL     1      -1.980   4.077  25.089  0.00  0.00    +0.172 A 
ATOM      4  C   UNL     1      -1.327   3.840  25.535  0.00  0.00    +0.036 A 
ATOM      5  C   UNL     1      -1.168   3.038  25.642  0.00  0.00    -0.016 A 
ATOM      6  C   UNL     1      -1.662   2.470  25.301  0.00  0.00    +0.012 A 
ATOM      7  C   UNL     1      -2.314   2.707  24.854  0.00  0.00    +0.041 A 
ATOM      8  C   UNL     1      -2.474   3.510  24.748  0.00  0.00    +0.172 A 
ATOM     11  C   UNL     1      -1.503   1.668  25.407  0.00  0.00    +0.054 C 
ATOM     32  N   UNL     1      -0.852   1.432  25.853  0.00  0.00    -0.274 NA
ATOM     33  C   UNL     1      -0.357   2.000  26.194  0.00  0.00    +0.130 C 
ATOM     34  C   UNL     1      -0.516   2.802  26.088  0.00  0.00    +0.053 C 
BRANCH   3   2
ATOM      1  C   UNL     1      -1.541   5.436  25.092  0.00  0.00    +0.253 C 
ATOM      2  O   UNL     1      -2.138   4.879  24.983  0.00  0.00    -0.468 OA
ENDBRANCH   3   2
BRANCH   8   9
ATOM      9  O   UNL     1      -3.126   3.745  24.302  0.00  0.00    -0.468 OA
ATOM     10  C   UNL     1      -3.822   3.305  24.323  0.00  0.00    +0.253 C 
ENDBRANCH   8   9
ENDBRANCH  12  11
ENDBRANCH  13  12
BRANCH  18  19
ATOM     19  C   UNL     1      -2.747  -0.271  25.592  0.00  0.00    +0.114 C 
BRANCH  19  20
ATOM     20  C   UNL     1      -3.270  -0.907  25.635  0.00  0.00    +0.365 C 
ATOM     21  O   UNL     1      -3.854  -1.002  25.060  0.00  0.00    -0.246 OA
ATOM     22  O   UNL     1      -3.210  -1.449  26.255  0.00  0.00    -0.246 OA
ENDBRANCH  19  20
ENDBRANCH  18  19
BRANCH  23  25
ATOM     25  C   UNL     1       0.332   0.202  23.450  0.00  0.00    +0.112 C 
BRANCH  25  26
ATOM     26  C   UNL     1       1.058   0.153  23.062  0.00  0.00    -0.013 A 
ATOM     27  C   UNL     1       1.735   0.470  23.409  0.00  0.00    -0.004 A 
ATOM     28  C   UNL     1       2.461   0.421  23.021  0.00  0.00    -0.000 A 
ATOM     29  C   UNL     1       2.511   0.053  22.284  0.00  0.00    -0.000 A 
ATOM     30  C   UNL     1       1.833  -0.265  21.935  0.00  0.00    -0.000 A 
ATOM     31  C   UNL     1       1.107  -0.215  22.324  0.00  0.00    -0.004 A 
ENDBRANCH  25  26
ENDBRANCH  23  25
TORSDOF 8
ENDMDL
