MODEL 1
REMARK VINA RESULT:      -7.9      0.000      0.000
REMARK  Name = 
REMARK  4 active torsions:
REMARK  status: ('A' for Active; 'I' for Inactive)
REMARK    1  A    between atoms: N_2  and  C_4
REMARK    2  A    between atoms: C_7  and  C_10
REMARK    3  A    between atoms: N_15  and  C_16
REMARK    4  A    between atoms: C_20  and  N_24
REMARK                            x       y       z     vdW  Elec       q    Type
REMARK                         _______ _______ _______ _____ _____    ______ ____
ROOT
ATOM     16  C   UNL     1      -0.381   1.296  24.365  0.00  0.00    +0.154 C 
ATOM     17  C   UNL     1       0.111   1.888  24.662  0.00  0.00    +0.166 C 
ATOM     18  O   UNL     1       0.861   1.782  24.337  0.00  0.00    -0.350 OA
ATOM     19  C   UNL     1       0.834   1.126  23.839  0.00  0.00    +0.166 C 
ATOM     20  C   UNL     1       1.281   0.655  23.330  0.00  0.00    +0.156 C 
ATOM     21  C   UNL     1       0.790   0.063  23.032  0.00  0.00    +0.166 C 
ATOM     22  O   UNL     1       0.039   0.168  23.357  0.00  0.00    -0.350 OA
ATOM     23  C   UNL     1       0.066   0.825  23.856  0.00  0.00    +0.166 C 
ENDROOT
BRANCH  20  24
ATOM     24  N   UNL     1       2.080   0.758  23.150  0.00  0.00    -0.185 NA
ATOM     25  C   UNL     1       2.598   0.119  23.194  0.00  0.00    +0.323 C 
ATOM     26  O   UNL     1       2.320  -0.624  23.419  0.00  0.00    -0.251 OA
ATOM     27  N   UNL     1       3.397   0.222  23.014  0.00  0.00    -0.258 N 
ATOM     28  C   UNL     1       3.916  -0.418  23.059  0.00  0.00    +0.127 C 
ATOM     29  C   UNL     1       4.715  -0.315  22.879  0.00  0.00    +0.164 C 
ATOM     30  O   UNL     1       4.994   0.429  22.655  0.00  0.00    -0.350 OA
ATOM     31  C   UNL     1       4.475   1.067  22.610  0.00  0.00    +0.164 C 
ATOM     32  C   UNL     1       3.676   0.965  22.790  0.00  0.00    +0.127 C 
ENDBRANCH  20  24
BRANCH  16  15
ATOM     10  C   UNL     1      -3.007   2.378  24.679  0.00  0.00    +0.086 A 
ATOM     11  C   UNL     1      -2.723   3.126  24.477  0.00  0.00    +0.040 A 
ATOM     12  C   UNL     1      -1.925   3.229  24.297  0.00  0.00    +0.103 A 
ATOM     13  N   UNL     1      -1.410   2.585  24.319  0.00  0.00    -0.211 NA
ATOM     14  C   UNL     1      -1.694   1.837  24.522  0.00  0.00    +0.237 A 
ATOM     15  N   UNL     1      -1.179   1.192  24.545  0.00  0.00    -0.200 NA
ATOM     33  N   UNL     1      -2.492   1.734  24.702  0.00  0.00    -0.212 NA
BRANCH  10   7
ATOM      4  C   UNL     1      -5.403   2.069  25.219  0.00  0.00    +0.048 A 
ATOM      5  C   UNL     1      -5.017   2.766  25.436  0.00  0.00    +0.015 A 
ATOM      6  C   UNL     1      -4.219   2.869  25.256  0.00  0.00    +0.003 A 
ATOM      7  C   UNL     1      -3.805   2.275  24.859  0.00  0.00    +0.018 A 
ATOM      8  C   UNL     1      -4.190   1.579  24.642  0.00  0.00    +0.003 A 
ATOM      9  C   UNL     1      -4.989   1.475  24.822  0.00  0.00    +0.015 A 
BRANCH   4   2
ATOM      1  C   UNL     1      -6.754   1.891  24.791  0.00  0.00    +0.112 C 
ATOM      2  N   UNL     1      -6.201   1.966  25.398  0.00  0.00    -0.304 N 
ATOM      3  C   UNL     1      -6.447   1.937  26.186  0.00  0.00    +0.112 C 
ENDBRANCH   4   2
ENDBRANCH  10   7
ENDBRANCH  16  15
TORSDOF 4
ENDMDL
MODEL 2
REMARK VINA RESULT:      -7.5      1.735      7.449
REMARK  Name = 
REMARK  4 active torsions:
REMARK  status: ('A' for Active; 'I' for Inactive)
REMARK    1  A    between atoms: N_2  and  C_4
REMARK    2  A    between atoms: C_7  and  C_10
REMARK    3  A    between atoms: N_15  and  C_16
REMARK    4  A    between atoms: C_20  and  N_24
REMARK                            x       y       z     vdW  Elec       q    Type
REMARK                         _______ _______ _______ _____ _____    ______ ____
ROOT
ATOM     16  C   UNL     1      -0.523   1.020  24.320  0.00  0.00    +0.154 C 
ATOM     17  C   UNL     1      -1.016   0.396  24.100  0.00  0.00    +0.166 C 
ATOM     18  O   UNL     1      -1.797   0.645  24.189  0.00  0.00    -0.350 OA
ATOM     19  C   UNL     1      -1.787   1.422  24.463  0.00  0.00    +0.166 C 
ATOM     20  C   UNL     1      -2.263   2.058  24.688  0.00  0.00    +0.156 C 
ATOM     21  C   UNL     1      -1.770   2.682  24.908  0.00  0.00    +0.166 C 
ATOM     22  O   UNL     1      -0.989   2.432  24.819  0.00  0.00    -0.350 OA
ATOM     23  C   UNL     1      -0.999   1.654  24.544  0.00  0.00    +0.166 C 
ENDROOT
BRANCH  20  24
ATOM     24  N   UNL     1      -3.088   2.067  24.692  0.00  0.00    -0.185 NA
ATOM     25  C   UNL     1      -3.492   2.641  25.126  0.00  0.00    +0.323 C 
ATOM     26  O   UNL     1      -3.072   3.207  25.554  0.00  0.00    -0.251 OA
ATOM     27  N   UNL     1      -4.317   2.651  25.130  0.00  0.00    -0.258 N 
ATOM     28  C   UNL     1      -4.721   3.225  25.563  0.00  0.00    +0.127 C 
ATOM     29  C   UNL     1      -5.546   3.235  25.568  0.00  0.00    +0.164 C 
ATOM     30  O   UNL     1      -5.967   2.669  25.138  0.00  0.00    -0.350 OA
ATOM     31  C   UNL     1      -5.563   2.095  24.706  0.00  0.00    +0.164 C 
ATOM     32  C   UNL     1      -4.738   2.085  24.701  0.00  0.00    +0.127 C 
ENDBRANCH  20  24
BRANCH  16  15
ATOM     10  C   UNL     1       1.938   0.239  23.092  0.00  0.00    +0.086 A 
ATOM     11  C   UNL     1       1.518  -0.132  22.487  0.00  0.00    +0.040 A 
ATOM     12  C   UNL     1       0.693  -0.123  22.491  0.00  0.00    +0.103 A 
ATOM     13  N   UNL     1       0.287   0.258  23.101  0.00  0.00    -0.211 NA
ATOM     14  C   UNL     1       0.708   0.630  23.706  0.00  0.00    +0.237 A 
ATOM     15  N   UNL     1       0.302   1.010  24.315  0.00  0.00    -0.200 NA
ATOM     33  N   UNL     1       1.532   0.620  23.701  0.00  0.00    -0.212 NA
BRANCH  10   7
ATOM      4  C   UNL     1       4.413   0.210  23.079  0.00  0.00    +0.048 A 
ATOM      5  C   UNL     1       4.005   0.868  22.791  0.00  0.00    +0.015 A 
ATOM      6  C   UNL     1       3.181   0.878  22.795  0.00  0.00    +0.003 A 
ATOM      7  C   UNL     1       2.762   0.230  23.087  0.00  0.00    +0.018 A 
ATOM      8  C   UNL     1       3.168  -0.428  23.375  0.00  0.00    +0.003 A 
ATOM      9  C   UNL     1       3.994  -0.437  23.371  0.00  0.00    +0.015 A 
BRANCH   4   2
ATOM      1  C   UNL     1       5.642  -0.138  22.440  0.00  0.00    +0.112 C 
ATOM      2  N   UNL     1       5.237   0.201  23.074  0.00  0.00    -0.304 N 
ATOM      3  C   UNL     1       5.658   0.531  23.703  0.00  0.00    +0.112 C 
ENDBRANCH   4   2
ENDBRANCH  10   7
ENDBRANCH  16  15
TORSDOF 4
ENDMDL
MODEL 3
REMARK VINA RESULT:      -5.8     17.843     19.741
REMARK  Name = 
REMARK  4 active torsions:
REMARK  status: ('A' for Active; 'I' for Inactive)
REMARK    1  A    between atoms: N_2  and  C_4
REMARK    2  A    between atoms: C_7  and  C_10
REMARK    3  A    between atoms: N_15  and  C_16
REMARK    4  A    between atoms: C_20  and  N_24
REMARK                            x       y       z     vdW  Elec       q    Type
REMARK                         _______ _______ _______ _____ _____    ______ ____
ROOT
ATOM     16  C   UNL     1      16.792  -6.258  26.566  0.00  0.00    +0.154 C 
ATOM     17  C   UNL     1      17.405  -6.799  26.460  0.00  0.00    +0.166 C 
ATOM     18  O   UNL     1      17.252  -7.452  26.940  0.00  0.00    -0.350 OA
ATOM     19  C   UNL     1      16.546  -7.315  27.342  0.00  0.00    +0.166 C 
ATOM     20  C   UNL     1      16.015  -7.632  27.888  0.00  0.00    +0.156 C 
ATOM     21  C   UNL     1      15.402  -7.090  27.994  0.00  0.00    +0.166 C 
ATOM     22  O   UNL     1      15.555  -6.437  27.514  0.00  0.00    -0.350 OA
ATOM     23  C   UNL     1      16.262  -6.576  27.111  0.00  0.00    +0.166 C 
ENDROOT
BRANCH  20  24
ATOM     24  N   UNL     1      16.085  -8.365  28.262  0.00  0.00    -0.185 NA
ATOM     25  C   UNL     1      15.608  -8.543  28.911  0.00  0.00    +0.323 C 
ATOM     26  O   UNL     1      15.061  -7.990  29.187  0.00  0.00    -0.251 OA
ATOM     27  N   UNL     1      15.678  -9.275  29.285  0.00  0.00    -0.258 N 
ATOM     28  C   UNL     1      15.201  -9.454  29.934  0.00  0.00    +0.127 C 
ATOM     29  C   UNL     1      15.270 -10.186  30.309  0.00  0.00    +0.164 C 
ATOM     30  O   UNL     1      15.817 -10.739  30.033  0.00  0.00    -0.350 OA
ATOM     31  C   UNL     1      16.293 -10.560  29.385  0.00  0.00    +0.164 C 
ATOM     32  C   UNL     1      16.224  -9.828  29.010  0.00  0.00    +0.127 C 
ENDBRANCH  20  24
BRANCH  16  15
ATOM     10  C   UNL     1      17.055  -4.639  24.224  0.00  0.00    +0.086 A 
ATOM     11  C   UNL     1      17.326  -5.294  23.802  0.00  0.00    +0.040 A 
ATOM     12  C   UNL     1      17.396  -6.026  24.176  0.00  0.00    +0.103 A 
ATOM     13  N   UNL     1      17.195  -6.104  24.973  0.00  0.00    -0.211 NA
ATOM     14  C   UNL     1      16.924  -5.448  25.395  0.00  0.00    +0.237 A 
ATOM     15  N   UNL     1      16.722  -5.525  26.191  0.00  0.00    -0.200 NA
ATOM     33  N   UNL     1      16.854  -4.716  25.021  0.00  0.00    -0.212 NA
BRANCH  10   7
ATOM      4  C   UNL     1      16.847  -2.443  23.102  0.00  0.00    +0.048 A 
ATOM      5  C   UNL     1      16.428  -3.095  22.816  0.00  0.00    +0.015 A 
ATOM      6  C   UNL     1      16.498  -3.826  23.190  0.00  0.00    +0.003 A 
ATOM      7  C   UNL     1      16.986  -3.908  23.850  0.00  0.00    +0.018 A 
ATOM      8  C   UNL     1      17.404  -3.257  24.136  0.00  0.00    +0.003 A 
ATOM      9  C   UNL     1      17.335  -2.524  23.762  0.00  0.00    +0.015 A 
BRANCH   4   2
ATOM      1  C   UNL     1      16.145  -1.214  22.910  0.00  0.00    +0.112 C 
ATOM      2  N   UNL     1      16.777  -1.712  22.728  0.00  0.00    -0.304 N 
ATOM      3  C   UNL     1      17.339  -1.477  22.171  0.00  0.00    +0.112 C 
ENDBRANCH   4   2
ENDBRANCH  10   7
ENDBRANCH  16  15
TORSDOF 4
ENDMDL
MODEL 4
REMARK VINA RESULT:      -5.8     15.989     18.226
REMARK  Name = 
REMARK  4 active torsions:
REMARK  status: ('A' for Active; 'I' for Inactive)
REMARK    1  A    between atoms: N_2  and  C_4
REMARK    2  A    between atoms: C_7  and  C_10
REMARK    3  A    between atoms: N_15  and  C_16
REMARK    4  A    between atoms: C_20  and  N_24
REMARK                            x       y       z     vdW  Elec       q    Type
REMARK                         _______ _______ _______ _____ _____    ______ ____
ROOT
ATOM     16  C   UNL     1      11.946  -7.579  32.117  0.00  0.00    +0.154 C 
ATOM     17  C   UNL     1      12.105  -8.232  31.641  0.00  0.00    +0.166 C 
ATOM     18  O   UNL     1      11.420  -8.690  31.600  0.00  0.00    -0.350 OA
ATOM     19  C   UNL     1      10.838  -8.320  32.051  0.00  0.00    +0.166 C 
ATOM     20  C   UNL     1      10.055  -8.373  32.306  0.00  0.00    +0.156 C 
ATOM     21  C   UNL     1       9.896  -7.719  32.783  0.00  0.00    +0.166 C 
ATOM     22  O   UNL     1      10.581  -7.261  32.823  0.00  0.00    -0.350 OA
ATOM     23  C   UNL     1      11.163  -7.632  32.371  0.00  0.00    +0.166 C 
ENDROOT
BRANCH  20  24
ATOM     24  N   UNL     1       9.524  -8.975  32.116  0.00  0.00    -0.185 NA
ATOM     25  C   UNL     1       8.714  -8.818  32.090  0.00  0.00    +0.323 C 
ATOM     26  O   UNL     1       8.435  -8.059  32.254  0.00  0.00    -0.251 OA
ATOM     27  N   UNL     1       8.183  -9.421  31.901  0.00  0.00    -0.258 N 
ATOM     28  C   UNL     1       7.373  -9.264  31.875  0.00  0.00    +0.127 C 
ATOM     29  C   UNL     1       6.842  -9.866  31.685  0.00  0.00    +0.164 C 
ATOM     30  O   UNL     1       7.121 -10.625  31.522  0.00  0.00    -0.350 OA
ATOM     31  C   UNL     1       7.930 -10.781  31.548  0.00  0.00    +0.164 C 
ATOM     32  C   UNL     1       8.462 -10.180  31.737  0.00  0.00    +0.127 C 
ENDBRANCH  20  24
BRANCH  16  15
ATOM     10  C   UNL     1      13.841  -5.601  31.300  0.00  0.00    +0.086 A 
ATOM     11  C   UNL     1      13.726  -5.817  30.512  0.00  0.00    +0.040 A 
ATOM     12  C   UNL     1      13.195  -6.419  30.322  0.00  0.00    +0.103 A 
ATOM     13  N   UNL     1      12.778  -6.806  30.920  0.00  0.00    -0.211 NA
ATOM     14  C   UNL     1      12.893  -6.589  31.709  0.00  0.00    +0.237 A 
ATOM     15  N   UNL     1      12.477  -6.976  32.307  0.00  0.00    -0.200 NA
ATOM     33  N   UNL     1      13.424  -5.988  31.898  0.00  0.00    -0.212 NA
BRANCH  10   7
ATOM      4  C   UNL     1      15.434  -3.794  31.868  0.00  0.00    +0.048 A 
ATOM      5  C   UNL     1      15.698  -4.468  31.471  0.00  0.00    +0.015 A 
ATOM      6  C   UNL     1      15.167  -5.069  31.281  0.00  0.00    +0.003 A 
ATOM      7  C   UNL     1      14.372  -4.999  31.489  0.00  0.00    +0.018 A 
ATOM      8  C   UNL     1      14.107  -4.326  31.886  0.00  0.00    +0.003 A 
ATOM      9  C   UNL     1      14.638  -3.723  32.075  0.00  0.00    +0.015 A 
BRANCH   4   2
ATOM      1  C   UNL     1      16.444  -3.260  32.724  0.00  0.00    +0.112 C 
ATOM      2  N   UNL     1      15.965  -3.192  32.057  0.00  0.00    -0.304 N 
ATOM      3  C   UNL     1      16.016  -2.521  31.579  0.00  0.00    +0.112 C 
ENDBRANCH   4   2
ENDBRANCH  10   7
ENDBRANCH  16  15
TORSDOF 4
ENDMDL
MODEL 5
REMARK VINA RESULT:      -5.2     14.603     18.448
REMARK  Name = 
REMARK  4 active torsions:
REMARK  status: ('A' for Active; 'I' for Inactive)
REMARK    1  A    between atoms: N_2  and  C_4
REMARK    2  A    between atoms: C_7  and  C_10
REMARK    3  A    between atoms: N_15  and  C_16
REMARK    4  A    between atoms: C_20  and  N_24
REMARK                            x       y       z     vdW  Elec       q    Type
REMARK                         _______ _______ _______ _____ _____    ______ ____
ROOT
ATOM     16  C   UNL     1      11.345  -7.699  32.172  0.00  0.00    +0.154 C 
ATOM     17  C   UNL     1      11.062  -6.955  32.389  0.00  0.00    +0.166 C 
ATOM     18  O   UNL     1      10.244  -7.012  32.480  0.00  0.00    -0.350 OA
ATOM     19  C   UNL     1      10.022  -7.789  32.320  0.00  0.00    +0.166 C 
ATOM     20  C   UNL     1       9.380  -8.306  32.277  0.00  0.00    +0.156 C 
ATOM     21  C   UNL     1       9.664  -9.049  32.059  0.00  0.00    +0.166 C 
ATOM     22  O   UNL     1      10.482  -8.993  31.968  0.00  0.00    -0.350 OA
ATOM     23  C   UNL     1      10.703  -8.214  32.129  0.00  0.00    +0.166 C 
ENDROOT
BRANCH  20  24
ATOM     24  N   UNL     1       8.592  -8.112  32.425  0.00  0.00    -0.185 NA
ATOM     25  C   UNL     1       7.997  -8.394  31.928  0.00  0.00    +0.323 C 
ATOM     26  O   UNL     1       8.190  -8.870  31.282  0.00  0.00    -0.251 OA
ATOM     27  N   UNL     1       7.209  -8.201  32.076  0.00  0.00    -0.258 N 
ATOM     28  C   UNL     1       6.614  -8.483  31.579  0.00  0.00    +0.127 C 
ATOM     29  C   UNL     1       5.825  -8.289  31.727  0.00  0.00    +0.164 C 
ATOM     30  O   UNL     1       5.633  -7.813  32.374  0.00  0.00    -0.350 OA
ATOM     31  C   UNL     1       6.227  -7.532  32.870  0.00  0.00    +0.164 C 
ATOM     32  C   UNL     1       7.016  -7.725  32.722  0.00  0.00    +0.127 C 
ENDBRANCH  20  24
BRANCH  16  15
ATOM     10  C   UNL     1      13.760  -7.289  30.697  0.00  0.00    +0.086 A 
ATOM     11  C   UNL     1      13.390  -6.697  30.257  0.00  0.00    +0.040 A 
ATOM     12  C   UNL     1      12.602  -6.504  30.406  0.00  0.00    +0.103 A 
ATOM     13  N   UNL     1      12.183  -6.902  30.994  0.00  0.00    -0.211 NA
ATOM     14  C   UNL     1      12.553  -7.494  31.434  0.00  0.00    +0.237 A 
ATOM     15  N   UNL     1      12.134  -7.892  32.023  0.00  0.00    -0.200 NA
ATOM     33  N   UNL     1      13.340  -7.687  31.286  0.00  0.00    -0.212 NA
BRANCH  10   7
ATOM      4  C   UNL     1      16.124  -7.870  30.251  0.00  0.00    +0.048 A 
ATOM      5  C   UNL     1      15.941  -7.225  30.732  0.00  0.00    +0.015 A 
ATOM      6  C   UNL     1      15.153  -7.031  30.881  0.00  0.00    +0.003 A 
ATOM      7  C   UNL     1      14.547  -7.483  30.549  0.00  0.00    +0.018 A 
ATOM      8  C   UNL     1      14.730  -8.127  30.068  0.00  0.00    +0.003 A 
ATOM      9  C   UNL     1      15.518  -8.321  29.919  0.00  0.00    +0.015 A 
BRANCH   4   2
ATOM      1  C   UNL     1      17.297  -7.746  29.446  0.00  0.00    +0.112 C 
ATOM      2  N   UNL     1      16.911  -8.063  30.102  0.00  0.00    -0.304 N 
ATOM      3  C   UNL     1      17.314  -8.574  30.610  0.00  0.00    +0.112 C 
ENDBRANCH   4   2
ENDBRANCH  10   7
ENDBRANCH  16  15
TORSDOF 4
ENDMDL
MODEL 6
REMARK VINA RESULT:      -5.1     16.313     18.018
REMARK  Name = 
REMARK  4 active torsions:
REMARK  status: ('A' for Active; 'I' for Inactive)
REMARK    1  A    between atoms: N_2  and  C_4
REMARK    2  A    between atoms: C_7  and  C_10
REMARK    3  A    between atoms: N_15  and  C_16
REMARK    4  A    between atoms: C_20  and  N_24
REMARK                            x       y       z     vdW  Elec       q    Type
REMARK                         _______ _______ _______ _____ _____    ______ ____
ROOT
ATOM     16  C   UNL     1      -5.018  -9.859  11.525  0.00  0.00    +0.154 C 
ATOM     17  C   UNL     1      -5.651 -10.386  11.566  0.00  0.00    +0.166 C 
ATOM     18  O   UNL     1      -6.204 -10.163  10.996  0.00  0.00    -0.350 OA
ATOM     19  C   UNL     1      -5.914  -9.499  10.603  0.00  0.00    +0.166 C 
ATOM     20  C   UNL     1      -6.075  -8.951  10.008  0.00  0.00    +0.156 C 
ATOM     21  C   UNL     1      -5.441  -8.425   9.967  0.00  0.00    +0.166 C 
ATOM     22  O   UNL     1      -4.888  -8.647  10.536  0.00  0.00    -0.350 OA
ATOM     23  C   UNL     1      -5.180  -9.312  10.930  0.00  0.00    +0.166 C 
ENDROOT
BRANCH  20  24
ATOM     24  N   UNL     1      -6.752  -8.933   9.537  0.00  0.00    -0.185 NA
ATOM     25  C   UNL     1      -7.237  -8.265   9.537  0.00  0.00    +0.323 C 
ATOM     26  O   UNL     1      -7.046  -7.616  10.009  0.00  0.00    -0.251 OA
ATOM     27  N   UNL     1      -7.914  -8.247   9.066  0.00  0.00    -0.258 N 
ATOM     28  C   UNL     1      -8.399  -7.580   9.067  0.00  0.00    +0.127 C 
ATOM     29  C   UNL     1      -9.077  -7.561   8.596  0.00  0.00    +0.164 C 
ATOM     30  O   UNL     1      -9.268  -8.211   8.124  0.00  0.00    -0.350 OA
ATOM     31  C   UNL     1      -8.783  -8.877   8.124  0.00  0.00    +0.164 C 
ATOM     32  C   UNL     1      -8.106  -8.897   8.595  0.00  0.00    +0.127 C 
ENDBRANCH  20  24
BRANCH  16  15
ATOM     10  C   UNL     1      -3.751 -10.456  14.017  0.00  0.00    +0.086 A 
ATOM     11  C   UNL     1      -4.472 -10.718  14.320  0.00  0.00    +0.040 A 
ATOM     12  C   UNL     1      -5.149 -10.700  13.849  0.00  0.00    +0.103 A 
ATOM     13  N   UNL     1      -5.106 -10.420  13.074  0.00  0.00    -0.211 NA
ATOM     14  C   UNL     1      -4.384 -10.158  12.771  0.00  0.00    +0.237 A 
ATOM     15  N   UNL     1      -4.340  -9.877  11.996  0.00  0.00    -0.200 NA
ATOM     33  N   UNL     1      -3.707 -10.176  13.242  0.00  0.00    -0.212 NA
BRANCH  10   7
ATOM      4  C   UNL     1      -1.720 -10.511  15.430  0.00  0.00    +0.048 A 
ATOM      5  C   UNL     1      -2.466 -10.597  15.774  0.00  0.00    +0.015 A 
ATOM      6  C   UNL     1      -3.142 -10.579  15.303  0.00  0.00    +0.003 A 
ATOM      7  C   UNL     1      -3.075 -10.474  14.488  0.00  0.00    +0.018 A 
ATOM      8  C   UNL     1      -2.330 -10.388  14.143  0.00  0.00    +0.003 A 
ATOM      9  C   UNL     1      -1.653 -10.407  14.615  0.00  0.00    +0.015 A 
BRANCH   4   2
ATOM      1  C   UNL     1      -1.095 -10.778  16.686  0.00  0.00    +0.112 C 
ATOM      2  N   UNL     1      -1.044 -10.529  15.901  0.00  0.00    -0.304 N 
ATOM      3  C   UNL     1      -0.316 -10.299  15.588  0.00  0.00    +0.112 C 
ENDBRANCH   4   2
ENDBRANCH  10   7
ENDBRANCH  16  15
TORSDOF 4
ENDMDL
MODEL 7
REMARK VINA RESULT:      -4.7     14.780     17.077
REMARK  Name = 
REMARK  4 active torsions:
REMARK  status: ('A' for Active; 'I' for Inactive)
REMARK    1  A    between atoms: N_2  and  C_4
REMARK    2  A    between atoms: C_7  and  C_10
REMARK    3  A    between atoms: N_15  and  C_16
REMARK    4  A    between atoms: C_20  and  N_24
REMARK                            x       y       z     vdW  Elec       q    Type
REMARK                         _______ _______ _______ _____ _____    ______ ____
ROOT
ATOM     16  C   UNL     1      12.038  -7.104  31.895  0.00  0.00    +0.154 C 
ATOM     17  C   UNL     1      12.565  -7.480  32.406  0.00  0.00    +0.166 C 
ATOM     18  O   UNL     1      13.329  -7.352  32.121  0.00  0.00    -0.350 OA
ATOM     19  C   UNL     1      13.274  -6.899  31.435  0.00  0.00    +0.166 C 
ATOM     20  C   UNL     1      13.711  -6.539  30.835  0.00  0.00    +0.156 C 
ATOM     21  C   UNL     1      13.183  -6.164  30.324  0.00  0.00    +0.166 C 
ATOM     22  O   UNL     1      12.420  -6.291  30.609  0.00  0.00    -0.350 OA
ATOM     23  C   UNL     1      12.475  -6.745  31.296  0.00  0.00    +0.166 C 
ENDROOT
BRANCH  20  24
ATOM     24  N   UNL     1      14.532  -6.553  30.759  0.00  0.00    -0.185 NA
ATOM     25  C   UNL     1      14.934  -5.883  30.494  0.00  0.00    +0.323 C 
ATOM     26  O   UNL     1      14.514  -5.198  30.306  0.00  0.00    -0.251 OA
ATOM     27  N   UNL     1      15.755  -5.897  30.418  0.00  0.00    -0.258 N 
ATOM     28  C   UNL     1      16.157  -5.227  30.154  0.00  0.00    +0.127 C 
ATOM     29  C   UNL     1      16.978  -5.240  30.078  0.00  0.00    +0.164 C 
ATOM     30  O   UNL     1      17.398  -5.925  30.267  0.00  0.00    -0.350 OA
ATOM     31  C   UNL     1      16.996  -6.595  30.531  0.00  0.00    +0.164 C 
ATOM     32  C   UNL     1      16.175  -6.582  30.607  0.00  0.00    +0.127 C 
ENDBRANCH  20  24
BRANCH  16  15
ATOM     10  C   UNL     1       9.564  -8.482  32.283  0.00  0.00    +0.086 A 
ATOM     11  C   UNL     1       9.969  -9.199  32.324  0.00  0.00    +0.040 A 
ATOM     12  C   UNL     1      10.791  -9.213  32.248  0.00  0.00    +0.103 A 
ATOM     13  N   UNL     1      11.207  -8.510  32.131  0.00  0.00    -0.211 NA
ATOM     14  C   UNL     1      10.800  -7.793  32.089  0.00  0.00    +0.237 A 
ATOM     15  N   UNL     1      11.216  -7.090  31.971  0.00  0.00    -0.200 NA
ATOM     33  N   UNL     1       9.979  -7.779  32.165  0.00  0.00    -0.212 NA
BRANCH  10   7
ATOM      4  C   UNL     1       7.099  -8.440  32.511  0.00  0.00    +0.048 A 
ATOM      5  C   UNL     1       7.464  -9.038  32.073  0.00  0.00    +0.015 A 
ATOM      6  C   UNL     1       8.285  -9.052  31.997  0.00  0.00    +0.003 A 
ATOM      7  C   UNL     1       8.743  -8.468  32.359  0.00  0.00    +0.018 A 
ATOM      8  C   UNL     1       8.379  -7.871  32.796  0.00  0.00    +0.003 A 
ATOM      9  C   UNL     1       7.557  -7.857  32.872  0.00  0.00    +0.015 A 
BRANCH   4   2
ATOM      1  C   UNL     1       5.880  -9.090  32.873  0.00  0.00    +0.112 C 
ATOM      2  N   UNL     1       6.278  -8.427  32.587  0.00  0.00    -0.304 N 
ATOM      3  C   UNL     1       5.855  -7.750  32.377  0.00  0.00    +0.112 C 
ENDBRANCH   4   2
ENDBRANCH  10   7
ENDBRANCH  16  15
TORSDOF 4
ENDMDL
MODEL 8
REMARK VINA RESULT:      -4.6     17.691     19.657
REMARK  Name = 
REMARK  4 active torsions:
REMARK  status: ('A' for Active; 'I' for Inactive)
REMARK    1  A    between atoms: N_2  and  C_4
REMARK    2  A    between atoms: C_7  and  C_10
REMARK    3  A    between atoms: N_15  and  C_16
REMARK    4  A    between atoms: C_20  and  N_24
REMARK                            x       y       z     vdW  Elec       q    Type
REMARK                         _______ _______ _______ _____ _____    ______ ____
ROOT
ATOM     16  C   UNL     1      -5.081  -9.568   9.212  0.00  0.00    +0.154 C 
ATOM     17  C   UNL     1      -5.233 -10.349   8.995  0.00  0.00    +0.166 C 
ATOM     18  O   UNL     1      -6.040 -10.417   8.839  0.00  0.00    -0.350 OA
ATOM     19  C   UNL     1      -6.386  -9.679   8.959  0.00  0.00    +0.166 C 
ATOM     20  C   UNL     1      -7.099  -9.263   8.937  0.00  0.00    +0.156 C 
ATOM     21  C   UNL     1      -6.946  -8.482   9.154  0.00  0.00    +0.166 C 
ATOM     22  O   UNL     1      -6.139  -8.414   9.310  0.00  0.00    -0.350 OA
ATOM     23  C   UNL     1      -5.793  -9.154   9.190  0.00  0.00    +0.166 C 
ENDROOT
BRANCH  20  24
ATOM     24  N   UNL     1      -7.835  -9.575   8.734  0.00  0.00    -0.185 NA
ATOM     25  C   UNL     1      -8.511  -9.340   9.145  0.00  0.00    +0.323 C 
ATOM     26  O   UNL     1      -8.450  -8.793   9.760  0.00  0.00    -0.251 OA
ATOM     27  N   UNL     1      -9.247  -9.652   8.941  0.00  0.00    -0.258 N 
ATOM     28  C   UNL     1      -9.923  -9.417   9.352  0.00  0.00    +0.127 C 
ATOM     29  C   UNL     1     -10.659  -9.728   9.150  0.00  0.00    +0.164 C 
ATOM     30  O   UNL     1     -10.719 -10.275   8.534  0.00  0.00    -0.350 OA
ATOM     31  C   UNL     1     -10.044 -10.510   8.124  0.00  0.00    +0.164 C 
ATOM     32  C   UNL     1      -9.307 -10.199   8.327  0.00  0.00    +0.127 C 
ENDBRANCH  20  24
BRANCH  16  15
ATOM     10  C   UNL     1      -2.661  -9.720  10.726  0.00  0.00    +0.086 A 
ATOM     11  C   UNL     1      -2.923 -10.419  11.076  0.00  0.00    +0.040 A 
ATOM     12  C   UNL     1      -3.660 -10.731  10.872  0.00  0.00    +0.103 A 
ATOM     13  N   UNL     1      -4.134 -10.344  10.319  0.00  0.00    -0.211 NA
ATOM     14  C   UNL     1      -3.870  -9.644   9.969  0.00  0.00    +0.237 A 
ATOM     15  N   UNL     1      -4.344  -9.256   9.415  0.00  0.00    -0.200 NA
ATOM     33  N   UNL     1      -3.134  -9.332  10.172  0.00  0.00    -0.212 NA
BRANCH  10   7
ATOM      4  C   UNL     1      -0.452  -8.785  11.336  0.00  0.00    +0.048 A 
ATOM      5  C   UNL     1      -0.849  -9.282  11.862  0.00  0.00    +0.015 A 
ATOM      6  C   UNL     1      -1.585  -9.593  11.658  0.00  0.00    +0.003 A 
ATOM      7  C   UNL     1      -1.925  -9.408  10.929  0.00  0.00    +0.018 A 
ATOM      8  C   UNL     1      -1.528  -8.912  10.404  0.00  0.00    +0.003 A 
ATOM      9  C   UNL     1      -0.791  -8.600  10.607  0.00  0.00    +0.015 A 
BRANCH   4   2
ATOM      1  C   UNL     1       0.367  -8.028  12.229  0.00  0.00    +0.112 C 
ATOM      2  N   UNL     1       0.284  -8.474  11.540  0.00  0.00    -0.304 N 
ATOM      3  C   UNL     1       0.938  -8.607  11.054  0.00  0.00    +0.112 C 
ENDBRANCH   4   2
ENDBRANCH  10   7
ENDBRANCH  16  15
TORSDOF 4
ENDMDL
MODEL 9
REMARK VINA RESULT:      -4.1     18.283     19.768
REMARK  Name = 
REMARK  4 active torsions:
REMARK  status: ('A' for Active; 'I' for Inactive)
REMARK    1  A    between atoms: N_2  and  C_4
REMARK    2  A    between atoms: C_7  and  C_10
REMARK    3  A    between atoms: N_15  and  C_16
REMARK    4  A    between atoms: C_20  and  N_24
REMARK                            x       y       z     vdW  Elec       q    Type
REMARK                         _______ _______ _______ _____ _____    ______ ____
ROOT
ATOM     16  C   UNL     1      17.403  -4.454  27.686  0.00  0.00    +0.154 C 
ATOM     17  C   UNL     1      17.400  -3.670  27.944  0.00  0.00    +0.166 C 
ATOM     18  O   UNL     1      17.398  -3.183  27.279  0.00  0.00    -0.350 OA
ATOM     19  C   UNL     1      17.400  -3.665  26.610  0.00  0.00    +0.166 C 
ATOM     20  C   UNL     1      17.400  -3.663  25.785  0.00  0.00    +0.156 C 
ATOM     21  C   UNL     1      17.404  -4.446  25.527  0.00  0.00    +0.166 C 
ATOM     22  O   UNL     1      17.405  -4.933  26.192  0.00  0.00    -0.350 OA
ATOM     23  C   UNL     1      17.403  -4.450  26.862  0.00  0.00    +0.166 C 
ENDROOT
BRANCH  20  24
ATOM     24  N   UNL     1      17.398  -2.993  25.302  0.00  0.00    -0.185 NA
ATOM     25  C   UNL     1      17.054  -3.026  24.553  0.00  0.00    +0.323 C 
ATOM     26  O   UNL     1      16.712  -3.727  24.286  0.00  0.00    -0.251 OA
ATOM     27  N   UNL     1      17.051  -2.356  24.071  0.00  0.00    -0.258 N 
ATOM     28  C   UNL     1      16.707  -2.389  23.322  0.00  0.00    +0.127 C 
ATOM     29  C   UNL     1      16.704  -1.720  22.839  0.00  0.00    +0.164 C 
ATOM     30  O   UNL     1      17.047  -1.018  23.106  0.00  0.00    -0.350 OA
ATOM     31  C   UNL     1      17.391  -0.986  23.855  0.00  0.00    +0.164 C 
ATOM     32  C   UNL     1      17.394  -1.655  24.338  0.00  0.00    +0.127 C 
ENDBRANCH  20  24
BRANCH  16  15
ATOM     10  C   UNL     1      16.705  -5.736  30.144  0.00  0.00    +0.086 A 
ATOM     11  C   UNL     1      16.352  -5.039  30.407  0.00  0.00    +0.040 A 
ATOM     12  C   UNL     1      16.350  -4.370  29.925  0.00  0.00    +0.103 A 
ATOM     13  N   UNL     1      16.701  -4.397  29.179  0.00  0.00    -0.211 NA
ATOM     14  C   UNL     1      17.054  -5.095  28.915  0.00  0.00    +0.237 A 
ATOM     15  N   UNL     1      17.405  -5.123  28.169  0.00  0.00    -0.200 NA
ATOM     33  N   UNL     1      17.056  -5.764  29.398  0.00  0.00    -0.212 NA
BRANCH  10   7
ATOM      4  C   UNL     1      16.712  -7.744  31.592  0.00  0.00    +0.048 A 
ATOM      5  C   UNL     1      16.093  -7.620  31.060  0.00  0.00    +0.015 A 
ATOM      6  C   UNL     1      16.091  -6.951  30.578  0.00  0.00    +0.003 A 
ATOM      7  C   UNL     1      16.708  -6.405  30.626  0.00  0.00    +0.018 A 
ATOM      8  C   UNL     1      17.326  -6.528  31.158  0.00  0.00    +0.003 A 
ATOM      9  C   UNL     1      17.329  -7.197  31.641  0.00  0.00    +0.015 A 
BRANCH   4   2
ATOM      1  C   UNL     1      17.190  -9.058  31.881  0.00  0.00    +0.112 C 
ATOM      2  N   UNL     1      16.715  -8.412  32.074  0.00  0.00    -0.304 N 
ATOM      3  C   UNL     1      16.242  -8.436  32.750  0.00  0.00    +0.112 C 
ENDBRANCH   4   2
ENDBRANCH  10   7
ENDBRANCH  16  15
TORSDOF 4
ENDMDL
