MODEL 1
REMARK VINA RESULT:     -10.0      0.000      0.000
REMARK  Name = 
REMARK  8 active torsions:
REMARK  status: ('A' for Active; 'I' for Inactive)
REMARK    1  A    between atoms: N_2  and  C_4
REMARK    2  A    between atoms: C_7  and  C_10
REMARK    3  A    between atoms: N_15  and  S_35
REMARK    4  A    between atoms: C_16  and  C_18
REMARK    5  A    between atoms: N_20  and  C_21
REMARK    6  A    between atoms: C_21  and  C_22
REMARK    7  A    between atoms: C_21  and  C_32
REMARK    8  A    between atoms: C_22  and  C_23
REMARK                            x       y       z     vdW  Elec       q    Type
REMARK                         _______ _______ _______ _____ _____    ______ ____
ROOT
ATOM     10  C   UNL     1       0.364   0.148  23.453  0.00  0.00    +0.249 C 
ATOM     11  O   UNL     1      -0.043  -0.560  23.335  0.00  0.00    -0.270 OA
ATOM     12  N   UNL     1      -0.007   0.779  23.834  0.00  0.00    -0.273 N 
ATOM     13  C   UNL     1       0.400   1.486  23.952  0.00  0.00    +0.113 C 
ATOM     14  C   UNL     1       0.029   2.117  24.333  0.00  0.00    +0.117 C 
ATOM     15  N   UNL     1      -0.749   2.040  24.596  0.00  0.00    -0.148 NA
ATOM     16  C   UNL     1      -1.157   1.332  24.478  0.00  0.00    +0.176 C 
ATOM     17  C   UNL     1      -0.785   0.702  24.097  0.00  0.00    +0.121 C 
ENDROOT
BRANCH  10   7
ATOM      4  C   UNL     1       2.699   0.379  22.665  0.00  0.00    +0.048 A 
ATOM      5  C   UNL     1       2.120   0.076  22.160  0.00  0.00    +0.015 A 
ATOM      6  C   UNL     1       1.343  -0.001  22.422  0.00  0.00    +0.006 A 
ATOM      7  C   UNL     1       1.142   0.225  23.190  0.00  0.00    +0.054 A 
ATOM      8  C   UNL     1       1.720   0.527  23.696  0.00  0.00    +0.006 A 
ATOM      9  C   UNL     1       2.498   0.604  23.433  0.00  0.00    +0.015 A 
BRANCH   4   2
ATOM      1  C   UNL     1       3.654   0.355  21.603  0.00  0.00    +0.112 C 
ATOM      2  N   UNL     1       3.477   0.456  22.402  0.00  0.00    -0.304 N 
ATOM      3  C   UNL     1       4.078   0.634  22.939  0.00  0.00    +0.112 C 
ENDBRANCH   4   2
ENDBRANCH  10   7
BRANCH  15  35
ATOM     35  S   UNL     1      -1.120   2.671  24.977  0.00  0.00    +0.046 S 
ATOM     36  C   UNL     1      -1.492   3.302  25.357  0.00  0.00    +0.196 C 
ATOM     37  O   UNL     1      -0.927   2.343  25.709  0.00  0.00    -0.157 OA
ATOM     38  O   UNL     1      -1.314   2.998  24.245  0.00  0.00    -0.157 OA
ENDBRANCH  15  35
BRANCH  16  18
ATOM     18  C   UNL     1      -1.935   1.255  24.741  0.00  0.00    +0.260 C 
ATOM     19  O   UNL     1      -2.138   1.497  25.503  0.00  0.00    -0.272 OA
ATOM     20  N   UNL     1      -2.510   0.937  24.242  0.00  0.00    -0.196 NA
BRANCH  20  21
ATOM     21  C   UNL     1      -3.287   0.860  24.505  0.00  0.00    +0.179 C 
BRANCH  21  32
ATOM     32  C   UNL     1      -3.836   1.457  24.348  0.00  0.00    +0.281 C 
ATOM     33  N   UNL     1      -4.325   1.735  24.952  0.00  0.00    -0.086 NA
ATOM     34  O   UNL     1      -3.895   1.774  23.590  0.00  0.00    -0.270 OA
ENDBRANCH  21  32
BRANCH  21  22
ATOM     22  C   UNL     1      -3.517   0.188  24.924  0.00  0.00    +0.059 C 
BRANCH  22  23
ATOM     23  C   UNL     1      -3.708  -0.506  24.521  0.00  0.00    +0.001 A 
ATOM     24  C   UNL     1      -4.035  -0.553  23.765  0.00  0.00    +0.095 A 
ATOM     25  N   UNL     1      -4.134  -1.350  23.579  0.00  0.00    -0.244 NA
ATOM     26  C   UNL     1      -3.868  -1.796  24.219  0.00  0.00    +0.081 A 
ATOM     27  C   UNL     1      -3.604  -1.274  24.801  0.00  0.00    +0.015 A 
ATOM     28  C   UNL     1      -3.304  -1.567  25.512  0.00  0.00    +0.001 A 
ATOM     29  C   UNL     1      -3.267  -2.380  25.641  0.00  0.00    +0.000 A 
ATOM     30  C   UNL     1      -3.531  -2.902  25.059  0.00  0.00    +0.002 A 
ATOM     31  C   UNL     1      -3.831  -2.611  24.348  0.00  0.00    +0.019 A 
ENDBRANCH  22  23
ENDBRANCH  21  22
ENDBRANCH  20  21
ENDBRANCH  16  18
TORSDOF 8
ENDMDL
MODEL 2
REMARK VINA RESULT:      -9.7      1.713      5.489
REMARK  Name = 
REMARK  8 active torsions:
REMARK  status: ('A' for Active; 'I' for Inactive)
REMARK    1  A    between atoms: N_2  and  C_4
REMARK    2  A    between atoms: C_7  and  C_10
REMARK    3  A    between atoms: N_15  and  S_35
REMARK    4  A    between atoms: C_16  and  C_18
REMARK    5  A    between atoms: N_20  and  C_21
REMARK    6  A    between atoms: C_21  and  C_22
REMARK    7  A    between atoms: C_21  and  C_32
REMARK    8  A    between atoms: C_22  and  C_23
REMARK                            x       y       z     vdW  Elec       q    Type
REMARK                         _______ _______ _______ _____ _____    ______ ____
ROOT
ATOM     10  C   UNL     1      -2.690  -0.381  25.054  0.00  0.00    +0.249 C 
ATOM     11  O   UNL     1      -3.016   0.075  25.660  0.00  0.00    -0.270 OA
ATOM     12  N   UNL     1      -1.960  -0.175  24.730  0.00  0.00    -0.273 N 
ATOM     13  C   UNL     1      -1.634  -0.631  24.124  0.00  0.00    +0.113 C 
ATOM     14  C   UNL     1      -0.904  -0.425  23.801  0.00  0.00    +0.117 C 
ATOM     15  N   UNL     1      -0.499   0.236  24.083  0.00  0.00    -0.148 NA
ATOM     16  C   UNL     1      -0.824   0.692  24.689  0.00  0.00    +0.176 C 
ATOM     17  C   UNL     1      -1.555   0.486  25.013  0.00  0.00    +0.121 C 
ENDROOT
BRANCH  10   7
ATOM      4  C   UNL     1      -3.905  -2.364  24.207  0.00  0.00    +0.048 A 
ATOM      5  C   UNL     1      -3.353  -2.446  24.815  0.00  0.00    +0.015 A 
ATOM      6  C   UNL     1      -2.949  -1.786  25.097  0.00  0.00    +0.006 A 
ATOM      7  C   UNL     1      -3.095  -1.042  24.772  0.00  0.00    +0.054 A 
ATOM      8  C   UNL     1      -3.647  -0.959  24.164  0.00  0.00    +0.006 A 
ATOM      9  C   UNL     1      -4.052  -1.620  23.882  0.00  0.00    +0.015 A 
BRANCH   4   2
ATOM      1  C   UNL     1      -5.008  -2.928  23.494  0.00  0.00    +0.112 C 
ATOM      2  N   UNL     1      -4.310  -3.025  23.924  0.00  0.00    -0.304 N 
ATOM      3  C   UNL     1      -4.018  -3.782  24.072  0.00  0.00    +0.112 C 
ENDBRANCH   4   2
ENDBRANCH  10   7
BRANCH  15  35
ATOM     35  S   UNL     1       0.232   0.442  23.759  0.00  0.00    +0.046 S 
ATOM     36  C   UNL     1       0.962   0.648  23.435  0.00  0.00    +0.196 C 
ATOM     37  O   UNL     1       0.609  -0.065  24.290  0.00  0.00    -0.157 OA
ATOM     38  O   UNL     1      -0.147   0.947  23.229  0.00  0.00    -0.157 OA
ENDBRANCH  15  35
BRANCH  16  18
ATOM     18  C   UNL     1      -0.419   1.352  24.971  0.00  0.00    +0.260 C 
ATOM     19  O   UNL     1       0.326   1.538  24.671  0.00  0.00    -0.272 OA
ATOM     20  N   UNL     1      -0.759   1.828  25.554  0.00  0.00    -0.196 NA
BRANCH  20  21
ATOM     21  C   UNL     1      -0.354   2.488  25.836  0.00  0.00    +0.179 C 
BRANCH  21  32
ATOM     32  C   UNL     1       0.119   2.425  26.509  0.00  0.00    +0.281 C 
ATOM     33  N   UNL     1       0.894   2.709  26.495  0.00  0.00    -0.086 NA
ATOM     34  O   UNL     1      -0.181   2.078  27.194  0.00  0.00    -0.270 OA
ENDBRANCH  21  32
BRANCH  21  22
ATOM     22  C   UNL     1      -0.422   3.212  25.445  0.00  0.00    +0.059 C 
BRANCH  22  23
ATOM     23  C   UNL     1      -1.098   3.673  25.546  0.00  0.00    +0.001 A 
ATOM     24  C   UNL     1      -1.782   3.450  25.950  0.00  0.00    +0.095 A 
ATOM     25  N   UNL     1      -2.316   4.078  25.914  0.00  0.00    -0.244 NA
ATOM     26  C   UNL     1      -1.963   4.688  25.487  0.00  0.00    +0.081 A 
ATOM     27  C   UNL     1      -1.210   4.438  25.260  0.00  0.00    +0.015 A 
ATOM     28  C   UNL     1      -0.725   4.941  24.821  0.00  0.00    +0.001 A 
ATOM     29  C   UNL     1      -0.991   5.692  24.610  0.00  0.00    +0.000 A 
ATOM     30  C   UNL     1      -1.743   5.942  24.838  0.00  0.00    +0.002 A 
ATOM     31  C   UNL     1      -2.230   5.441  25.276  0.00  0.00    +0.019 A 
ENDBRANCH  22  23
ENDBRANCH  21  22
ENDBRANCH  20  21
ENDBRANCH  16  18
TORSDOF 8
ENDMDL
MODEL 3
REMARK VINA RESULT:      -9.6      1.578      3.016
REMARK  Name = 
REMARK  8 active torsions:
REMARK  status: ('A' for Active; 'I' for Inactive)
REMARK    1  A    between atoms: N_2  and  C_4
REMARK    2  A    between atoms: C_7  and  C_10
REMARK    3  A    between atoms: N_15  and  S_35
REMARK    4  A    between atoms: C_16  and  C_18
REMARK    5  A    between atoms: N_20  and  C_21
REMARK    6  A    between atoms: C_21  and  C_22
REMARK    7  A    between atoms: C_21  and  C_32
REMARK    8  A    between atoms: C_22  and  C_23
REMARK                            x       y       z     vdW  Elec       q    Type
REMARK                         _______ _______ _______ _____ _____    ______ ____
ROOT
ATOM     10  C   UNL     1       0.220   0.702  23.408  0.00  0.00    +0.249 C 
ATOM     11  O   UNL     1      -0.167   1.385  23.153  0.00  0.00    -0.270 OA
ATOM     12  N   UNL     1      -0.185   0.143  23.860  0.00  0.00    -0.273 N 
ATOM     13  C   UNL     1       0.202  -0.540  24.115  0.00  0.00    +0.113 C 
ATOM     14  C   UNL     1      -0.204  -1.099  24.567  0.00  0.00    +0.117 C 
ATOM     15  N   UNL     1      -0.995  -0.976  24.762  0.00  0.00    -0.148 NA
ATOM     16  C   UNL     1      -1.383  -0.293  24.507  0.00  0.00    +0.176 C 
ATOM     17  C   UNL     1      -0.977   0.266  24.055  0.00  0.00    +0.121 C 
ENDROOT
BRANCH  10   7
ATOM      4  C   UNL     1       2.596   0.333  22.822  0.00  0.00    +0.048 A 
ATOM      5  C   UNL     1       2.003  -0.072  22.416  0.00  0.00    +0.015 A 
ATOM      6  C   UNL     1       1.211   0.051  22.611  0.00  0.00    +0.006 A 
ATOM      7  C   UNL     1       1.012   0.579  23.213  0.00  0.00    +0.054 A 
ATOM      8  C   UNL     1       1.605   0.984  23.619  0.00  0.00    +0.006 A 
ATOM      9  C   UNL     1       2.397   0.861  23.424  0.00  0.00    +0.015 A 
BRANCH   4   2
ATOM      1  C   UNL     1       3.843  -0.321  23.065  0.00  0.00    +0.112 C 
ATOM      2  N   UNL     1       3.389   0.209  22.626  0.00  0.00    -0.304 N 
ATOM      3  C   UNL     1       3.725   0.616  21.993  0.00  0.00    +0.112 C 
ENDBRANCH   4   2
ENDBRANCH  10   7
BRANCH  15  35
ATOM     35  S   UNL     1      -1.401  -1.535  25.214  0.00  0.00    +0.046 S 
ATOM     36  C   UNL     1      -1.807  -2.094  25.664  0.00  0.00    +0.196 C 
ATOM     37  O   UNL     1      -1.234  -1.104  25.897  0.00  0.00    -0.157 OA
ATOM     38  O   UNL     1      -1.568  -1.965  24.529  0.00  0.00    -0.157 OA
ENDBRANCH  15  35
BRANCH  16  18
ATOM     18  C   UNL     1      -2.174  -0.170  24.702  0.00  0.00    +0.260 C 
ATOM     19  O   UNL     1      -2.456  -0.399  25.443  0.00  0.00    -0.272 OA
ATOM     20  N   UNL     1      -2.685   0.181  24.157  0.00  0.00    -0.196 NA
BRANCH  20  21
ATOM     21  C   UNL     1      -3.476   0.304  24.353  0.00  0.00    +0.179 C 
BRANCH  21  32
ATOM     32  C   UNL     1      -4.048  -0.244  24.120  0.00  0.00    +0.281 C 
ATOM     33  N   UNL     1      -4.625  -0.490  24.657  0.00  0.00    -0.086 NA
ATOM     34  O   UNL     1      -4.043  -0.544  23.353  0.00  0.00    -0.270 OA
ENDBRANCH  21  32
BRANCH  21  22
ATOM     22  C   UNL     1      -3.697   0.974  24.781  0.00  0.00    +0.059 C 
BRANCH  22  23
ATOM     23  C   UNL     1      -3.776   1.701  24.399  0.00  0.00    +0.001 A 
ATOM     24  C   UNL     1      -3.649   1.843  23.596  0.00  0.00    +0.095 A 
ATOM     25  N   UNL     1      -3.791   2.643  23.454  0.00  0.00    -0.244 NA
ATOM     26  C   UNL     1      -4.004   2.995  24.168  0.00  0.00    +0.081 A 
ATOM     27  C   UNL     1      -3.995   2.413  24.752  0.00  0.00    +0.015 A 
ATOM     28  C   UNL     1      -4.188   2.607  25.531  0.00  0.00    +0.001 A 
ATOM     29  C   UNL     1      -4.390   3.382  25.725  0.00  0.00    +0.000 A 
ATOM     30  C   UNL     1      -4.399   3.965  25.141  0.00  0.00    +0.002 A 
ATOM     31  C   UNL     1      -4.206   3.772  24.362  0.00  0.00    +0.019 A 
ENDBRANCH  22  23
ENDBRANCH  21  22
ENDBRANCH  20  21
ENDBRANCH  16  18
TORSDOF 8
ENDMDL
MODEL 4
REMARK VINA RESULT:      -8.9      2.861      5.309
REMARK  Name = 
REMARK  8 active torsions:
REMARK  status: ('A' for Active; 'I' for Inactive)
REMARK    1  A    between atoms: N_2  and  C_4
REMARK    2  A    between atoms: C_7  and  C_10
REMARK    3  A    between atoms: N_15  and  S_35
REMARK    4  A    between atoms: C_16  and  C_18
REMARK    5  A    between atoms: N_20  and  C_21
REMARK    6  A    between atoms: C_21  and  C_22
REMARK    7  A    between atoms: C_21  and  C_32
REMARK    8  A    between atoms: C_22  and  C_23
REMARK                            x       y       z     vdW  Elec       q    Type
REMARK                         _______ _______ _______ _____ _____    ______ ____
ROOT
ATOM     10  C   UNL     1      -3.213  -0.002  24.545  0.00  0.00    +0.249 C 
ATOM     11  O   UNL     1      -2.434   0.244  24.433  0.00  0.00    -0.270 OA
ATOM     12  N   UNL     1      -3.791   0.545  24.764  0.00  0.00    -0.273 N 
ATOM     13  C   UNL     1      -4.570   0.299  24.877  0.00  0.00    +0.113 C 
ATOM     14  C   UNL     1      -5.148   0.846  25.095  0.00  0.00    +0.117 C 
ATOM     15  N   UNL     1      -4.946   1.639  25.201  0.00  0.00    -0.148 NA
ATOM     16  C   UNL     1      -4.167   1.885  25.088  0.00  0.00    +0.176 C 
ATOM     17  C   UNL     1      -3.589   1.338  24.870  0.00  0.00    +0.121 C 
ENDROOT
BRANCH  10   7
ATOM      4  C   UNL     1      -3.818  -2.381  24.228  0.00  0.00    +0.048 A 
ATOM      5  C   UNL     1      -3.994  -1.828  23.641  0.00  0.00    +0.015 A 
ATOM      6  C   UNL     1      -3.792  -1.036  23.747  0.00  0.00    +0.006 A 
ATOM      7  C   UNL     1      -3.415  -0.795  24.440  0.00  0.00    +0.054 A 
ATOM      8  C   UNL     1      -3.239  -1.347  25.027  0.00  0.00    +0.006 A 
ATOM      9  C   UNL     1      -3.441  -2.140  24.921  0.00  0.00    +0.015 A 
BRANCH   4   2
ATOM      1  C   UNL     1      -4.592  -3.383  23.566  0.00  0.00    +0.112 C 
ATOM      2  N   UNL     1      -4.020  -3.174  24.123  0.00  0.00    -0.304 N 
ATOM      3  C   UNL     1      -3.650  -3.758  24.573  0.00  0.00    +0.112 C 
ENDBRANCH   4   2
ENDBRANCH  10   7
BRANCH  15  35
ATOM     35  S   UNL     1      -5.524   2.186  25.419  0.00  0.00    +0.046 S 
ATOM     36  C   UNL     1      -6.101   2.733  25.639  0.00  0.00    +0.196 C 
ATOM     37  O   UNL     1      -5.738   2.276  24.628  0.00  0.00    -0.157 OA
ATOM     38  O   UNL     1      -5.309   2.096  26.210  0.00  0.00    -0.157 OA
ENDBRANCH  15  35
BRANCH  16  18
ATOM     18  C   UNL     1      -3.965   2.678  25.194  0.00  0.00    +0.260 C 
ATOM     19  O   UNL     1      -4.381   3.140  25.737  0.00  0.00    -0.272 OA
ATOM     20  N   UNL     1      -3.349   3.009  24.757  0.00  0.00    -0.196 NA
BRANCH  20  21
ATOM     21  C   UNL     1      -3.147   3.802  24.863  0.00  0.00    +0.179 C 
BRANCH  21  32
ATOM     32  C   UNL     1      -3.563   4.390  24.459  0.00  0.00    +0.281 C 
ATOM     33  N   UNL     1      -3.835   5.054  24.867  0.00  0.00    -0.086 NA
ATOM     34  O   UNL     1      -3.706   4.314  23.651  0.00  0.00    -0.270 OA
ENDBRANCH  21  32
BRANCH  21  22
ATOM     22  C   UNL     1      -2.531   4.007  25.372  0.00  0.00    +0.059 C 
BRANCH  22  23
ATOM     23  C   UNL     1      -1.748   3.892  25.139  0.00  0.00    +0.001 A 
ATOM     24  C   UNL     1      -1.402   4.174  24.444  0.00  0.00    +0.095 A 
ATOM     25  N   UNL     1      -0.614   3.932  24.436  0.00  0.00    -0.244 NA
ATOM     26  C   UNL     1      -0.472   3.501  25.125  0.00  0.00    +0.081 A 
ATOM     27  C   UNL     1      -1.173   3.477  25.559  0.00  0.00    +0.015 A 
ATOM     28  C   UNL     1      -1.197   3.079  26.282  0.00  0.00    +0.001 A 
ATOM     29  C   UNL     1      -0.520   2.706  26.570  0.00  0.00    +0.000 A 
ATOM     30  C   UNL     1       0.181   2.730  26.135  0.00  0.00    +0.002 A 
ATOM     31  C   UNL     1       0.205   3.127  25.413  0.00  0.00    +0.019 A 
ENDBRANCH  22  23
ENDBRANCH  21  22
ENDBRANCH  20  21
ENDBRANCH  16  18
TORSDOF 8
ENDMDL
MODEL 5
REMARK VINA RESULT:      -8.6      1.762      5.064
REMARK  Name = 
REMARK  8 active torsions:
REMARK  status: ('A' for Active; 'I' for Inactive)
REMARK    1  A    between atoms: N_2  and  C_4
REMARK    2  A    between atoms: C_7  and  C_10
REMARK    3  A    between atoms: N_15  and  S_35
REMARK    4  A    between atoms: C_16  and  C_18
REMARK    5  A    between atoms: N_20  and  C_21
REMARK    6  A    between atoms: C_21  and  C_22
REMARK    7  A    between atoms: C_21  and  C_32
REMARK    8  A    between atoms: C_22  and  C_23
REMARK                            x       y       z     vdW  Elec       q    Type
REMARK                         _______ _______ _______ _____ _____    ______ ____
ROOT
ATOM     10  C   UNL     1      -3.149  -0.151  24.778  0.00  0.00    +0.249 C 
ATOM     11  O   UNL     1      -3.709   0.357  25.107  0.00  0.00    -0.270 OA
ATOM     12  N   UNL     1      -2.404   0.135  24.568  0.00  0.00    -0.273 N 
ATOM     13  C   UNL     1      -1.844  -0.373  24.239  0.00  0.00    +0.113 C 
ATOM     14  C   UNL     1      -1.099  -0.085  24.030  0.00  0.00    +0.117 C 
ATOM     15  N   UNL     1      -0.915   0.710  24.149  0.00  0.00    -0.148 NA
ATOM     16  C   UNL     1      -1.476   1.219  24.479  0.00  0.00    +0.176 C 
ATOM     17  C   UNL     1      -2.220   0.931  24.688  0.00  0.00    +0.121 C 
ENDROOT
BRANCH  10   7
ATOM      4  C   UNL     1      -3.701  -2.537  24.419  0.00  0.00    +0.048 A 
ATOM      5  C   UNL     1      -3.953  -1.969  23.876  0.00  0.00    +0.015 A 
ATOM      6  C   UNL     1      -3.769  -1.174  23.996  0.00  0.00    +0.006 A 
ATOM      7  C   UNL     1      -3.333  -0.947  24.658  0.00  0.00    +0.054 A 
ATOM      8  C   UNL     1      -3.080  -1.514  25.201  0.00  0.00    +0.006 A 
ATOM      9  C   UNL     1      -3.264  -2.310  25.081  0.00  0.00    +0.015 A 
BRANCH   4   2
ATOM      1  C   UNL     1      -3.553  -3.910  24.786  0.00  0.00    +0.112 C 
ATOM      2  N   UNL     1      -3.885  -3.333  24.299  0.00  0.00    -0.304 N 
ATOM      3  C   UNL     1      -4.400  -3.550  23.692  0.00  0.00    +0.112 C 
ENDBRANCH   4   2
ENDBRANCH  10   7
BRANCH  15  35
ATOM     35  S   UNL     1      -0.171   0.997  23.940  0.00  0.00    +0.046 S 
ATOM     36  C   UNL     1       0.574   1.284  23.732  0.00  0.00    +0.196 C 
ATOM     37  O   UNL     1      -0.471   1.245  23.213  0.00  0.00    -0.157 OA
ATOM     38  O   UNL     1       0.129   0.749  24.668  0.00  0.00    -0.157 OA
ENDBRANCH  15  35
BRANCH  16  18
ATOM     18  C   UNL     1      -1.291   2.013  24.598  0.00  0.00    +0.260 C 
ATOM     19  O   UNL     1      -0.841   2.421  24.040  0.00  0.00    -0.272 OA
ATOM     20  N   UNL     1      -1.557   2.401  25.276  0.00  0.00    -0.196 NA
BRANCH  20  21
ATOM     21  C   UNL     1      -1.373   3.196  25.396  0.00  0.00    +0.179 C 
BRANCH  21  32
ATOM     32  C   UNL     1      -0.657   3.404  25.751  0.00  0.00    +0.281 C 
ATOM     33  N   UNL     1      -0.192   4.001  25.420  0.00  0.00    -0.086 NA
ATOM     34  O   UNL     1      -0.406   3.017  26.433  0.00  0.00    -0.270 OA
ENDBRANCH  21  32
BRANCH  21  22
ATOM     22  C   UNL     1      -1.903   3.783  25.161  0.00  0.00    +0.059 C 
BRANCH  22  23
ATOM     23  C   UNL     1      -2.612   3.885  25.569  0.00  0.00    +0.001 A 
ATOM     24  C   UNL     1      -2.695   3.970  26.386  0.00  0.00    +0.095 A 
ATOM     25  N   UNL     1      -3.498   4.058  26.553  0.00  0.00    -0.244 NA
ATOM     26  C   UNL     1      -3.911   4.027  25.841  0.00  0.00    +0.081 A 
ATOM     27  C   UNL     1      -3.364   3.920  25.232  0.00  0.00    +0.015 A 
ATOM     28  C   UNL     1      -3.623   3.869  24.450  0.00  0.00    +0.001 A 
ATOM     29  C   UNL     1      -4.427   3.924  24.276  0.00  0.00    +0.000 A 
ATOM     30  C   UNL     1      -4.974   4.031  24.885  0.00  0.00    +0.002 A 
ATOM     31  C   UNL     1      -4.717   4.082  25.667  0.00  0.00    +0.019 A 
ENDBRANCH  22  23
ENDBRANCH  21  22
ENDBRANCH  20  21
ENDBRANCH  16  18
TORSDOF 8
ENDMDL
MODEL 6
REMARK VINA RESULT:      -8.5      1.767      4.062
REMARK  Name = 
REMARK  8 active torsions:
REMARK  status: ('A' for Active; 'I' for Inactive)
REMARK    1  A    between atoms: N_2  and  C_4
REMARK    2  A    between atoms: C_7  and  C_10
REMARK    3  A    between atoms: N_15  and  S_35
REMARK    4  A    between atoms: C_16  and  C_18
REMARK    5  A    between atoms: N_20  and  C_21
REMARK    6  A    between atoms: C_21  and  C_22
REMARK    7  A    between atoms: C_21  and  C_32
REMARK    8  A    between atoms: C_22  and  C_23
REMARK                            x       y       z     vdW  Elec       q    Type
REMARK                         _______ _______ _______ _____ _____    ______ ____
ROOT
ATOM     10  C   UNL     1      -1.476   2.115  25.231  0.00  0.00    +0.249 C 
ATOM     11  O   UNL     1      -1.995   1.748  25.757  0.00  0.00    -0.270 OA
ATOM     12  N   UNL     1      -0.977   1.660  24.758  0.00  0.00    -0.273 N 
ATOM     13  C   UNL     1      -0.458   2.027  24.232  0.00  0.00    +0.113 C 
ATOM     14  C   UNL     1       0.040   1.570  23.758  0.00  0.00    +0.117 C 
ATOM     15  N   UNL     1       0.019   0.748  23.810  0.00  0.00    -0.148 NA
ATOM     16  C   UNL     1      -0.500   0.380  24.336  0.00  0.00    +0.176 C 
ATOM     17  C   UNL     1      -0.998   0.836  24.810  0.00  0.00    +0.121 C 
ENDROOT
BRANCH  10   7
ATOM      4  C   UNL     1      -1.413   4.585  25.075  0.00  0.00    +0.048 A 
ATOM      5  C   UNL     1      -0.871   4.187  25.554  0.00  0.00    +0.015 A 
ATOM      6  C   UNL     1      -0.892   3.365  25.606  0.00  0.00    +0.006 A 
ATOM      7  C   UNL     1      -1.455   2.939  25.179  0.00  0.00    +0.054 A 
ATOM      8  C   UNL     1      -1.996   3.335  24.700  0.00  0.00    +0.006 A 
ATOM      9  C   UNL     1      -1.975   4.159  24.648  0.00  0.00    +0.015 A 
BRANCH   4   2
ATOM      1  C   UNL     1      -2.031   5.855  25.293  0.00  0.00    +0.112 C 
ATOM      2  N   UNL     1      -1.392   5.408  25.023  0.00  0.00    -0.304 N 
ATOM      3  C   UNL     1      -0.732   5.784  24.701  0.00  0.00    +0.112 C 
ENDBRANCH   4   2
ENDBRANCH  10   7
BRANCH  15  35
ATOM     35  S   UNL     1       0.518   0.291  23.337  0.00  0.00    +0.046 S 
ATOM     36  C   UNL     1       1.015  -0.166  22.863  0.00  0.00    +0.196 C 
ATOM     37  O   UNL     1       1.117   0.360  23.900  0.00  0.00    -0.157 OA
ATOM     38  O   UNL     1      -0.082   0.222  22.774  0.00  0.00    -0.157 OA
ENDBRANCH  15  35
BRANCH  16  18
ATOM     18  C   UNL     1      -0.521  -0.443  24.388  0.00  0.00    +0.260 C 
ATOM     19  O   UNL     1      -0.087  -0.901  23.856  0.00  0.00    -0.272 OA
ATOM     20  N   UNL     1      -0.975  -0.809  24.972  0.00  0.00    -0.196 NA
BRANCH  20  21
ATOM     21  C   UNL     1      -0.996  -1.631  25.024  0.00  0.00    +0.179 C 
BRANCH  21  32
ATOM     32  C   UNL     1      -0.417  -2.032  25.455  0.00  0.00    +0.281 C 
ATOM     33  N   UNL     1      -0.090  -2.729  25.156  0.00  0.00    -0.086 NA
ATOM     34  O   UNL     1      -0.165  -1.736  26.182  0.00  0.00    -0.270 OA
ENDBRANCH  21  32
BRANCH  21  22
ATOM     22  C   UNL     1      -1.595  -2.054  24.645  0.00  0.00    +0.059 C 
BRANCH  22  23
ATOM     23  C   UNL     1      -2.374  -1.988  24.905  0.00  0.00    +0.001 A 
ATOM     24  C   UNL     1      -2.616  -1.741  25.655  0.00  0.00    +0.095 A 
ATOM     25  N   UNL     1      -3.441  -1.758  25.675  0.00  0.00    -0.244 NA
ATOM     26  C   UNL     1      -3.708  -2.016  24.939  0.00  0.00    +0.081 A 
ATOM     27  C   UNL     1      -3.049  -2.158  24.463  0.00  0.00    +0.015 A 
ATOM     28  C   UNL     1      -3.150  -2.424  23.688  0.00  0.00    +0.001 A 
ATOM     29  C   UNL     1      -3.908  -2.547  23.389  0.00  0.00    +0.000 A 
ATOM     30  C   UNL     1      -4.567  -2.405  23.865  0.00  0.00    +0.002 A 
ATOM     31  C   UNL     1      -4.468  -2.140  24.639  0.00  0.00    +0.019 A 
ENDBRANCH  22  23
ENDBRANCH  21  22
ENDBRANCH  20  21
ENDBRANCH  16  18
TORSDOF 8
ENDMDL
MODEL 7
REMARK VINA RESULT:      -8.2      3.396      5.363
REMARK  Name = 
REMARK  8 active torsions:
REMARK  status: ('A' for Active; 'I' for Inactive)
REMARK    1  A    between atoms: N_2  and  C_4
REMARK    2  A    between atoms: C_7  and  C_10
REMARK    3  A    between atoms: N_15  and  S_35
REMARK    4  A    between atoms: C_16  and  C_18
REMARK    5  A    between atoms: N_20  and  C_21
REMARK    6  A    between atoms: C_21  and  C_22
REMARK    7  A    between atoms: C_21  and  C_32
REMARK    8  A    between atoms: C_22  and  C_23
REMARK                            x       y       z     vdW  Elec       q    Type
REMARK                         _______ _______ _______ _____ _____    ______ ____
ROOT
ATOM     10  C   UNL     1      -4.013  -0.258  24.996  0.00  0.00    +0.249 C 
ATOM     11  O   UNL     1      -4.378  -0.099  25.718  0.00  0.00    -0.270 OA
ATOM     12  N   UNL     1      -3.832   0.360  24.480  0.00  0.00    -0.273 N 
ATOM     13  C   UNL     1      -3.466   0.200  23.757  0.00  0.00    +0.113 C 
ATOM     14  C   UNL     1      -3.286   0.819  23.242  0.00  0.00    +0.117 C 
ATOM     15  N   UNL     1      -3.471   1.595  23.447  0.00  0.00    -0.148 NA
ATOM     16  C   UNL     1      -3.837   1.755  24.170  0.00  0.00    +0.176 C 
ATOM     17  C   UNL     1      -4.018   1.137  24.686  0.00  0.00    +0.121 C 
ENDROOT
BRANCH  10   7
ATOM      4  C   UNL     1      -3.456  -2.589  24.378  0.00  0.00    +0.048 A 
ATOM      5  C   UNL     1      -4.108  -2.216  24.036  0.00  0.00    +0.015 A 
ATOM      6  C   UNL     1      -4.293  -1.439  24.242  0.00  0.00    +0.006 A 
ATOM      7  C   UNL     1      -3.827  -1.035  24.790  0.00  0.00    +0.054 A 
ATOM      8  C   UNL     1      -3.175  -1.408  25.132  0.00  0.00    +0.006 A 
ATOM      9  C   UNL     1      -2.990  -2.185  24.926  0.00  0.00    +0.015 A 
BRANCH   4   2
ATOM      1  C   UNL     1      -3.863  -3.940  24.154  0.00  0.00    +0.112 C 
ATOM      2  N   UNL     1      -3.270  -3.367  24.172  0.00  0.00    -0.304 N 
ATOM      3  C   UNL     1      -2.493  -3.569  23.984  0.00  0.00    +0.112 C 
ENDBRANCH   4   2
ENDBRANCH  10   7
BRANCH  15  35
ATOM     35  S   UNL     1      -3.291   2.213  22.931  0.00  0.00    +0.046 S 
ATOM     36  C   UNL     1      -3.110   2.831  22.416  0.00  0.00    +0.196 C 
ATOM     37  O   UNL     1      -4.092   2.294  22.748  0.00  0.00    -0.157 OA
ATOM     38  O   UNL     1      -2.491   2.132  23.115  0.00  0.00    -0.157 OA
ENDBRANCH  15  35
BRANCH  16  18
ATOM     18  C   UNL     1      -4.023   2.532  24.376  0.00  0.00    +0.260 C 
ATOM     19  O   UNL     1      -4.441   3.009  23.849  0.00  0.00    -0.272 OA
ATOM     20  N   UNL     1      -3.790   2.832  25.108  0.00  0.00    -0.196 NA
BRANCH  20  21
ATOM     21  C   UNL     1      -3.975   3.608  25.314  0.00  0.00    +0.179 C 
BRANCH  21  32
ATOM     32  C   UNL     1      -4.721   3.787  25.620  0.00  0.00    +0.281 C 
ATOM     33  N   UNL     1      -5.014   3.361  26.264  0.00  0.00    -0.086 NA
ATOM     34  O   UNL     1      -5.172   4.388  25.283  0.00  0.00    -0.270 OA
ENDBRANCH  21  32
BRANCH  21  22
ATOM     22  C   UNL     1      -3.416   4.207  25.214  0.00  0.00    +0.059 C 
BRANCH  22  23
ATOM     23  C   UNL     1      -2.661   4.125  25.536  0.00  0.00    +0.001 A 
ATOM     24  C   UNL     1      -2.457   3.647  26.177  0.00  0.00    +0.095 A 
ATOM     25  N   UNL     1      -1.647   3.733  26.311  0.00  0.00    -0.244 NA
ATOM     26  C   UNL     1      -1.352   4.262  25.752  0.00  0.00    +0.081 A 
ATOM     27  C   UNL     1      -1.978   4.505  25.273  0.00  0.00    +0.015 A 
ATOM     28  C   UNL     1      -1.845   5.040  24.660  0.00  0.00    +0.001 A 
ATOM     29  C   UNL     1      -1.086   5.333  24.526  0.00  0.00    +0.000 A 
ATOM     30  C   UNL     1      -0.459   5.091  25.005  0.00  0.00    +0.002 A 
ATOM     31  C   UNL     1      -0.592   4.556  25.618  0.00  0.00    +0.019 A 
ENDBRANCH  22  23
ENDBRANCH  21  22
ENDBRANCH  20  21
ENDBRANCH  16  18
TORSDOF 8
ENDMDL
MODEL 8
REMARK VINA RESULT:      -8.0      2.051      5.981
REMARK  Name = 
REMARK  8 active torsions:
REMARK  status: ('A' for Active; 'I' for Inactive)
REMARK    1  A    between atoms: N_2  and  C_4
REMARK    2  A    between atoms: C_7  and  C_10
REMARK    3  A    between atoms: N_15  and  S_35
REMARK    4  A    between atoms: C_16  and  C_18
REMARK    5  A    between atoms: N_20  and  C_21
REMARK    6  A    between atoms: C_21  and  C_22
REMARK    7  A    between atoms: C_21  and  C_32
REMARK    8  A    between atoms: C_22  and  C_23
REMARK                            x       y       z     vdW  Elec       q    Type
REMARK                         _______ _______ _______ _____ _____    ______ ____
ROOT
ATOM     10  C   UNL     1      -0.878   2.296  24.255  0.00  0.00    +0.249 C 
ATOM     11  O   UNL     1      -0.336   2.705  23.787  0.00  0.00    -0.270 OA
ATOM     12  N   UNL     1      -0.825   1.476  24.328  0.00  0.00    -0.273 N 
ATOM     13  C   UNL     1      -1.367   1.067  24.796  0.00  0.00    +0.113 C 
ATOM     14  C   UNL     1      -1.313   0.246  24.867  0.00  0.00    +0.117 C 
ATOM     15  N   UNL     1      -0.718  -0.164  24.472  0.00  0.00    -0.148 NA
ATOM     16  C   UNL     1      -0.175   0.245  24.003  0.00  0.00    +0.176 C 
ATOM     17  C   UNL     1      -0.229   1.065  23.931  0.00  0.00    +0.121 C 
ENDROOT
BRANCH  10   7
ATOM      4  C   UNL     1      -2.666   3.528  25.443  0.00  0.00    +0.048 A 
ATOM      5  C   UNL     1      -1.917   3.461  25.781  0.00  0.00    +0.015 A 
ATOM      6  C   UNL     1      -1.321   3.051  25.385  0.00  0.00    +0.006 A 
ATOM      7  C   UNL     1      -1.475   2.707  24.651  0.00  0.00    +0.054 A 
ATOM      8  C   UNL     1      -2.224   2.773  24.313  0.00  0.00    +0.006 A 
ATOM      9  C   UNL     1      -2.820   3.184  24.709  0.00  0.00    +0.015 A 
BRANCH   4   2
ATOM      1  C   UNL     1      -4.042   3.893  25.572  0.00  0.00    +0.112 C 
ATOM      2  N   UNL     1      -3.263   3.939  25.839  0.00  0.00    -0.304 N 
ATOM      3  C   UNL     1      -3.079   4.395  26.502  0.00  0.00    +0.112 C 
ENDBRANCH   4   2
ENDBRANCH  10   7
BRANCH  15  35
ATOM     35  S   UNL     1      -0.664  -0.985  24.544  0.00  0.00    +0.046 S 
ATOM     36  C   UNL     1      -0.609  -1.804  24.616  0.00  0.00    +0.196 C 
ATOM     37  O   UNL     1      -1.154  -1.074  23.886  0.00  0.00    -0.157 OA
ATOM     38  O   UNL     1      -0.174  -0.894  25.201  0.00  0.00    -0.157 OA
ENDBRANCH  15  35
BRANCH  16  18
ATOM     18  C   UNL     1       0.420  -0.166  23.608  0.00  0.00    +0.260 C 
ATOM     19  O   UNL     1       0.492  -0.982  23.704  0.00  0.00    -0.272 OA
ATOM     20  N   UNL     1       0.944   0.239  23.115  0.00  0.00    -0.196 NA
BRANCH  20  21
ATOM     21  C   UNL     1       1.540  -0.172  22.719  0.00  0.00    +0.179 C 
BRANCH  21  32
ATOM     32  C   UNL     1       1.422  -0.419  21.940  0.00  0.00    +0.281 C 
ATOM     33  N   UNL     1       1.587  -1.199  21.727  0.00  0.00    -0.086 NA
ATOM     34  O   UNL     1       1.141   0.112  21.377  0.00  0.00    -0.270 OA
ENDBRANCH  21  32
BRANCH  21  22
ATOM     22  C   UNL     1       2.252  -0.336  23.102  0.00  0.00    +0.059 C 
BRANCH  22  23
ATOM     23  C   UNL     1       2.890   0.182  23.028  0.00  0.00    +0.001 A 
ATOM     24  C   UNL     1       2.856   0.954  22.738  0.00  0.00    +0.095 A 
ATOM     25  N   UNL     1       3.618   1.268  22.761  0.00  0.00    -0.244 NA
ATOM     26  C   UNL     1       4.122   0.691  23.065  0.00  0.00    +0.081 A 
ATOM     27  C   UNL     1       3.672   0.020  23.230  0.00  0.00    +0.015 A 
ATOM     28  C   UNL     1       4.034  -0.652  23.543  0.00  0.00    +0.001 A 
ATOM     29  C   UNL     1       4.845  -0.653  23.691  0.00  0.00    +0.000 A 
ATOM     30  C   UNL     1       5.295   0.018  23.527  0.00  0.00    +0.002 A 
ATOM     31  C   UNL     1       4.935   0.691  23.214  0.00  0.00    +0.019 A 
ENDBRANCH  22  23
ENDBRANCH  21  22
ENDBRANCH  20  21
ENDBRANCH  16  18
TORSDOF 8
ENDMDL
MODEL 9
REMARK VINA RESULT:      -7.9      2.053      5.860
REMARK  Name = 
REMARK  8 active torsions:
REMARK  status: ('A' for Active; 'I' for Inactive)
REMARK    1  A    between atoms: N_2  and  C_4
REMARK    2  A    between atoms: C_7  and  C_10
REMARK    3  A    between atoms: N_15  and  S_35
REMARK    4  A    between atoms: C_16  and  C_18
REMARK    5  A    between atoms: N_20  and  C_21
REMARK    6  A    between atoms: C_21  and  C_22
REMARK    7  A    between atoms: C_21  and  C_32
REMARK    8  A    between atoms: C_22  and  C_23
REMARK                            x       y       z     vdW  Elec       q    Type
REMARK                         _______ _______ _______ _____ _____    ______ ____
ROOT
ATOM     10  C   UNL     1      -3.259   2.192  24.956  0.00  0.00    +0.249 C 
ATOM     11  O   UNL     1      -2.489   2.485  24.929  0.00  0.00    -0.270 OA
ATOM     12  N   UNL     1      -3.399   1.387  24.839  0.00  0.00    -0.273 N 
ATOM     13  C   UNL     1      -4.169   1.094  24.867  0.00  0.00    +0.113 C 
ATOM     14  C   UNL     1      -4.308   0.289  24.749  0.00  0.00    +0.117 C 
ATOM     15  N   UNL     1      -3.677  -0.222  24.604  0.00  0.00    -0.148 NA
ATOM     16  C   UNL     1      -2.906   0.071  24.577  0.00  0.00    +0.176 C 
ATOM     17  C   UNL     1      -2.767   0.876  24.694  0.00  0.00    +0.121 C 
ENDROOT
BRANCH  10   7
ATOM      4  C   UNL     1      -5.153   3.725  25.391  0.00  0.00    +0.048 A 
ATOM      5  C   UNL     1      -4.919   3.567  24.616  0.00  0.00    +0.015 A 
ATOM      6  C   UNL     1      -4.288   3.057  24.471  0.00  0.00    +0.006 A 
ATOM      7  C   UNL     1      -3.891   2.703  25.101  0.00  0.00    +0.054 A 
ATOM      8  C   UNL     1      -4.124   2.860  25.877  0.00  0.00    +0.006 A 
ATOM      9  C   UNL     1      -4.755   3.372  26.022  0.00  0.00    +0.015 A 
BRANCH   4   2
ATOM      1  C   UNL     1      -5.689   5.049  25.432  0.00  0.00    +0.112 C 
ATOM      2  N   UNL     1      -5.784   4.236  25.536  0.00  0.00    -0.304 N 
ATOM      3  C   UNL     1      -6.511   3.935  25.785  0.00  0.00    +0.112 C 
ENDBRANCH   4   2
ENDBRANCH  10   7
BRANCH  15  35
ATOM     35  S   UNL     1      -3.816  -1.027  24.487  0.00  0.00    +0.046 S 
ATOM     36  C   UNL     1      -3.955  -1.831  24.369  0.00  0.00    +0.196 C 
ATOM     37  O   UNL     1      -3.777  -1.152  25.302  0.00  0.00    -0.157 OA
ATOM     38  O   UNL     1      -3.856  -0.900  23.673  0.00  0.00    -0.157 OA
ENDBRANCH  15  35
BRANCH  16  18
ATOM     18  C   UNL     1      -2.275  -0.440  24.432  0.00  0.00    +0.260 C 
ATOM     19  O   UNL     1      -2.392  -1.122  23.984  0.00  0.00    -0.272 OA
ATOM     20  N   UNL     1      -1.527  -0.269  24.736  0.00  0.00    -0.196 NA
BRANCH  20  21
ATOM     21  C   UNL     1      -0.897  -0.780  24.591  0.00  0.00    +0.179 C 
BRANCH  21  32
ATOM     32  C   UNL     1      -0.705  -1.364  25.142  0.00  0.00    +0.281 C 
ATOM     33  N   UNL     1      -0.599  -2.144  24.894  0.00  0.00    -0.086 NA
ATOM     34  O   UNL     1      -0.620  -1.169  25.938  0.00  0.00    -0.270 OA
ENDBRANCH  21  32
BRANCH  21  22
ATOM     22  C   UNL     1      -0.457  -0.707  23.896  0.00  0.00    +0.059 C 
BRANCH  22  23
ATOM     23  C   UNL     1       0.124  -0.126  23.834  0.00  0.00    +0.001 A 
ATOM     24  C   UNL     1       0.197   0.540  24.315  0.00  0.00    +0.095 A 
ATOM     25  N   UNL     1       0.853   0.969  24.058  0.00  0.00    -0.244 NA
ATOM     26  C   UNL     1       1.185   0.569  23.419  0.00  0.00    +0.081 A 
ATOM     27  C   UNL     1       0.735  -0.108  23.280  0.00  0.00    +0.015 A 
ATOM     28  C   UNL     1       0.939  -0.621  22.667  0.00  0.00    +0.001 A 
ATOM     29  C   UNL     1       1.594  -0.457  22.193  0.00  0.00    +0.000 A 
ATOM     30  C   UNL     1       2.044   0.220  22.331  0.00  0.00    +0.002 A 
ATOM     31  C   UNL     1       1.840   0.733  22.944  0.00  0.00    +0.019 A 
ENDBRANCH  22  23
ENDBRANCH  21  22
ENDBRANCH  20  21
ENDBRANCH  16  18
TORSDOF 8
ENDMDL
MODEL 10
REMARK VINA RESULT:      -7.7      1.904      4.921
REMARK  Name = 
REMARK  8 active torsions:
REMARK  status: ('A' for Active; 'I' for Inactive)
REMARK    1  A    between atoms: N_2  and  C_4
REMARK    2  A    between atoms: C_7  and  C_10
REMARK    3  A    between atoms: N_15  and  S_35
REMARK    4  A    between atoms: C_16  and  C_18
REMARK    5  A    between atoms: N_20  and  C_21
REMARK    6  A    between atoms: C_21  and  C_22
REMARK    7  A    between atoms: C_21  and  C_32
REMARK    8  A    between atoms: C_22  and  C_23
REMARK                            x       y       z     vdW  Elec       q    Type
REMARK                         _______ _______ _______ _____ _____    ______ ____
ROOT
ATOM     10  C   UNL     1      -3.679   1.943  24.946  0.00  0.00    +0.249 C 
ATOM     11  O   UNL     1      -3.972   1.220  24.679  0.00  0.00    -0.270 OA
ATOM     12  N   UNL     1      -2.875   2.029  25.107  0.00  0.00    -0.273 N 
ATOM     13  C   UNL     1      -2.582   2.753  25.374  0.00  0.00    +0.113 C 
ATOM     14  C   UNL     1      -1.777   2.838  25.534  0.00  0.00    +0.117 C 
ATOM     15  N   UNL     1      -1.265   2.200  25.427  0.00  0.00    -0.148 NA
ATOM     16  C   UNL     1      -1.558   1.476  25.160  0.00  0.00    +0.176 C 
ATOM     17  C   UNL     1      -2.362   1.391  25.000  0.00  0.00    +0.121 C 
ENDROOT
BRANCH  10   7
ATOM      4  C   UNL     1      -5.215   3.857  25.267  0.00  0.00    +0.048 A 
ATOM      5  C   UNL     1      -4.756   3.807  24.583  0.00  0.00    +0.015 A 
ATOM      6  C   UNL     1      -4.244   3.169  24.477  0.00  0.00    +0.006 A 
ATOM      7  C   UNL     1      -4.191   2.581  25.053  0.00  0.00    +0.054 A 
ATOM      8  C   UNL     1      -4.650   2.631  25.737  0.00  0.00    +0.006 A 
ATOM      9  C   UNL     1      -5.163   3.270  25.843  0.00  0.00    +0.015 A 
BRANCH   4   2
ATOM      1  C   UNL     1      -5.514   5.245  25.102  0.00  0.00    +0.112 C 
ATOM      2  N   UNL     1      -5.727   4.496  25.374  0.00  0.00    -0.304 N 
ATOM      3  C   UNL     1      -6.452   4.385  25.752  0.00  0.00    +0.112 C 
ENDBRANCH   4   2
ENDBRANCH  10   7
BRANCH  15  35
ATOM     35  S   UNL     1      -0.460   2.285  25.588  0.00  0.00    +0.046 S 
ATOM     36  C   UNL     1       0.345   2.371  25.747  0.00  0.00    +0.196 C 
ATOM     37  O   UNL     1      -0.581   1.990  26.349  0.00  0.00    -0.157 OA
ATOM     38  O   UNL     1      -0.341   2.580  24.826  0.00  0.00    -0.157 OA
ENDBRANCH  15  35
BRANCH  16  18
ATOM     18  C   UNL     1      -1.046   0.838  25.054  0.00  0.00    +0.260 C 
ATOM     19  O   UNL     1      -0.365   0.775  25.515  0.00  0.00    -0.272 OA
ATOM     20  N   UNL     1      -1.214   0.264  24.486  0.00  0.00    -0.196 NA
BRANCH  20  21
ATOM     21  C   UNL     1      -0.702  -0.373  24.379  0.00  0.00    +0.179 C 
BRANCH  21  32
ATOM     32  C   UNL     1      -0.071  -0.311  23.851  0.00  0.00    +0.281 C 
ATOM     33  N   UNL     1       0.676  -0.589  24.067  0.00  0.00    -0.086 NA
ATOM     34  O   UNL     1      -0.185   0.029  23.109  0.00  0.00    -0.270 OA
ENDBRANCH  21  32
BRANCH  21  22
ATOM     22  C   UNL     1      -0.821  -1.073  24.800  0.00  0.00    +0.059 C 
BRANCH  22  23
ATOM     23  C   UNL     1      -1.336  -1.647  24.509  0.00  0.00    +0.001 A 
ATOM     24  C   UNL     1      -1.264  -2.045  23.790  0.00  0.00    +0.095 A 
ATOM     25  N   UNL     1      -1.898  -2.568  23.723  0.00  0.00    -0.244 NA
ATOM     26  C   UNL     1      -2.362  -2.494  24.400  0.00  0.00    +0.081 A 
ATOM     27  C   UNL     1      -2.015  -1.925  24.886  0.00  0.00    +0.015 A 
ATOM     28  C   UNL     1      -2.362  -1.734  25.610  0.00  0.00    +0.001 A 
ATOM     29  C   UNL     1      -3.056  -2.111  25.847  0.00  0.00    +0.000 A 
ATOM     30  C   UNL     1      -3.403  -2.680  25.361  0.00  0.00    +0.002 A 
ATOM     31  C   UNL     1      -3.056  -2.872  24.638  0.00  0.00    +0.019 A 
ENDBRANCH  22  23
ENDBRANCH  21  22
ENDBRANCH  20  21
ENDBRANCH  16  18
TORSDOF 8
ENDMDL
