MODEL 1
REMARK VINA RESULT:     -14.2      0.000      0.000
REMARK  Name = 
REMARK  4 active torsions:
REMARK  status: ('A' for Active; 'I' for Inactive)
REMARK    1  A    between atoms: C_2  and  C_3
REMARK    2  A    between atoms: C_11  and  C_12
REMARK    3  A    between atoms: C_12  and  C_13
REMARK    4  A    between atoms: C_28  and  C_30
REMARK                            x       y       z     vdW  Elec       q    Type
REMARK                         _______ _______ _______ _____ _____    ______ ____
ROOT
ATOM      1  C   UNL     1      -5.108   3.503  25.512  0.00  0.00    +0.005 C 
ATOM      2  C   UNL     1      -4.738   2.811  25.260  0.00  0.00    +0.059 C 
ATOM      5  C   UNL     1      -5.504   2.529  25.377  0.00  0.00    +0.154 C 
ATOM      6  O   UNL     1      -6.096   3.040  25.639  0.00  0.00    -0.223 OA
ATOM      7  C   UNL     1      -5.678   1.735  25.231  0.00  0.00    +0.033 C 
ATOM      8  C   UNL     1      -5.086   1.224  24.970  0.00  0.00    +0.003 C 
ATOM      9  C   UNL     1      -4.320   1.506  24.853  0.00  0.00    +0.006 C 
ATOM     10  C   UNL     1      -4.494   0.714  24.708  0.00  0.00    +0.000 C 
ATOM     11  C   UNL     1      -3.727   0.995  24.591  0.00  0.00    +0.050 C 
ATOM     21  C   UNL     1      -2.961   1.277  24.475  0.00  0.00    +0.063 A 
ATOM     22  C   UNL     1      -2.787   2.071  24.620  0.00  0.00    +0.023 A 
ATOM     23  C   UNL     1      -3.379   2.582  24.882  0.00  0.00    +0.034 C 
ATOM     24  C   UNL     1      -4.146   2.300  24.999  0.00  0.00    +0.010 C 
ATOM     25  S   UNL     1      -1.987   2.189  24.457  0.00  0.00    -0.054 S 
ATOM     26  C   UNL     1      -1.667   1.470  24.211  0.00  0.00    +0.186 A 
ATOM     27  N   UNL     1      -0.882   1.338  23.993  0.00  0.00    -0.148 NA
ATOM     28  C   UNL     1      -0.641   0.585  23.758  0.00  0.00    +0.305 C 
ATOM     29  O   UNL     1      -1.184  -0.036  23.741  0.00  0.00    -0.265 OA
ATOM     35  N   UNL     1      -2.269   0.907  24.222  0.00  0.00    -0.227 NA
ENDROOT
BRANCH  28  30
ATOM     30  C   UNL     1       0.143   0.453  23.540  0.00  0.00    +0.201 A 
ATOM     31  C   UNL     1       0.434  -0.218  23.157  0.00  0.00    +0.046 A 
ATOM     32  C   UNL     1       1.245  -0.118  23.046  0.00  0.00    +0.044 A 
ATOM     33  C   UNL     1       1.456   0.615  23.360  0.00  0.00    +0.180 A 
ATOM     34  O   UNL     1       0.775   0.968  23.665  0.00  0.00    -0.446 OA
ENDBRANCH  28  30
BRANCH   2   3
ATOM      3  C   UNL     1      -4.100   3.333  25.231  0.00  0.00    +0.184 C 
ATOM      4  O   UNL     1      -4.200   4.119  25.463  0.00  0.00    -0.220 OA
ENDBRANCH   2   3
BRANCH  11  12
ATOM     12  C   UNL     1      -3.902   0.202  24.446  0.00  0.00    +0.091 C 
BRANCH  12  13
ATOM     13  C   UNL     1      -3.660  -0.379  24.981  0.00  0.00    +0.226 C 
ATOM     14  O   UNL     1      -3.369  -0.161  25.722  0.00  0.00    -0.275 OA
ATOM     15  N   UNL     1      -3.710  -1.175  24.776  0.00  0.00    -0.274 N 
ATOM     16  C   UNL     1      -3.469  -1.755  25.310  0.00  0.00    +0.125 C 
ATOM     17  C   UNL     1      -3.518  -2.553  25.104  0.00  0.00    +0.164 C 
ATOM     18  O   UNL     1      -3.809  -2.770  24.364  0.00  0.00    -0.350 OA
ATOM     19  C   UNL     1      -4.051  -2.190  23.829  0.00  0.00    +0.164 C 
ATOM     20  C   UNL     1      -4.001  -1.393  24.034  0.00  0.00    +0.125 C 
ENDBRANCH  12  13
ENDBRANCH  11  12
TORSDOF 4
ENDMDL
MODEL 2
REMARK VINA RESULT:     -13.8      1.752      4.088
REMARK  Name = 
REMARK  4 active torsions:
REMARK  status: ('A' for Active; 'I' for Inactive)
REMARK    1  A    between atoms: C_2  and  C_3
REMARK    2  A    between atoms: C_11  and  C_12
REMARK    3  A    between atoms: C_12  and  C_13
REMARK    4  A    between atoms: C_28  and  C_30
REMARK                            x       y       z     vdW  Elec       q    Type
REMARK                         _______ _______ _______ _____ _____    ______ ____
ROOT
ATOM      1  C   UNL     1      -1.984  -2.528  24.487  0.00  0.00    +0.005 C 
ATOM      2  C   UNL     1      -2.332  -1.800  24.658  0.00  0.00    +0.059 C 
ATOM      5  C   UNL     1      -2.978  -2.298  24.776  0.00  0.00    +0.154 C 
ATOM      6  O   UNL     1      -2.897  -3.112  24.666  0.00  0.00    -0.223 OA
ATOM      7  C   UNL     1      -3.706  -1.983  25.004  0.00  0.00    +0.033 C 
ATOM      8  C   UNL     1      -3.787  -1.170  25.113  0.00  0.00    +0.003 C 
ATOM      9  C   UNL     1      -3.141  -0.671  24.995  0.00  0.00    +0.006 C 
ATOM     10  C   UNL     1      -3.868  -0.357  25.222  0.00  0.00    +0.000 C 
ATOM     11  C   UNL     1      -3.222   0.143  25.104  0.00  0.00    +0.050 C 
ATOM     21  C   UNL     1      -2.576   0.641  24.987  0.00  0.00    +0.063 A 
ATOM     22  C   UNL     1      -1.847   0.326  24.759  0.00  0.00    +0.023 A 
ATOM     23  C   UNL     1      -1.766  -0.487  24.649  0.00  0.00    +0.034 C 
ATOM     24  C   UNL     1      -2.413  -0.987  24.767  0.00  0.00    +0.010 C 
ATOM     25  S   UNL     1      -1.312   0.949  24.684  0.00  0.00    -0.054 S 
ATOM     26  C   UNL     1      -1.709   1.650  24.865  0.00  0.00    +0.186 A 
ATOM     27  N   UNL     1      -1.382   2.407  24.860  0.00  0.00    -0.148 NA
ATOM     28  C   UNL     1      -1.849   3.058  25.055  0.00  0.00    +0.305 C 
ATOM     29  O   UNL     1      -2.643   2.953  25.254  0.00  0.00    -0.265 OA
ATOM     35  N   UNL     1      -2.489   1.459  25.052  0.00  0.00    -0.227 NA
ENDROOT
BRANCH  28  30
ATOM     30  C   UNL     1      -1.523   3.816  25.050  0.00  0.00    +0.201 A 
ATOM     31  C   UNL     1      -1.941   4.525  25.111  0.00  0.00    +0.046 A 
ATOM     32  C   UNL     1      -1.398   5.145  25.082  0.00  0.00    +0.044 A 
ATOM     33  C   UNL     1      -0.644   4.820  25.002  0.00  0.00    +0.180 A 
ATOM     34  O   UNL     1      -0.721   3.998  24.983  0.00  0.00    -0.446 OA
ENDBRANCH  28  30
BRANCH   2   3
ATOM      3  C   UNL     1      -1.564  -1.554  24.480  0.00  0.00    +0.184 C 
ATOM      4  O   UNL     1      -0.991  -2.110  24.272  0.00  0.00    -0.220 OA
ENDBRANCH   2   3
BRANCH  11  12
ATOM     12  C   UNL     1      -3.949   0.458  25.332  0.00  0.00    +0.091 C 
BRANCH  12  13
ATOM     13  C   UNL     1      -4.424   0.843  24.777  0.00  0.00    +0.226 C 
ATOM     14  O   UNL     1      -4.260   0.769  23.972  0.00  0.00    -0.275 OA
ATOM     15  N   UNL     1      -5.062   1.300  25.027  0.00  0.00    -0.274 N 
ATOM     16  C   UNL     1      -5.537   1.685  24.473  0.00  0.00    +0.125 C 
ATOM     17  C   UNL     1      -6.176   2.143  24.724  0.00  0.00    +0.164 C 
ATOM     18  O   UNL     1      -6.340   2.216  25.529  0.00  0.00    -0.350 OA
ATOM     19  C   UNL     1      -5.866   1.832  26.084  0.00  0.00    +0.164 C 
ATOM     20  C   UNL     1      -5.227   1.374  25.833  0.00  0.00    +0.125 C 
ENDBRANCH  12  13
ENDBRANCH  11  12
TORSDOF 4
ENDMDL
MODEL 3
REMARK VINA RESULT:     -13.5      1.688      3.790
REMARK  Name = 
REMARK  4 active torsions:
REMARK  status: ('A' for Active; 'I' for Inactive)
REMARK    1  A    between atoms: C_2  and  C_3
REMARK    2  A    between atoms: C_11  and  C_12
REMARK    3  A    between atoms: C_12  and  C_13
REMARK    4  A    between atoms: C_28  and  C_30
REMARK                            x       y       z     vdW  Elec       q    Type
REMARK                         _______ _______ _______ _____ _____    ______ ____
ROOT
ATOM      1  C   UNL     1      -0.536   4.344  24.767  0.00  0.00    +0.005 C 
ATOM      2  C   UNL     1      -1.188   3.852  24.881  0.00  0.00    +0.059 C 
ATOM      5  C   UNL     1      -1.514   4.576  25.103  0.00  0.00    +0.154 C 
ATOM      6  O   UNL     1      -1.054   5.261  25.081  0.00  0.00    -0.223 OA
ATOM      7  C   UNL     1      -2.302   4.617  25.349  0.00  0.00    +0.033 C 
ATOM      8  C   UNL     1      -2.762   3.933  25.371  0.00  0.00    +0.003 C 
ATOM      9  C   UNL     1      -2.436   3.209  25.149  0.00  0.00    +0.006 C 
ATOM     10  C   UNL     1      -3.222   3.249  25.393  0.00  0.00    +0.000 C 
ATOM     11  C   UNL     1      -2.897   2.525  25.171  0.00  0.00    +0.050 C 
ATOM     21  C   UNL     1      -2.571   1.801  24.948  0.00  0.00    +0.063 A 
ATOM     22  C   UNL     1      -1.783   1.760  24.703  0.00  0.00    +0.023 A 
ATOM     23  C   UNL     1      -1.323   2.444  24.680  0.00  0.00    +0.034 C 
ATOM     24  C   UNL     1      -1.649   3.169  24.903  0.00  0.00    +0.010 C 
ATOM     25  S   UNL     1      -1.615   0.974  24.517  0.00  0.00    -0.054 S 
ATOM     26  C   UNL     1      -2.297   0.529  24.647  0.00  0.00    +0.186 A 
ATOM     27  N   UNL     1      -2.375  -0.284  24.532  0.00  0.00    -0.148 NA
ATOM     28  C   UNL     1      -3.094  -0.656  24.686  0.00  0.00    +0.305 C 
ATOM     29  O   UNL     1      -3.737  -0.214  24.956  0.00  0.00    -0.265 OA
ATOM     35  N   UNL     1      -2.887   1.039  24.913  0.00  0.00    -0.227 NA
ENDROOT
BRANCH  28  30
ATOM     30  C   UNL     1      -3.172  -1.469  24.570  0.00  0.00    +0.201 A 
ATOM     31  C   UNL     1      -3.814  -1.849  24.216  0.00  0.00    +0.046 A 
ATOM     32  C   UNL     1      -3.660  -2.660  24.215  0.00  0.00    +0.044 A 
ATOM     33  C   UNL     1      -2.924  -2.781  24.568  0.00  0.00    +0.180 A 
ATOM     34  O   UNL     1      -2.623  -2.044  24.788  0.00  0.00    -0.446 OA
ENDBRANCH  28  30
BRANCH   2   3
ATOM      3  C   UNL     1      -0.636   3.299  24.619  0.00  0.00    +0.184 C 
ATOM      4  O   UNL     1       0.109   3.548  24.363  0.00  0.00    -0.220 OA
ENDBRANCH   2   3
BRANCH  11  12
ATOM     12  C   UNL     1      -3.683   2.565  25.416  0.00  0.00    +0.091 C 
BRANCH  12  13
ATOM     13  C   UNL     1      -4.292   2.488  24.864  0.00  0.00    +0.226 C 
ATOM     14  O   UNL     1      -4.131   2.568  24.059  0.00  0.00    -0.275 OA
ATOM     15  N   UNL     1      -5.061   2.333  25.117  0.00  0.00    -0.274 N 
ATOM     16  C   UNL     1      -5.670   2.257  24.565  0.00  0.00    +0.125 C 
ATOM     17  C   UNL     1      -6.439   2.101  24.819  0.00  0.00    +0.164 C 
ATOM     18  O   UNL     1      -6.600   2.022  25.623  0.00  0.00    -0.350 OA
ATOM     19  C   UNL     1      -5.992   2.098  26.176  0.00  0.00    +0.164 C 
ATOM     20  C   UNL     1      -5.222   2.254  25.922  0.00  0.00    +0.125 C 
ENDBRANCH  12  13
ENDBRANCH  11  12
TORSDOF 4
ENDMDL
MODEL 4
REMARK VINA RESULT:     -13.4      1.480      5.029
REMARK  Name = 
REMARK  4 active torsions:
REMARK  status: ('A' for Active; 'I' for Inactive)
REMARK    1  A    between atoms: C_2  and  C_3
REMARK    2  A    between atoms: C_11  and  C_12
REMARK    3  A    between atoms: C_12  and  C_13
REMARK    4  A    between atoms: C_28  and  C_30
REMARK                            x       y       z     vdW  Elec       q    Type
REMARK                         _______ _______ _______ _____ _____    ______ ____
ROOT
ATOM      1  C   UNL     1      -3.328  -2.915  24.174  0.00  0.00    +0.005 C 
ATOM      2  C   UNL     1      -3.102  -2.151  24.389  0.00  0.00    +0.059 C 
ATOM      5  C   UNL     1      -2.372  -2.531  24.424  0.00  0.00    +0.154 C 
ATOM      6  O   UNL     1      -2.315  -3.335  24.246  0.00  0.00    -0.223 OA
ATOM      7  C   UNL     1      -1.695  -2.107  24.636  0.00  0.00    +0.033 C 
ATOM      8  C   UNL     1      -1.751  -1.304  24.814  0.00  0.00    +0.003 C 
ATOM      9  C   UNL     1      -2.482  -0.924  24.779  0.00  0.00    +0.006 C 
ATOM     10  C   UNL     1      -1.807  -0.501  24.991  0.00  0.00    +0.000 C 
ATOM     11  C   UNL     1      -2.538  -0.120  24.956  0.00  0.00    +0.050 C 
ATOM     21  C   UNL     1      -3.269   0.260  24.922  0.00  0.00    +0.063 A 
ATOM     22  C   UNL     1      -3.945  -0.164  24.709  0.00  0.00    +0.023 A 
ATOM     23  C   UNL     1      -3.889  -0.967  24.532  0.00  0.00    +0.034 C 
ATOM     24  C   UNL     1      -3.158  -1.348  24.566  0.00  0.00    +0.010 C 
ATOM     25  S   UNL     1      -4.586   0.356  24.722  0.00  0.00    -0.054 S 
ATOM     26  C   UNL     1      -4.307   1.100  24.942  0.00  0.00    +0.186 A 
ATOM     27  N   UNL     1      -4.761   1.784  25.025  0.00  0.00    -0.148 NA
ATOM     28  C   UNL     1      -4.403   2.492  25.249  0.00  0.00    +0.305 C 
ATOM     29  O   UNL     1      -3.591   2.518  25.392  0.00  0.00    -0.265 OA
ATOM     35  N   UNL     1      -3.493   1.041  25.065  0.00  0.00    -0.227 NA
ENDROOT
BRANCH  28  30
ATOM     30  C   UNL     1      -4.858   3.176  25.332  0.00  0.00    +0.201 A 
ATOM     31  C   UNL     1      -4.645   3.933  25.081  0.00  0.00    +0.046 A 
ATOM     32  C   UNL     1      -5.260   4.448  25.274  0.00  0.00    +0.044 A 
ATOM     33  C   UNL     1      -5.853   4.009  25.643  0.00  0.00    +0.180 A 
ATOM     34  O   UNL     1      -5.604   3.223  25.679  0.00  0.00    -0.446 OA
ENDBRANCH  28  30
BRANCH   2   3
ATOM      3  C   UNL     1      -3.912  -2.036  24.279  0.00  0.00    +0.184 C 
ATOM      4  O   UNL     1      -4.372  -2.634  23.944  0.00  0.00    -0.220 OA
ENDBRANCH   2   3
BRANCH  11  12
ATOM     12  C   UNL     1      -1.863   0.303  25.168  0.00  0.00    +0.091 C 
BRANCH  12  13
ATOM     13  C   UNL     1      -1.497   0.799  24.619  0.00  0.00    +0.226 C 
ATOM     14  O   UNL     1      -1.694   0.745  23.820  0.00  0.00    -0.275 OA
ATOM     15  N   UNL     1      -0.935   1.347  24.869  0.00  0.00    -0.274 N 
ATOM     16  C   UNL     1      -0.569   1.843  24.321  0.00  0.00    +0.125 C 
ATOM     17  C   UNL     1      -0.006   2.392  24.571  0.00  0.00    +0.164 C 
ATOM     18  O   UNL     1       0.191   2.445  25.370  0.00  0.00    -0.350 OA
ATOM     19  C   UNL     1      -0.175   1.950  25.919  0.00  0.00    +0.164 C 
ATOM     20  C   UNL     1      -0.737   1.401  25.669  0.00  0.00    +0.125 C 
ENDBRANCH  12  13
ENDBRANCH  11  12
TORSDOF 4
ENDMDL
MODEL 5
REMARK VINA RESULT:     -12.4      1.128      3.451
REMARK  Name = 
REMARK  4 active torsions:
REMARK  status: ('A' for Active; 'I' for Inactive)
REMARK    1  A    between atoms: C_2  and  C_3
REMARK    2  A    between atoms: C_11  and  C_12
REMARK    3  A    between atoms: C_12  and  C_13
REMARK    4  A    between atoms: C_28  and  C_30
REMARK                            x       y       z     vdW  Elec       q    Type
REMARK                         _______ _______ _______ _____ _____    ______ ____
ROOT
ATOM      1  C   UNL     1      -5.467   3.917  25.596  0.00  0.00    +0.005 C 
ATOM      2  C   UNL     1      -4.888   3.389  25.337  0.00  0.00    +0.059 C 
ATOM      5  C   UNL     1      -4.483   4.102  25.247  0.00  0.00    +0.154 C 
ATOM      6  O   UNL     1      -4.851   4.814  25.443  0.00  0.00    -0.223 OA
ATOM      7  C   UNL     1      -3.709   4.103  24.960  0.00  0.00    +0.033 C 
ATOM      8  C   UNL     1      -3.341   3.392  24.764  0.00  0.00    +0.003 C 
ATOM      9  C   UNL     1      -3.746   2.680  24.854  0.00  0.00    +0.006 C 
ATOM     10  C   UNL     1      -2.973   2.681  24.567  0.00  0.00    +0.000 C 
ATOM     11  C   UNL     1      -3.378   1.968  24.657  0.00  0.00    +0.050 C 
ATOM     21  C   UNL     1      -3.782   1.255  24.748  0.00  0.00    +0.063 A 
ATOM     22  C   UNL     1      -4.557   1.254  25.035  0.00  0.00    +0.023 A 
ATOM     23  C   UNL     1      -4.925   1.965  25.231  0.00  0.00    +0.034 C 
ATOM     24  C   UNL     1      -4.520   2.678  25.141  0.00  0.00    +0.010 C 
ATOM     25  S   UNL     1      -4.815   0.471  25.065  0.00  0.00    -0.054 S 
ATOM     26  C   UNL     1      -4.202  -0.012  24.797  0.00  0.00    +0.186 A 
ATOM     27  N   UNL     1      -4.223  -0.834  24.736  0.00  0.00    -0.148 NA
ATOM     28  C   UNL     1      -3.565  -1.244  24.457  0.00  0.00    +0.305 C 
ATOM     29  O   UNL     1      -2.884  -0.832  24.239  0.00  0.00    -0.265 OA
ATOM     35  N   UNL     1      -3.564   0.473  24.601  0.00  0.00    -0.227 NA
ENDROOT
BRANCH  28  30
ATOM     30  C   UNL     1      -3.586  -2.066  24.396  0.00  0.00    +0.201 A 
ATOM     31  C   UNL     1      -3.144  -2.598  24.847  0.00  0.00    +0.046 A 
ATOM     32  C   UNL     1      -3.338  -3.362  24.603  0.00  0.00    +0.044 A 
ATOM     33  C   UNL     1      -3.898  -3.303  24.001  0.00  0.00    +0.180 A 
ATOM     34  O   UNL     1      -4.051  -2.502  23.873  0.00  0.00    -0.446 OA
ENDBRANCH  28  30
BRANCH   2   3
ATOM      3  C   UNL     1      -5.494   2.860  25.518  0.00  0.00    +0.184 C 
ATOM      4  O   UNL     1      -6.189   3.132  25.870  0.00  0.00    -0.220 OA
ENDBRANCH   2   3
BRANCH  11  12
ATOM     12  C   UNL     1      -2.604   1.969  24.371  0.00  0.00    +0.091 C 
BRANCH  12  13
ATOM     13  C   UNL     1      -1.978   1.770  24.871  0.00  0.00    +0.226 C 
ATOM     14  O   UNL     1      -2.097   1.737  25.686  0.00  0.00    -0.275 OA
ATOM     15  N   UNL     1      -1.235   1.605  24.555  0.00  0.00    -0.274 N 
ATOM     16  C   UNL     1      -0.609   1.406  25.054  0.00  0.00    +0.125 C 
ATOM     17  C   UNL     1       0.135   1.240  24.738  0.00  0.00    +0.164 C 
ATOM     18  O   UNL     1       0.253   1.273  23.923  0.00  0.00    -0.350 OA
ATOM     19  C   UNL     1      -0.373   1.472  23.422  0.00  0.00    +0.164 C 
ATOM     20  C   UNL     1      -1.117   1.638  23.738  0.00  0.00    +0.125 C 
ENDBRANCH  12  13
ENDBRANCH  11  12
TORSDOF 4
ENDMDL
MODEL 6
REMARK VINA RESULT:     -12.3      1.471      3.367
REMARK  Name = 
REMARK  4 active torsions:
REMARK  status: ('A' for Active; 'I' for Inactive)
REMARK    1  A    between atoms: C_2  and  C_3
REMARK    2  A    between atoms: C_11  and  C_12
REMARK    3  A    between atoms: C_12  and  C_13
REMARK    4  A    between atoms: C_28  and  C_30
REMARK                            x       y       z     vdW  Elec       q    Type
REMARK                         _______ _______ _______ _____ _____    ______ ____
ROOT
ATOM      1  C   UNL     1      -6.015   3.205  25.258  0.00  0.00    +0.005 C 
ATOM      2  C   UNL     1      -5.255   2.886  25.253  0.00  0.00    +0.059 C 
ATOM      5  C   UNL     1      -5.078   3.671  25.430  0.00  0.00    +0.154 C 
ATOM      6  O   UNL     1      -5.685   4.226  25.497  0.00  0.00    -0.223 OA
ATOM      7  C   UNL     1      -4.293   3.903  25.541  0.00  0.00    +0.033 C 
ATOM      8  C   UNL     1      -3.687   3.349  25.474  0.00  0.00    +0.003 C 
ATOM      9  C   UNL     1      -3.863   2.563  25.297  0.00  0.00    +0.006 C 
ATOM     10  C   UNL     1      -3.080   2.795  25.407  0.00  0.00    +0.000 C 
ATOM     11  C   UNL     1      -3.256   2.008  25.229  0.00  0.00    +0.050 C 
ATOM     21  C   UNL     1      -3.433   1.223  25.052  0.00  0.00    +0.063 A 
ATOM     22  C   UNL     1      -4.218   0.991  24.941  0.00  0.00    +0.023 A 
ATOM     23  C   UNL     1      -4.824   1.545  25.008  0.00  0.00    +0.034 C 
ATOM     24  C   UNL     1      -4.648   2.332  25.186  0.00  0.00    +0.010 C 
ATOM     25  S   UNL     1      -4.222   0.183  24.772  0.00  0.00    -0.054 S 
ATOM     26  C   UNL     1      -3.442  -0.084  24.779  0.00  0.00    +0.186 A 
ATOM     27  N   UNL     1      -3.194  -0.858  24.637  0.00  0.00    -0.148 NA
ATOM     28  C   UNL     1      -2.391  -1.044  24.663  0.00  0.00    +0.305 C 
ATOM     29  O   UNL     1      -1.836  -0.457  24.829  0.00  0.00    -0.265 OA
ATOM     35  N   UNL     1      -2.955   0.558  24.951  0.00  0.00    -0.227 NA
ENDROOT
BRANCH  28  30
ATOM     30  C   UNL     1      -2.143  -1.818  24.521  0.00  0.00    +0.201 A 
ATOM     31  C   UNL     1      -1.370  -2.100  24.594  0.00  0.00    +0.046 A 
ATOM     32  C   UNL     1      -1.373  -2.903  24.400  0.00  0.00    +0.044 A 
ATOM     33  C   UNL     1      -2.146  -3.116  24.208  0.00  0.00    +0.180 A 
ATOM     34  O   UNL     1      -2.622  -2.445  24.283  0.00  0.00    -0.446 OA
ENDBRANCH  28  30
BRANCH   2   3
ATOM      3  C   UNL     1      -5.696   2.211  25.077  0.00  0.00    +0.184 C 
ATOM      4  O   UNL     1      -6.518   2.257  25.025  0.00  0.00    -0.220 OA
ENDBRANCH   2   3
BRANCH  11  12
ATOM     12  C   UNL     1      -2.472   2.240  25.340  0.00  0.00    +0.091 C 
BRANCH  12  13
ATOM     13  C   UNL     1      -1.969   2.319  24.690  0.00  0.00    +0.226 C 
ATOM     14  O   UNL     1      -2.283   2.357  23.929  0.00  0.00    -0.275 OA
ATOM     15  N   UNL     1      -1.154   2.360  24.803  0.00  0.00    -0.274 N 
ATOM     16  C   UNL     1      -0.651   2.439  24.154  0.00  0.00    +0.125 C 
ATOM     17  C   UNL     1       0.166   2.480  24.267  0.00  0.00    +0.164 C 
ATOM     18  O   UNL     1       0.479   2.442  25.028  0.00  0.00    -0.350 OA
ATOM     19  C   UNL     1      -0.023   2.363  25.678  0.00  0.00    +0.164 C 
ATOM     20  C   UNL     1      -0.840   2.322  25.566  0.00  0.00    +0.125 C 
ENDBRANCH  12  13
ENDBRANCH  11  12
TORSDOF 4
ENDMDL
MODEL 7
REMARK VINA RESULT:     -11.1      2.194      4.038
REMARK  Name = 
REMARK  4 active torsions:
REMARK  status: ('A' for Active; 'I' for Inactive)
REMARK    1  A    between atoms: C_2  and  C_3
REMARK    2  A    between atoms: C_11  and  C_12
REMARK    3  A    between atoms: C_12  and  C_13
REMARK    4  A    between atoms: C_28  and  C_30
REMARK                            x       y       z     vdW  Elec       q    Type
REMARK                         _______ _______ _______ _____ _____    ______ ____
ROOT
ATOM      1  C   UNL     1      -3.316  -2.115  25.124  0.00  0.00    +0.005 C 
ATOM      2  C   UNL     1      -2.852  -1.451  24.970  0.00  0.00    +0.059 C 
ATOM      5  C   UNL     1      -3.519  -1.088  25.291  0.00  0.00    +0.154 C 
ATOM      6  O   UNL     1      -4.159  -1.546  25.538  0.00  0.00    -0.223 OA
ATOM      7  C   UNL     1      -3.546  -0.266  25.365  0.00  0.00    +0.033 C 
ATOM      8  C   UNL     1      -2.906   0.191  25.118  0.00  0.00    +0.003 C 
ATOM      9  C   UNL     1      -2.239  -0.171  24.798  0.00  0.00    +0.006 C 
ATOM     10  C   UNL     1      -2.266   0.649  24.872  0.00  0.00    +0.000 C 
ATOM     11  C   UNL     1      -1.598   0.286  24.550  0.00  0.00    +0.050 C 
ATOM     21  C   UNL     1      -0.931  -0.077  24.230  0.00  0.00    +0.063 A 
ATOM     22  C   UNL     1      -0.904  -0.899  24.155  0.00  0.00    +0.023 A 
ATOM     23  C   UNL     1      -1.544  -1.356  24.402  0.00  0.00    +0.034 C 
ATOM     24  C   UNL     1      -2.212  -0.994  24.723  0.00  0.00    +0.010 C 
ATOM     25  S   UNL     1      -0.177  -1.100  23.820  0.00  0.00    -0.054 S 
ATOM     26  C   UNL     1       0.245  -0.404  23.687  0.00  0.00    +0.186 A 
ATOM     27  N   UNL     1       1.000  -0.349  23.360  0.00  0.00    -0.148 NA
ATOM     28  C   UNL     1       1.353   0.389  23.260  0.00  0.00    +0.305 C 
ATOM     29  O   UNL     1       0.953   1.074  23.488  0.00  0.00    -0.265 OA
ATOM     35  N   UNL     1      -0.221   0.228  23.940  0.00  0.00    -0.227 NA
ENDROOT
BRANCH  28  30
ATOM     30  C   UNL     1       2.108   0.444  22.932  0.00  0.00    +0.201 A 
ATOM     31  C   UNL     1       2.704   0.963  23.171  0.00  0.00    +0.046 A 
ATOM     32  C   UNL     1       3.365   0.829  22.694  0.00  0.00    +0.044 A 
ATOM     33  C   UNL     1       3.177   0.228  22.161  0.00  0.00    +0.180 A 
ATOM     34  O   UNL     1       2.400  -0.010  22.309  0.00  0.00    -0.446 OA
ENDBRANCH  28  30
BRANCH   2   3
ATOM      3  C   UNL     1      -2.346  -2.045  24.702  0.00  0.00    +0.184 C 
ATOM      4  O   UNL     1      -2.598  -2.831  24.698  0.00  0.00    -0.220 OA
ENDBRANCH   2   3
BRANCH  11  12
ATOM     12  C   UNL     1      -1.626   1.107  24.625  0.00  0.00    +0.091 C 
BRANCH  12  13
ATOM     13  C   UNL     1      -1.209   1.481  25.232  0.00  0.00    +0.226 C 
ATOM     14  O   UNL     1      -0.895   1.035  25.851  0.00  0.00    -0.275 OA
ATOM     15  N   UNL     1      -1.109   2.299  25.220  0.00  0.00    -0.274 N 
ATOM     16  C   UNL     1      -0.693   2.673  25.827  0.00  0.00    +0.125 C 
ATOM     17  C   UNL     1      -0.592   3.491  25.815  0.00  0.00    +0.164 C 
ATOM     18  O   UNL     1      -0.907   3.936  25.196  0.00  0.00    -0.350 OA
ATOM     19  C   UNL     1      -1.323   3.563  24.589  0.00  0.00    +0.164 C 
ATOM     20  C   UNL     1      -1.424   2.745  24.601  0.00  0.00    +0.125 C 
ENDBRANCH  12  13
ENDBRANCH  11  12
TORSDOF 4
ENDMDL
MODEL 8
REMARK VINA RESULT:     -10.5      1.012      4.428
REMARK  Name = 
REMARK  4 active torsions:
REMARK  status: ('A' for Active; 'I' for Inactive)
REMARK    1  A    between atoms: C_2  and  C_3
REMARK    2  A    between atoms: C_11  and  C_12
REMARK    3  A    between atoms: C_12  and  C_13
REMARK    4  A    between atoms: C_28  and  C_30
REMARK                            x       y       z     vdW  Elec       q    Type
REMARK                         _______ _______ _______ _____ _____    ______ ____
ROOT
ATOM      1  C   UNL     1       1.150   1.371  23.792  0.00  0.00    +0.005 C 
ATOM      2  C   UNL     1       0.386   1.083  23.912  0.00  0.00    +0.059 C 
ATOM      5  C   UNL     1       0.770   0.387  23.693  0.00  0.00    +0.154 C 
ATOM      6  O   UNL     1       1.574   0.398  23.511  0.00  0.00    -0.223 OA
ATOM      7  C   UNL     1       0.348  -0.322  23.655  0.00  0.00    +0.033 C 
ATOM      8  C   UNL     1      -0.456  -0.334  23.837  0.00  0.00    +0.003 C 
ATOM      9  C   UNL     1      -0.840   0.363  24.056  0.00  0.00    +0.006 C 
ATOM     10  C   UNL     1      -1.260  -0.345  24.018  0.00  0.00    +0.000 C 
ATOM     11  C   UNL     1      -1.644   0.352  24.238  0.00  0.00    +0.050 C 
ATOM     21  C   UNL     1      -2.028   1.048  24.457  0.00  0.00    +0.063 A 
ATOM     22  C   UNL     1      -1.606   1.757  24.495  0.00  0.00    +0.023 A 
ATOM     23  C   UNL     1      -0.802   1.768  24.313  0.00  0.00    +0.034 C 
ATOM     24  C   UNL     1      -0.418   1.072  24.094  0.00  0.00    +0.010 C 
ATOM     25  S   UNL     1      -2.129   2.352  24.726  0.00  0.00    -0.054 S 
ATOM     26  C   UNL     1      -2.873   2.012  24.832  0.00  0.00    +0.186 A 
ATOM     27  N   UNL     1      -3.559   2.407  25.063  0.00  0.00    -0.148 NA
ATOM     28  C   UNL     1      -4.266   1.992  25.146  0.00  0.00    +0.305 C 
ATOM     29  O   UNL     1      -4.288   1.180  24.998  0.00  0.00    -0.265 OA
ATOM     35  N   UNL     1      -2.810   1.206  24.665  0.00  0.00    -0.227 NA
ENDROOT
BRANCH  28  30
ATOM     30  C   UNL     1      -4.952   2.388  25.378  0.00  0.00    +0.201 A 
ATOM     31  C   UNL     1      -5.679   2.037  25.552  0.00  0.00    +0.046 A 
ATOM     32  C   UNL     1      -6.208   2.636  25.758  0.00  0.00    +0.044 A 
ATOM     33  C   UNL     1      -5.808   3.356  25.711  0.00  0.00    +0.180 A 
ATOM     34  O   UNL     1      -5.032   3.202  25.476  0.00  0.00    -0.446 OA
ENDBRANCH  28  30
BRANCH   2   3
ATOM      3  C   UNL     1       0.268   1.880  24.090  0.00  0.00    +0.184 C 
ATOM      4  O   UNL     1       0.914   2.392  24.136  0.00  0.00    -0.220 OA
ENDBRANCH   2   3
BRANCH  11  12
ATOM     12  C   UNL     1      -2.066  -0.357  24.200  0.00  0.00    +0.091 C 
BRANCH  12  13
ATOM     13  C   UNL     1      -2.251  -0.764  24.894  0.00  0.00    +0.226 C 
ATOM     14  O   UNL     1      -1.907  -0.538  25.608  0.00  0.00    -0.275 OA
ATOM     15  N   UNL     1      -2.779  -1.396  24.871  0.00  0.00    -0.274 N 
ATOM     16  C   UNL     1      -2.965  -1.804  25.564  0.00  0.00    +0.125 C 
ATOM     17  C   UNL     1      -3.494  -2.437  25.542  0.00  0.00    +0.164 C 
ATOM     18  O   UNL     1      -3.837  -2.662  24.827  0.00  0.00    -0.350 OA
ATOM     19  C   UNL     1      -3.653  -2.255  24.134  0.00  0.00    +0.164 C 
ATOM     20  C   UNL     1      -3.124  -1.622  24.156  0.00  0.00    +0.125 C 
ENDBRANCH  12  13
ENDBRANCH  11  12
TORSDOF 4
ENDMDL
MODEL 9
REMARK VINA RESULT:     -10.3      1.685      3.453
REMARK  Name = 
REMARK  4 active torsions:
REMARK  status: ('A' for Active; 'I' for Inactive)
REMARK    1  A    between atoms: C_2  and  C_3
REMARK    2  A    between atoms: C_11  and  C_12
REMARK    3  A    between atoms: C_12  and  C_13
REMARK    4  A    between atoms: C_28  and  C_30
REMARK                            x       y       z     vdW  Elec       q    Type
REMARK                         _______ _______ _______ _____ _____    ______ ____
ROOT
ATOM      1  C   UNL     1      -6.061   1.838  25.480  0.00  0.00    +0.005 C 
ATOM      2  C   UNL     1      -5.295   2.063  25.273  0.00  0.00    +0.059 C 
ATOM      5  C   UNL     1      -5.626   2.803  25.421  0.00  0.00    +0.154 C 
ATOM      6  O   UNL     1      -6.415   2.863  25.655  0.00  0.00    -0.223 OA
ATOM      7  C   UNL     1      -5.169   3.485  25.336  0.00  0.00    +0.033 C 
ATOM      8  C   UNL     1      -4.380   3.426  25.102  0.00  0.00    +0.003 C 
ATOM      9  C   UNL     1      -4.049   2.686  24.953  0.00  0.00    +0.006 C 
ATOM     10  C   UNL     1      -3.592   3.366  24.868  0.00  0.00    +0.000 C 
ATOM     11  C   UNL     1      -3.260   2.626  24.719  0.00  0.00    +0.050 C 
ATOM     21  C   UNL     1      -2.928   1.886  24.571  0.00  0.00    +0.063 A 
ATOM     22  C   UNL     1      -3.386   1.204  24.656  0.00  0.00    +0.023 A 
ATOM     23  C   UNL     1      -4.174   1.263  24.890  0.00  0.00    +0.034 C 
ATOM     24  C   UNL     1      -4.506   2.004  25.039  0.00  0.00    +0.010 C 
ATOM     25  S   UNL     1      -2.911   0.555  24.472  0.00  0.00    -0.054 S 
ATOM     26  C   UNL     1      -2.161   0.834  24.273  0.00  0.00    +0.186 A 
ATOM     27  N   UNL     1      -1.514   0.372  24.052  0.00  0.00    -0.148 NA
ATOM     28  C   UNL     1      -0.795   0.731  23.868  0.00  0.00    +0.305 C 
ATOM     29  O   UNL     1      -0.722   1.552  23.904  0.00  0.00    -0.265 OA
ATOM     35  N   UNL     1      -2.172   1.656  24.334  0.00  0.00    -0.227 NA
ENDROOT
BRANCH  28  30
ATOM     30  C   UNL     1      -0.148   0.270  23.647  0.00  0.00    +0.201 A 
ATOM     31  C   UNL     1       0.500   0.524  23.205  0.00  0.00    +0.046 A 
ATOM     32  C   UNL     1       1.014  -0.116  23.114  0.00  0.00    +0.044 A 
ATOM     33  C   UNL     1       0.682  -0.766  23.500  0.00  0.00    +0.180 A 
ATOM     34  O   UNL     1      -0.036  -0.527  23.830  0.00  0.00    -0.446 OA
ENDBRANCH  28  30
BRANCH   2   3
ATOM      3  C   UNL     1      -5.229   1.244  25.196  0.00  0.00    +0.184 C 
ATOM      4  O   UNL     1      -5.897   0.767  25.283  0.00  0.00    -0.220 OA
ENDBRANCH   2   3
BRANCH  11  12
ATOM     12  C   UNL     1      -2.802   3.307  24.634  0.00  0.00    +0.091 C 
BRANCH  12  13
ATOM     13  C   UNL     1      -2.235   3.498  25.202  0.00  0.00    +0.226 C 
ATOM     14  O   UNL     1      -2.240   3.116  25.933  0.00  0.00    -0.275 OA
ATOM     15  N   UNL     1      -1.663   4.068  25.039  0.00  0.00    -0.274 N 
ATOM     16  C   UNL     1      -1.096   4.259  25.606  0.00  0.00    +0.125 C 
ATOM     17  C   UNL     1      -0.524   4.830  25.443  0.00  0.00    +0.164 C 
ATOM     18  O   UNL     1      -0.519   5.212  24.712  0.00  0.00    -0.350 OA
ATOM     19  C   UNL     1      -1.086   5.022  24.143  0.00  0.00    +0.164 C 
ATOM     20  C   UNL     1      -1.658   4.450  24.307  0.00  0.00    +0.125 C 
ENDBRANCH  12  13
ENDBRANCH  11  12
TORSDOF 4
ENDMDL
