MODEL 1
REMARK VINA RESULT:     -15.4      0.000      0.000
REMARK  Name = 
REMARK  3 active torsions:
REMARK  status: ('A' for Active; 'I' for Inactive)
REMARK    1  A    between atoms: C_2  and  N_4
REMARK    2  A    between atoms: C_16  and  C_17
REMARK    3  A    between atoms: C_19  and  C_23
REMARK                            x       y       z     vdW  Elec       q    Type
REMARK                         _______ _______ _______ _____ _____    ______ ____
ROOT
ATOM      4  N   UNL     1      -2.454  -0.026  24.461  0.00  0.00    -0.190 NA
ATOM      5  C   UNL     1      -1.863  -0.572  24.643  0.00  0.00    +0.323 C 
ATOM      6  O   UNL     1      -1.090  -0.315  24.774  0.00  0.00    -0.251 OA
ATOM      7  N   UNL     1      -2.045  -1.376  24.695  0.00  0.00    -0.262 N 
ATOM      8  C   UNL     1      -1.928  -2.195  24.809  0.00  0.00    +0.097 C 
ATOM      9  C   UNL     1      -2.850  -2.516  24.655  0.00  0.00    +0.043 C 
ATOM     10  C   UNL     1      -3.542  -2.934  24.559  0.00  0.00    +0.011 C 
ATOM     11  C   UNL     1      -3.331  -2.265  24.528  0.00  0.00    +0.058 C 
ATOM     12  C   UNL     1      -2.436  -1.971  24.680  0.00  0.00    +0.101 C 
ATOM     13  C   UNL     1      -3.646  -1.417  24.369  0.00  0.00    +0.041 A 
ATOM     14  C   UNL     1      -4.343  -1.017  24.181  0.00  0.00    +0.013 A 
ATOM     15  C   UNL     1      -4.336  -0.197  24.092  0.00  0.00    +0.006 A 
ATOM     16  C   UNL     1      -3.633   0.223  24.190  0.00  0.00    +0.056 A 
ATOM     25  C   UNL     1      -2.936  -0.177  24.378  0.00  0.00    +0.261 A 
ATOM     26  O   UNL     1      -2.602   0.577  24.363  0.00  0.00    -0.267 OA
ATOM     27  N   UNL     1      -2.943  -0.997  24.467  0.00  0.00    -0.299 N 
ATOM     28  C   UNL     1      -3.170  -1.626  24.491  0.00  0.00    +0.110 C 
ENDROOT
BRANCH  16  17
ATOM     17  C   UNL     1      -3.627   1.043  24.100  0.00  0.00    +0.005 A 
ATOM     18  C   UNL     1      -3.964   1.523  24.680  0.00  0.00    +0.010 A 
ATOM     19  C   UNL     1      -3.959   2.343  24.591  0.00  0.00    +0.068 A 
ATOM     20  C   UNL     1      -3.616   2.683  23.923  0.00  0.00    +0.010 A 
ATOM     21  C   UNL     1      -3.278   2.204  23.342  0.00  0.00    +0.001 A 
ATOM     22  C   UNL     1      -3.284   1.383  23.432  0.00  0.00    +0.000 A 
BRANCH  19  23
ATOM     23  C   UNL     1      -4.296   2.824  25.171  0.00  0.00    +0.100 C 
ATOM     24  N   UNL     1      -4.634   3.304  25.751  0.00  0.00    -0.191 NA
ENDBRANCH  19  23
ENDBRANCH  16  17
BRANCH   4   2
ATOM      1  C   UNL     1      -1.887   1.154  25.033  0.00  0.00    +0.023 C 
ATOM      2  C   UNL     1      -2.272   0.776  24.409  0.00  0.00    +0.097 C 
ATOM      3  C   UNL     1      -2.245   1.522  24.055  0.00  0.00    +0.023 C 
ENDBRANCH   4   2
TORSDOF 3
ENDMDL
MODEL 2
REMARK VINA RESULT:     -15.3      1.216      3.763
REMARK  Name = 
REMARK  3 active torsions:
REMARK  status: ('A' for Active; 'I' for Inactive)
REMARK    1  A    between atoms: C_2  and  N_4
REMARK    2  A    between atoms: C_16  and  C_17
REMARK    3  A    between atoms: C_19  and  C_23
REMARK                            x       y       z     vdW  Elec       q    Type
REMARK                         _______ _______ _______ _____ _____    ______ ____
ROOT
ATOM      4  N   UNL     1      -3.022   1.047  24.820  0.00  0.00    -0.190 NA
ATOM      5  C   UNL     1      -2.554   1.717  24.700  0.00  0.00    +0.323 C 
ATOM      6  O   UNL     1      -1.738   1.639  24.612  0.00  0.00    -0.251 OA
ATOM      7  N   UNL     1      -2.903   2.464  24.667  0.00  0.00    -0.262 N 
ATOM      8  C   UNL     1      -2.961   3.294  24.592  0.00  0.00    +0.097 C 
ATOM      9  C   UNL     1      -3.938   3.401  24.696  0.00  0.00    +0.043 C 
ATOM     10  C   UNL     1      -4.710   3.655  24.760  0.00  0.00    +0.011 C 
ATOM     11  C   UNL     1      -4.360   3.046  24.779  0.00  0.00    +0.058 C 
ATOM     12  C   UNL     1      -3.415   2.959  24.678  0.00  0.00    +0.101 C 
ATOM     13  C   UNL     1      -4.492   2.143  24.883  0.00  0.00    +0.041 A 
ATOM     14  C   UNL     1      -5.094   1.593  25.007  0.00  0.00    +0.013 A 
ATOM     15  C   UNL     1      -4.914   0.790  25.065  0.00  0.00    +0.006 A 
ATOM     16  C   UNL     1      -4.132   0.537  24.999  0.00  0.00    +0.056 A 
ATOM     25  C   UNL     1      -3.529   1.086  24.875  0.00  0.00    +0.261 A 
ATOM     26  O   UNL     1      -3.040   0.422  24.883  0.00  0.00    -0.267 OA
ATOM     27  N   UNL     1      -3.709   1.889  24.817  0.00  0.00    -0.299 N 
ATOM     28  C   UNL     1      -4.066   2.455  24.803  0.00  0.00    +0.110 C 
ENDROOT
BRANCH  16  17
ATOM     17  C   UNL     1      -3.953  -0.266  25.057  0.00  0.00    +0.005 A 
ATOM     18  C   UNL     1      -4.143  -0.777  24.437  0.00  0.00    +0.010 A 
ATOM     19  C   UNL     1      -3.964  -1.580  24.494  0.00  0.00    +0.068 A 
ATOM     20  C   UNL     1      -3.595  -1.873  25.171  0.00  0.00    +0.010 A 
ATOM     21  C   UNL     1      -3.404  -1.363  25.791  0.00  0.00    +0.001 A 
ATOM     22  C   UNL     1      -3.583  -0.559  25.734  0.00  0.00    +0.000 A 
BRANCH  19  23
ATOM     23  C   UNL     1      -4.154  -2.090  23.874  0.00  0.00    +0.100 C 
ATOM     24  N   UNL     1      -4.345  -2.601  23.254  0.00  0.00    -0.191 NA
ENDBRANCH  19  23
ENDBRANCH  16  17
BRANCH   4   2
ATOM      1  C   UNL     1      -2.168   0.054  24.249  0.00  0.00    +0.023 C 
ATOM      2  C   UNL     1      -2.673   0.301  24.852  0.00  0.00    +0.097 C 
ATOM      3  C   UNL     1      -2.509  -0.441  25.175  0.00  0.00    +0.023 C 
ENDBRANCH   4   2
TORSDOF 3
ENDMDL
MODEL 3
REMARK VINA RESULT:     -14.4      1.569      4.158
REMARK  Name = 
REMARK  3 active torsions:
REMARK  status: ('A' for Active; 'I' for Inactive)
REMARK    1  A    between atoms: C_2  and  N_4
REMARK    2  A    between atoms: C_16  and  C_17
REMARK    3  A    between atoms: C_19  and  C_23
REMARK                            x       y       z     vdW  Elec       q    Type
REMARK                         _______ _______ _______ _____ _____    ______ ____
ROOT
ATOM      4  N   UNL     1      -3.706   2.096  25.016  0.00  0.00    -0.190 NA
ATOM      5  C   UNL     1      -3.990   2.836  25.246  0.00  0.00    +0.323 C 
ATOM      6  O   UNL     1      -4.801   2.956  25.336  0.00  0.00    -0.251 OA
ATOM      7  N   UNL     1      -3.463   3.455  25.386  0.00  0.00    -0.262 N 
ATOM      8  C   UNL     1      -3.196   4.221  25.586  0.00  0.00    +0.097 C 
ATOM      9  C   UNL     1      -2.223   4.090  25.481  0.00  0.00    +0.043 C 
ATOM     10  C   UNL     1      -1.411   4.146  25.441  0.00  0.00    +0.011 C 
ATOM     11  C   UNL     1      -1.903   3.657  25.336  0.00  0.00    +0.058 C 
ATOM     12  C   UNL     1      -2.842   3.799  25.441  0.00  0.00    +0.101 C 
ATOM     13  C   UNL     1      -2.005   2.776  25.092  0.00  0.00    +0.041 A 
ATOM     14  C   UNL     1      -1.560   2.117  24.874  0.00  0.00    +0.013 A 
ATOM     15  C   UNL     1      -1.937   1.405  24.697  0.00  0.00    +0.006 A 
ATOM     16  C   UNL     1      -2.760   1.353  24.739  0.00  0.00    +0.056 A 
ATOM     25  C   UNL     1      -3.205   2.012  24.957  0.00  0.00    +0.261 A 
ATOM     26  O   UNL     1      -3.846   1.504  24.857  0.00  0.00    -0.267 OA
ATOM     27  N   UNL     1      -2.827   2.724  25.134  0.00  0.00    -0.299 N 
ATOM     28  C   UNL     1      -2.338   3.171  25.227  0.00  0.00    +0.110 C 
ENDROOT
BRANCH  16  17
ATOM     17  C   UNL     1      -3.136   0.641  24.562  0.00  0.00    +0.005 A 
ATOM     18  C   UNL     1      -3.107   0.015  25.099  0.00  0.00    +0.010 A 
ATOM     19  C   UNL     1      -3.484  -0.698  24.923  0.00  0.00    +0.068 A 
ATOM     20  C   UNL     1      -3.889  -0.785  24.210  0.00  0.00    +0.010 A 
ATOM     21  C   UNL     1      -3.918  -0.160  23.673  0.00  0.00    +0.001 A 
ATOM     22  C   UNL     1      -3.542   0.554  23.849  0.00  0.00    +0.000 A 
BRANCH  19  23
ATOM     23  C   UNL     1      -3.455  -1.323  25.460  0.00  0.00    +0.100 C 
ATOM     24  N   UNL     1      -3.426  -1.949  25.998  0.00  0.00    -0.191 NA
ENDBRANCH  19  23
ENDBRANCH  16  17
BRANCH   4   2
ATOM      1  C   UNL     1      -4.830   1.312  25.420  0.00  0.00    +0.023 C 
ATOM      2  C   UNL     1      -4.233   1.477  24.876  0.00  0.00    +0.097 C 
ATOM      3  C   UNL     1      -4.558   0.844  24.458  0.00  0.00    +0.023 C 
ENDBRANCH   4   2
TORSDOF 3
ENDMDL
MODEL 4
REMARK VINA RESULT:     -14.2      2.643      3.998
REMARK  Name = 
REMARK  3 active torsions:
REMARK  status: ('A' for Active; 'I' for Inactive)
REMARK    1  A    between atoms: C_2  and  N_4
REMARK    2  A    between atoms: C_16  and  C_17
REMARK    3  A    between atoms: C_19  and  C_23
REMARK                            x       y       z     vdW  Elec       q    Type
REMARK                         _______ _______ _______ _____ _____    ______ ____
ROOT
ATOM      4  N   UNL     1      -3.478   3.343  25.437  0.00  0.00    -0.190 NA
ATOM      5  C   UNL     1      -4.238   3.567  25.668  0.00  0.00    +0.323 C 
ATOM      6  O   UNL     1      -4.359   4.294  26.038  0.00  0.00    -0.251 OA
ATOM      7  N   UNL     1      -4.876   3.063  25.531  0.00  0.00    -0.262 N 
ATOM      8  C   UNL     1      -5.665   2.787  25.527  0.00  0.00    +0.097 C 
ATOM      9  C   UNL     1      -5.534   1.913  25.086  0.00  0.00    +0.043 C 
ATOM     10  C   UNL     1      -5.593   1.177  24.742  0.00  0.00    +0.011 C 
ATOM     11  C   UNL     1      -5.089   1.644  24.884  0.00  0.00    +0.058 C 
ATOM     12  C   UNL     1      -5.232   2.486  25.312  0.00  0.00    +0.101 C 
ATOM     13  C   UNL     1      -4.183   1.775  24.799  0.00  0.00    +0.041 A 
ATOM     14  C   UNL     1      -3.507   1.403  24.509  0.00  0.00    +0.013 A 
ATOM     15  C   UNL     1      -2.773   1.776  24.569  0.00  0.00    +0.006 A 
ATOM     16  C   UNL     1      -2.717   2.522  24.918  0.00  0.00    +0.056 A 
ATOM     25  C   UNL     1      -3.393   2.894  25.207  0.00  0.00    +0.261 A 
ATOM     26  O   UNL     1      -2.869   3.497  25.411  0.00  0.00    -0.267 OA
ATOM     27  N   UNL     1      -4.127   2.521  25.148  0.00  0.00    -0.299 N 
ATOM     28  C   UNL     1      -4.588   2.059  25.001  0.00  0.00    +0.110 C 
ENDROOT
BRANCH  16  17
ATOM     17  C   UNL     1      -1.983   2.894  24.976  0.00  0.00    +0.005 A 
ATOM     18  C   UNL     1      -1.424   2.619  25.517  0.00  0.00    +0.010 A 
ATOM     19  C   UNL     1      -0.690   2.991  25.577  0.00  0.00    +0.068 A 
ATOM     20  C   UNL     1      -0.515   3.638  25.096  0.00  0.00    +0.010 A 
ATOM     21  C   UNL     1      -1.074   3.913  24.555  0.00  0.00    +0.001 A 
ATOM     22  C   UNL     1      -1.809   3.540  24.495  0.00  0.00    +0.000 A 
BRANCH  19  23
ATOM     23  C   UNL     1      -0.131   2.716  26.118  0.00  0.00    +0.100 C 
ATOM     24  N   UNL     1       0.429   2.442  26.659  0.00  0.00    -0.191 NA
ENDBRANCH  19  23
ENDBRANCH  16  17
BRANCH   4   2
ATOM      1  C   UNL     1      -2.709   4.151  26.330  0.00  0.00    +0.023 C 
ATOM      2  C   UNL     1      -2.840   3.848  25.575  0.00  0.00    +0.097 C 
ATOM      3  C   UNL     1      -2.169   4.285  25.377  0.00  0.00    +0.023 C 
ENDBRANCH   4   2
TORSDOF 3
ENDMDL
MODEL 5
REMARK VINA RESULT:     -14.0      2.439      4.016
REMARK  Name = 
REMARK  3 active torsions:
REMARK  status: ('A' for Active; 'I' for Inactive)
REMARK    1  A    between atoms: C_2  and  N_4
REMARK    2  A    between atoms: C_16  and  C_17
REMARK    3  A    between atoms: C_19  and  C_23
REMARK                            x       y       z     vdW  Elec       q    Type
REMARK                         _______ _______ _______ _____ _____    ______ ____
ROOT
ATOM      4  N   UNL     1      -3.065   2.274  24.639  0.00  0.00    -0.190 NA
ATOM      5  C   UNL     1      -3.688   1.796  24.385  0.00  0.00    +0.323 C 
ATOM      6  O   UNL     1      -3.539   1.148  23.897  0.00  0.00    -0.251 OA
ATOM      7  N   UNL     1      -4.461   1.968  24.618  0.00  0.00    -0.262 N 
ATOM      8  C   UNL     1      -5.291   1.892  24.682  0.00  0.00    +0.097 C 
ATOM      9  C   UNL     1      -5.483   2.666  25.266  0.00  0.00    +0.043 C 
ATOM     10  C   UNL     1      -5.803   3.251  25.733  0.00  0.00    +0.011 C 
ATOM     11  C   UNL     1      -5.168   3.059  25.504  0.00  0.00    +0.058 C 
ATOM     12  C   UNL     1      -4.998   2.308  24.939  0.00  0.00    +0.101 C 
ATOM     13  C   UNL     1      -4.282   3.299  25.551  0.00  0.00    +0.041 A 
ATOM     14  C   UNL     1      -3.789   3.867  25.889  0.00  0.00    +0.013 A 
ATOM     15  C   UNL     1      -2.976   3.841  25.754  0.00  0.00    +0.006 A 
ATOM     16  C   UNL     1      -2.655   3.246  25.281  0.00  0.00    +0.056 A 
ATOM     25  C   UNL     1      -3.148   2.678  24.942  0.00  0.00    +0.261 A 
ATOM     26  O   UNL     1      -2.446   2.381  24.628  0.00  0.00    -0.267 OA
ATOM     27  N   UNL     1      -3.961   2.704  25.077  0.00  0.00    -0.299 N 
ATOM     28  C   UNL     1      -4.555   2.909  25.308  0.00  0.00    +0.110 C 
ENDROOT
BRANCH  16  17
ATOM     17  C   UNL     1      -1.842   3.220  25.146  0.00  0.00    +0.005 A 
ATOM     18  C   UNL     1      -1.334   2.957  25.742  0.00  0.00    +0.010 A 
ATOM     19  C   UNL     1      -0.521   2.931  25.608  0.00  0.00    +0.068 A 
ATOM     20  C   UNL     1      -0.215   3.168  24.879  0.00  0.00    +0.010 A 
ATOM     21  C   UNL     1      -0.722   3.430  24.284  0.00  0.00    +0.001 A 
ATOM     22  C   UNL     1      -1.536   3.456  24.418  0.00  0.00    +0.000 A 
BRANCH  19  23
ATOM     23  C   UNL     1      -0.013   2.669  26.203  0.00  0.00    +0.100 C 
ATOM     24  N   UNL     1       0.495   2.406  26.798  0.00  0.00    -0.191 NA
ENDBRANCH  19  23
ENDBRANCH  16  17
BRANCH   4   2
ATOM      1  C   UNL     1      -1.983   1.347  24.524  0.00  0.00    +0.023 C 
ATOM      2  C   UNL     1      -2.293   2.102  24.406  0.00  0.00    +0.097 C 
ATOM      3  C   UNL     1      -1.551   2.261  24.082  0.00  0.00    +0.023 C 
ENDBRANCH   4   2
TORSDOF 3
ENDMDL
MODEL 6
REMARK VINA RESULT:     -13.8      1.270      2.384
REMARK  Name = 
REMARK  3 active torsions:
REMARK  status: ('A' for Active; 'I' for Inactive)
REMARK    1  A    between atoms: C_2  and  N_4
REMARK    2  A    between atoms: C_16  and  C_17
REMARK    3  A    between atoms: C_19  and  C_23
REMARK                            x       y       z     vdW  Elec       q    Type
REMARK                         _______ _______ _______ _____ _____    ______ ____
ROOT
ATOM      4  N   UNL     1      -2.562   0.269  24.260  0.00  0.00    -0.190 NA
ATOM      5  C   UNL     1      -3.346   0.130  24.045  0.00  0.00    +0.323 C 
ATOM      6  O   UNL     1      -3.794   0.732  23.703  0.00  0.00    -0.251 OA
ATOM      7  N   UNL     1      -3.684  -0.612  24.173  0.00  0.00    -0.262 N 
ATOM      8  C   UNL     1      -4.262  -1.215  24.177  0.00  0.00    +0.097 C 
ATOM      9  C   UNL     1      -3.737  -1.946  24.586  0.00  0.00    +0.043 C 
ATOM     10  C   UNL     1      -3.448  -2.637  24.905  0.00  0.00    +0.011 C 
ATOM     11  C   UNL     1      -3.214  -1.989  24.773  0.00  0.00    +0.058 C 
ATOM     12  C   UNL     1      -3.734  -1.293  24.377  0.00  0.00    +0.101 C 
ATOM     13  C   UNL     1      -2.463  -1.464  24.852  0.00  0.00    +0.041 A 
ATOM     14  C   UNL     1      -1.684  -1.496  25.120  0.00  0.00    +0.013 A 
ATOM     15  C   UNL     1      -1.201  -0.830  25.064  0.00  0.00    +0.006 A 
ATOM     16  C   UNL     1      -1.497  -0.131  24.741  0.00  0.00    +0.056 A 
ATOM     25  C   UNL     1      -2.277  -0.098  24.473  0.00  0.00    +0.261 A 
ATOM     26  O   UNL     1      -2.088   0.681  24.283  0.00  0.00    -0.267 OA
ATOM     27  N   UNL     1      -2.760  -0.765  24.528  0.00  0.00    -0.299 N 
ATOM     28  C   UNL     1      -2.959  -1.389  24.664  0.00  0.00    +0.110 C 
ENDROOT
BRANCH  16  17
ATOM     17  C   UNL     1      -1.014   0.535  24.685  0.00  0.00    +0.005 A 
ATOM     18  C   UNL     1      -0.853   0.984  25.359  0.00  0.00    +0.010 A 
ATOM     19  C   UNL     1      -0.369   1.650  25.304  0.00  0.00    +0.068 A 
ATOM     20  C   UNL     1      -0.047   1.867  24.577  0.00  0.00    +0.010 A 
ATOM     21  C   UNL     1      -0.207   1.418  23.903  0.00  0.00    +0.001 A 
ATOM     22  C   UNL     1      -0.691   0.752  23.958  0.00  0.00    +0.000 A 
BRANCH  19  23
ATOM     23  C   UNL     1      -0.208   2.099  25.977  0.00  0.00    +0.100 C 
ATOM     24  N   UNL     1      -0.047   2.549  26.651  0.00  0.00    -0.191 NA
ENDBRANCH  19  23
ENDBRANCH  16  17
BRANCH   4   2
ATOM      1  C   UNL     1      -2.601   1.690  24.412  0.00  0.00    +0.023 C 
ATOM      2  C   UNL     1      -2.225   1.011  24.131  0.00  0.00    +0.097 C 
ATOM      3  C   UNL     1      -1.661   1.544  23.851  0.00  0.00    +0.023 C 
ENDBRANCH   4   2
TORSDOF 3
ENDMDL
MODEL 7
REMARK VINA RESULT:     -13.4      1.839      4.522
REMARK  Name = 
REMARK  3 active torsions:
REMARK  status: ('A' for Active; 'I' for Inactive)
REMARK    1  A    between atoms: C_2  and  N_4
REMARK    2  A    between atoms: C_16  and  C_17
REMARK    3  A    between atoms: C_19  and  C_23
REMARK                            x       y       z     vdW  Elec       q    Type
REMARK                         _______ _______ _______ _____ _____    ______ ____
ROOT
ATOM      4  N   UNL     1      -2.415   1.746  24.898  0.00  0.00    -0.190 NA
ATOM      5  C   UNL     1      -3.113   2.170  24.776  0.00  0.00    +0.323 C 
ATOM      6  O   UNL     1      -3.774   1.794  24.458  0.00  0.00    -0.251 OA
ATOM      7  N   UNL     1      -3.148   2.971  24.971  0.00  0.00    -0.262 N 
ATOM      8  C   UNL     1      -3.468   3.737  25.063  0.00  0.00    +0.097 C 
ATOM      9  C   UNL     1      -2.683   4.200  25.445  0.00  0.00    +0.043 C 
ATOM     10  C   UNL     1      -2.138   4.717  25.761  0.00  0.00    +0.011 C 
ATOM     11  C   UNL     1      -2.165   4.040  25.577  0.00  0.00    +0.058 C 
ATOM     12  C   UNL     1      -2.932   3.607  25.208  0.00  0.00    +0.101 C 
ATOM     13  C   UNL     1      -1.650   3.280  25.551  0.00  0.00    +0.041 A 
ATOM     14  C   UNL     1      -0.892   3.013  25.735  0.00  0.00    +0.013 A 
ATOM     15  C   UNL     1      -0.687   2.225  25.599  0.00  0.00    +0.006 A 
ATOM     16  C   UNL     1      -1.242   1.704  25.279  0.00  0.00    +0.056 A 
ATOM     25  C   UNL     1      -2.000   1.971  25.095  0.00  0.00    +0.261 A 
ATOM     26  O   UNL     1      -2.121   1.192  24.853  0.00  0.00    -0.267 OA
ATOM     27  N   UNL     1      -2.204   2.759  25.231  0.00  0.00    -0.299 N 
ATOM     28  C   UNL     1      -2.153   3.400  25.415  0.00  0.00    +0.110 C 
ENDROOT
BRANCH  16  17
ATOM     17  C   UNL     1      -1.036   0.917  25.143  0.00  0.00    +0.005 A 
ATOM     18  C   UNL     1      -0.544   0.723  24.511  0.00  0.00    +0.010 A 
ATOM     19  C   UNL     1      -0.338  -0.064  24.374  0.00  0.00    +0.068 A 
ATOM     20  C   UNL     1      -0.625  -0.657  24.871  0.00  0.00    +0.010 A 
ATOM     21  C   UNL     1      -1.117  -0.464  25.504  0.00  0.00    +0.001 A 
ATOM     22  C   UNL     1      -1.323   0.324  25.640  0.00  0.00    +0.000 A 
BRANCH  19  23
ATOM     23  C   UNL     1       0.155  -0.258  23.741  0.00  0.00    +0.100 C 
ATOM     24  N   UNL     1       0.647  -0.453  23.109  0.00  0.00    -0.191 NA
ENDBRANCH  19  23
ENDBRANCH  16  17
BRANCH   4   2
ATOM      1  C   UNL     1      -2.611   0.693  23.952  0.00  0.00    +0.023 C 
ATOM      2  C   UNL     1      -2.380   0.945  24.702  0.00  0.00    +0.097 C 
ATOM      3  C   UNL     1      -2.231   0.144  24.831  0.00  0.00    +0.023 C 
ENDBRANCH   4   2
TORSDOF 3
ENDMDL
