MODEL 1
REMARK VINA RESULT:      -8.6      0.000      0.000
REMARK  Name = 
REMARK  5 active torsions:
REMARK  status: ('A' for Active; 'I' for Inactive)
REMARK    1  A    between atoms: O_2  and  C_3
REMARK    2  A    between atoms: C_5  and  S_6
REMARK    3  A    between atoms: C_10  and  C_11
REMARK    4  A    between atoms: N_13  and  C_14
REMARK    5  A    between atoms: N_22  and  C_25
REMARK                            x       y       z     vdW  Elec       q    Type
REMARK                         _______ _______ _______ _____ _____    ______ ____
ROOT
ATOM     14  C   UNL     1      -0.851   2.461  24.452  0.00  0.00    +0.099 C 
ATOM     15  C   UNL     1      -0.651   2.922  25.106  0.00  0.00    +0.043 C 
ATOM     16  C   UNL     1      -1.243   3.291  25.546  0.00  0.00    +0.097 C 
ATOM     17  N   UNL     1      -2.035   3.199  25.333  0.00  0.00    -0.257 N 
ATOM     18  C   UNL     1      -2.234   2.738  24.678  0.00  0.00    +0.156 C 
ATOM     19  C   UNL     1      -1.642   2.368  24.238  0.00  0.00    +0.051 C 
ATOM     20  C   UNL     1      -3.055   2.747  24.601  0.00  0.00    +0.254 C 
ATOM     21  O   UNL     1      -3.492   2.357  24.018  0.00  0.00    -0.272 OA
ATOM     22  N   UNL     1      -3.363   3.214  25.206  0.00  0.00    -0.191 N 
ATOM     23  C   UNL     1      -2.732   3.493  25.658  0.00  0.00    +0.317 C 
ATOM     24  O   UNL     1      -2.790   3.981  26.321  0.00  0.00    -0.252 OA
ENDROOT
BRANCH  22  25
ATOM     25  C   UNL     1      -4.162   3.373  25.337  0.00  0.00    +0.063 A 
ATOM     26  C   UNL     1      -4.479   4.103  25.115  0.00  0.00    +0.018 A 
ATOM     27  C   UNL     1      -5.278   4.262  25.246  0.00  0.00    +0.032 A 
ATOM     28  C   UNL     1      -5.759   3.693  25.599  0.00  0.00    +0.151 A 
ATOM     29  F   UNL     1      -6.558   3.852  25.730  0.00  0.00    -0.203 F 
ATOM     30  C   UNL     1      -5.443   2.965  25.821  0.00  0.00    +0.086 A 
ATOM     31 CL   UNL     1      -5.925   2.395  26.174  0.00  0.00    -0.080 Cl
ATOM     32  C   UNL     1      -4.644   2.805  25.690  0.00  0.00    +0.029 A 
ENDBRANCH  22  25
BRANCH  14  13
ATOM     11  C   UNL     1       0.074   1.385  24.278  0.00  0.00    +0.268 C 
ATOM     12  O   UNL     1      -0.186   1.048  24.984  0.00  0.00    -0.268 OA
ATOM     13  N   UNL     1      -0.258   2.092  24.011  0.00  0.00    -0.203 NA
BRANCH  11  10
ATOM      3  C   UNL     1       0.564   0.240  23.576  0.00  0.00    +0.144 A 
ATOM      4  C   UNL     1       1.155  -0.129  23.136  0.00  0.00    +0.043 A 
ATOM      5  C   UNL     1       1.850   0.278  22.956  0.00  0.00    +0.028 A 
ATOM      8  C   UNL     1       1.953   1.054  23.216  0.00  0.00    +0.006 A 
ATOM      9  C   UNL     1       1.360   1.423  23.657  0.00  0.00    +0.008 A 
ATOM     10  C   UNL     1       0.666   1.016  23.837  0.00  0.00    +0.089 A 
BRANCH   3   2
ATOM      1  C   UNL     1      -0.169  -0.984  23.659  0.00  0.00    +0.252 C 
ATOM      2  O   UNL     1      -0.131  -0.167  23.757  0.00  0.00    -0.471 OA
ENDBRANCH   3   2
BRANCH   5   6
ATOM      6  S   UNL     1       2.442  -0.090  22.516  0.00  0.00    -0.113 S 
ATOM      7  C   UNL     1       3.189   0.255  22.457  0.00  0.00    +0.074 C 
ENDBRANCH   5   6
ENDBRANCH  11  10
ENDBRANCH  14  13
TORSDOF 5
ENDMDL
MODEL 2
REMARK VINA RESULT:      -8.6      3.500      6.473
REMARK  Name = 
REMARK  5 active torsions:
REMARK  status: ('A' for Active; 'I' for Inactive)
REMARK    1  A    between atoms: O_2  and  C_3
REMARK    2  A    between atoms: C_5  and  S_6
REMARK    3  A    between atoms: C_10  and  C_11
REMARK    4  A    between atoms: N_13  and  C_14
REMARK    5  A    between atoms: N_22  and  C_25
REMARK                            x       y       z     vdW  Elec       q    Type
REMARK                         _______ _______ _______ _____ _____    ______ ____
ROOT
ATOM     14  C   UNL     1      -1.934   0.401  24.697  0.00  0.00    +0.099 C 
ATOM     15  C   UNL     1      -1.760  -0.364  24.949  0.00  0.00    +0.043 C 
ATOM     16  C   UNL     1      -1.059  -0.727  24.710  0.00  0.00    +0.097 C 
ATOM     17  N   UNL     1      -0.532  -0.325  24.219  0.00  0.00    -0.257 N 
ATOM     18  C   UNL     1      -0.706   0.441  23.967  0.00  0.00    +0.156 C 
ATOM     19  C   UNL     1      -1.408   0.804  24.206  0.00  0.00    +0.051 C 
ATOM     20  C   UNL     1      -0.087   0.699  23.488  0.00  0.00    +0.254 C 
ATOM     21  O   UNL     1      -0.034   1.435  23.118  0.00  0.00    -0.272 OA
ATOM     22  N   UNL     1       0.471   0.093  23.444  0.00  0.00    -0.191 N 
ATOM     23  C   UNL     1       0.195  -0.540  23.896  0.00  0.00    +0.317 C 
ATOM     24  O   UNL     1       0.581  -1.261  24.006  0.00  0.00    -0.252 OA
ENDROOT
BRANCH  22  25
ATOM     25  C   UNL     1       1.180   0.116  23.023  0.00  0.00    +0.063 A 
ATOM     26  C   UNL     1       1.238  -0.264  22.292  0.00  0.00    +0.018 A 
ATOM     27  C   UNL     1       1.947  -0.241  21.870  0.00  0.00    +0.032 A 
ATOM     28  C   UNL     1       2.598   0.161  22.180  0.00  0.00    +0.151 A 
ATOM     29  F   UNL     1       3.307   0.184  21.759  0.00  0.00    -0.203 F 
ATOM     30  C   UNL     1       2.540   0.540  22.910  0.00  0.00    +0.086 A 
ATOM     31 CL   UNL     1       3.191   0.942  23.220  0.00  0.00    -0.080 Cl
ATOM     32  C   UNL     1       1.831   0.517  23.331  0.00  0.00    +0.029 A 
ENDBRANCH  22  25
BRANCH  14  13
ATOM     11  C   UNL     1      -3.282   0.790  24.423  0.00  0.00    +0.268 C 
ATOM     12  O   UNL     1      -3.227   0.452  23.673  0.00  0.00    -0.268 OA
ATOM     13  N   UNL     1      -2.636   0.765  24.936  0.00  0.00    -0.203 NA
BRANCH  11  10
ATOM      3  C   UNL     1      -4.177   1.904  24.379  0.00  0.00    +0.144 A 
ATOM      4  C   UNL     1      -4.877   2.267  24.618  0.00  0.00    +0.043 A 
ATOM      5  C   UNL     1      -5.386   1.881  25.140  0.00  0.00    +0.028 A 
ATOM      8  C   UNL     1      -5.193   1.130  25.424  0.00  0.00    +0.006 A 
ATOM      9  C   UNL     1      -4.491   0.767  25.185  0.00  0.00    +0.008 A 
ATOM     10  C   UNL     1      -3.984   1.154  24.662  0.00  0.00    +0.089 A 
BRANCH   3   2
ATOM      1  C   UNL     1      -3.859   3.041  23.574  0.00  0.00    +0.252 C 
ATOM      2  O   UNL     1      -3.668   2.291  23.857  0.00  0.00    -0.471 OA
ENDBRANCH   3   2
BRANCH   5   6
ATOM      6  S   UNL     1      -6.086   2.243  25.379  0.00  0.00    -0.113 S 
ATOM      7  C   UNL     1      -6.272   2.297  26.181  0.00  0.00    +0.074 C 
ENDBRANCH   5   6
ENDBRANCH  11  10
ENDBRANCH  14  13
TORSDOF 5
ENDMDL
MODEL 3
REMARK VINA RESULT:      -8.4      3.150      4.261
REMARK  Name = 
REMARK  5 active torsions:
REMARK  status: ('A' for Active; 'I' for Inactive)
REMARK    1  A    between atoms: O_2  and  C_3
REMARK    2  A    between atoms: C_5  and  S_6
REMARK    3  A    between atoms: C_10  and  C_11
REMARK    4  A    between atoms: N_13  and  C_14
REMARK    5  A    between atoms: N_22  and  C_25
REMARK                            x       y       z     vdW  Elec       q    Type
REMARK                         _______ _______ _______ _____ _____    ______ ____
ROOT
ATOM     14  C   UNL     1      -1.595   0.373  24.948  0.00  0.00    +0.099 C 
ATOM     15  C   UNL     1      -1.002   0.384  25.521  0.00  0.00    +0.043 C 
ATOM     16  C   UNL     1      -0.676   1.102  25.762  0.00  0.00    +0.097 C 
ATOM     17  N   UNL     1      -0.942   1.809  25.432  0.00  0.00    -0.257 N 
ATOM     18  C   UNL     1      -1.535   1.798  24.858  0.00  0.00    +0.156 C 
ATOM     19  C   UNL     1      -1.862   1.080  24.616  0.00  0.00    +0.051 C 
ATOM     20  C   UNL     1      -1.686   2.577  24.632  0.00  0.00    +0.254 C 
ATOM     21  O   UNL     1      -2.240   2.820  24.071  0.00  0.00    -0.272 OA
ATOM     22  N   UNL     1      -1.186   3.069  25.065  0.00  0.00    -0.191 N 
ATOM     23  C   UNL     1      -0.727   2.595  25.559  0.00  0.00    +0.317 C 
ATOM     24  O   UNL     1      -0.152   2.859  26.088  0.00  0.00    -0.252 OA
ENDROOT
BRANCH  22  25
ATOM     25  C   UNL     1      -1.152   3.892  25.014  0.00  0.00    +0.063 A 
ATOM     26  C   UNL     1      -0.519   4.255  24.626  0.00  0.00    +0.018 A 
ATOM     27  C   UNL     1      -0.485   5.078  24.575  0.00  0.00    +0.032 A 
ATOM     28  C   UNL     1      -1.083   5.537  24.911  0.00  0.00    +0.151 A 
ATOM     29  F   UNL     1      -1.048   6.360  24.859  0.00  0.00    -0.203 F 
ATOM     30  C   UNL     1      -1.714   5.175  25.297  0.00  0.00    +0.086 A 
ATOM     31 CL   UNL     1      -2.312   5.634  25.633  0.00  0.00    -0.080 Cl
ATOM     32  C   UNL     1      -1.748   4.352  25.349  0.00  0.00    +0.029 A 
ENDBRANCH  22  25
BRANCH  14  13
ATOM     11  C   UNL     1      -2.584  -0.648  25.093  0.00  0.00    +0.268 C 
ATOM     12  O   UNL     1      -2.920  -0.233  25.722  0.00  0.00    -0.268 OA
ATOM     13  N   UNL     1      -1.922  -0.345  24.705  0.00  0.00    -0.203 NA
BRANCH  11  10
ATOM      3  C   UNL     1      -3.668  -1.385  24.522  0.00  0.00    +0.144 A 
ATOM      4  C   UNL     1      -3.994  -2.103  24.281  0.00  0.00    +0.043 A 
ATOM      5  C   UNL     1      -3.564  -2.802  24.367  0.00  0.00    +0.028 A 
ATOM      8  C   UNL     1      -2.808  -2.783  24.695  0.00  0.00    +0.006 A 
ATOM      9  C   UNL     1      -2.481  -2.064  24.937  0.00  0.00    +0.008 A 
ATOM     10  C   UNL     1      -2.911  -1.366  24.851  0.00  0.00    +0.089 A 
BRANCH   3   2
ATOM      1  C   UNL     1      -4.862  -0.706  24.128  0.00  0.00    +0.252 C 
ATOM      2  O   UNL     1      -4.098  -0.686  24.436  0.00  0.00    -0.471 OA
ENDBRANCH   3   2
BRANCH   5   6
ATOM      6  S   UNL     1      -3.890  -3.520  24.125  0.00  0.00    -0.113 S 
ATOM      7  C   UNL     1      -3.526  -3.959  23.529  0.00  0.00    +0.074 C 
ENDBRANCH   5   6
ENDBRANCH  11  10
ENDBRANCH  14  13
TORSDOF 5
ENDMDL
MODEL 4
REMARK VINA RESULT:      -8.3      3.356      4.954
REMARK  Name = 
REMARK  5 active torsions:
REMARK  status: ('A' for Active; 'I' for Inactive)
REMARK    1  A    between atoms: O_2  and  C_3
REMARK    2  A    between atoms: C_5  and  S_6
REMARK    3  A    between atoms: C_10  and  C_11
REMARK    4  A    between atoms: N_13  and  C_14
REMARK    5  A    between atoms: N_22  and  C_25
REMARK                            x       y       z     vdW  Elec       q    Type
REMARK                         _______ _______ _______ _____ _____    ______ ____
ROOT
ATOM     14  C   UNL     1      -3.358   2.039  24.646  0.00  0.00    +0.099 C 
ATOM     15  C   UNL     1      -4.140   2.031  24.909  0.00  0.00    +0.043 C 
ATOM     16  C   UNL     1      -4.549   1.318  24.963  0.00  0.00    +0.097 C 
ATOM     17  N   UNL     1      -4.179   0.611  24.753  0.00  0.00    -0.257 N 
ATOM     18  C   UNL     1      -3.397   0.619  24.489  0.00  0.00    +0.156 C 
ATOM     19  C   UNL     1      -2.986   1.333  24.436  0.00  0.00    +0.051 C 
ATOM     20  C   UNL     1      -3.177  -0.158  24.322  0.00  0.00    +0.254 C 
ATOM     21  O   UNL     1      -2.440  -0.404  24.044  0.00  0.00    -0.272 OA
ATOM     22  N   UNL     1      -3.822  -0.646  24.482  0.00  0.00    -0.191 N 
ATOM     23  C   UNL     1      -4.441  -0.170  24.748  0.00  0.00    +0.317 C 
ATOM     24  O   UNL     1      -5.191  -0.431  24.971  0.00  0.00    -0.252 OA
ENDROOT
BRANCH  22  25
ATOM     25  C   UNL     1      -3.844  -1.466  24.392  0.00  0.00    +0.063 A 
ATOM     26  C   UNL     1      -4.192  -1.798  23.721  0.00  0.00    +0.018 A 
ATOM     27  C   UNL     1      -4.214  -2.618  23.631  0.00  0.00    +0.032 A 
ATOM     28  C   UNL     1      -3.889  -3.105  24.212  0.00  0.00    +0.151 A 
ATOM     29  F   UNL     1      -3.912  -3.925  24.122  0.00  0.00    -0.203 F 
ATOM     30  C   UNL     1      -3.543  -2.774  24.882  0.00  0.00    +0.086 A 
ATOM     31 CL   UNL     1      -3.218  -3.261  25.463  0.00  0.00    -0.080 Cl
ATOM     32  C   UNL     1      -3.520  -1.954  24.972  0.00  0.00    +0.029 A 
ENDBRANCH  22  25
BRANCH  14  13
ATOM     11  C   UNL     1      -2.365   2.935  25.147  0.00  0.00    +0.268 C 
ATOM     12  O   UNL     1      -2.192   2.405  25.755  0.00  0.00    -0.268 OA
ATOM     13  N   UNL     1      -2.947   2.753  24.592  0.00  0.00    -0.203 NA
BRANCH  11  10
ATOM      3  C   UNL     1      -1.159   3.653  24.872  0.00  0.00    +0.144 A 
ATOM      4  C   UNL     1      -0.749   4.366  24.819  0.00  0.00    +0.043 A 
ATOM      5  C   UNL     1      -1.133   5.077  24.986  0.00  0.00    +0.028 A 
ATOM      8  C   UNL     1      -1.928   5.074  25.206  0.00  0.00    +0.006 A 
ATOM      9  C   UNL     1      -2.339   4.360  25.260  0.00  0.00    +0.008 A 
ATOM     10  C   UNL     1      -1.954   3.650  25.093  0.00  0.00    +0.089 A 
BRANCH   3   2
ATOM      1  C   UNL     1       0.021   2.943  24.491  0.00  0.00    +0.252 C 
ATOM      2  O   UNL     1      -0.775   2.942  24.706  0.00  0.00    -0.471 OA
ENDBRANCH   3   2
BRANCH   5   6
ATOM      6  S   UNL     1      -0.723   5.790  24.932  0.00  0.00    -0.113 S 
ATOM      7  C   UNL     1      -1.108   6.469  24.665  0.00  0.00    +0.074 C 
ENDBRANCH   5   6
ENDBRANCH  11  10
ENDBRANCH  14  13
TORSDOF 5
ENDMDL
MODEL 5
REMARK VINA RESULT:      -8.3      3.199      4.317
REMARK  Name = 
REMARK  5 active torsions:
REMARK  status: ('A' for Active; 'I' for Inactive)
REMARK    1  A    between atoms: O_2  and  C_3
REMARK    2  A    between atoms: C_5  and  S_6
REMARK    3  A    between atoms: C_10  and  C_11
REMARK    4  A    between atoms: N_13  and  C_14
REMARK    5  A    between atoms: N_22  and  C_25
REMARK                            x       y       z     vdW  Elec       q    Type
REMARK                         _______ _______ _______ _____ _____    ______ ____
ROOT
ATOM     14  C   UNL     1      -3.736   0.973  24.644  0.00  0.00    +0.099 C 
ATOM     15  C   UNL     1      -4.353   1.412  24.317  0.00  0.00    +0.043 C 
ATOM     16  C   UNL     1      -4.286   2.231  24.249  0.00  0.00    +0.097 C 
ATOM     17  N   UNL     1      -3.601   2.612  24.507  0.00  0.00    -0.257 N 
ATOM     18  C   UNL     1      -2.983   2.173  24.834  0.00  0.00    +0.156 C 
ATOM     19  C   UNL     1      -3.051   1.353  24.902  0.00  0.00    +0.051 C 
ATOM     20  C   UNL     1      -2.379   2.696  25.039  0.00  0.00    +0.254 C 
ATOM     21  O   UNL     1      -1.658   2.492  25.383  0.00  0.00    -0.272 OA
ATOM     22  N   UNL     1      -2.623   3.458  24.839  0.00  0.00    -0.191 N 
ATOM     23  C   UNL     1      -3.378   3.405  24.510  0.00  0.00    +0.317 C 
ATOM     24  O   UNL     1      -3.831   4.037  24.233  0.00  0.00    -0.252 OA
ENDROOT
BRANCH  22  25
ATOM     25  C   UNL     1      -2.189   4.150  24.948  0.00  0.00    +0.063 A 
ATOM     26  C   UNL     1      -2.459   4.730  25.471  0.00  0.00    +0.018 A 
ATOM     27  C   UNL     1      -2.025   5.422  25.580  0.00  0.00    +0.032 A 
ATOM     28  C   UNL     1      -1.320   5.536  25.167  0.00  0.00    +0.151 A 
ATOM     29  F   UNL     1      -0.885   6.228  25.277  0.00  0.00    -0.203 F 
ATOM     30  C   UNL     1      -1.049   4.958  24.645  0.00  0.00    +0.086 A 
ATOM     31 CL   UNL     1      -0.344   5.071  24.232  0.00  0.00    -0.080 Cl
ATOM     32  C   UNL     1      -1.484   4.265  24.536  0.00  0.00    +0.029 A 
ENDBRANCH  22  25
BRANCH  14  13
ATOM     11  C   UNL     1      -3.414  -0.338  24.177  0.00  0.00    +0.268 C 
ATOM     12  O   UNL     1      -2.957  -0.011  23.573  0.00  0.00    -0.268 OA
ATOM     13  N   UNL     1      -3.803   0.153  24.713  0.00  0.00    -0.203 NA
BRANCH  11  10
ATOM      3  C   UNL     1      -2.835  -1.606  24.496  0.00  0.00    +0.144 A 
ATOM      4  C   UNL     1      -2.903  -2.425  24.565  0.00  0.00    +0.043 A 
ATOM      5  C   UNL     1      -3.617  -2.797  24.383  0.00  0.00    +0.028 A 
ATOM      8  C   UNL     1      -4.263  -2.350  24.133  0.00  0.00    +0.006 A 
ATOM      9  C   UNL     1      -4.195  -1.529  24.064  0.00  0.00    +0.008 A 
ATOM     10  C   UNL     1      -3.481  -1.159  24.246  0.00  0.00    +0.089 A 
BRANCH   3   2
ATOM      1  C   UNL     1      -1.455  -1.684  24.859  0.00  0.00    +0.252 C 
ATOM      2  O   UNL     1      -2.121  -1.234  24.677  0.00  0.00    -0.471 OA
ENDBRANCH   3   2
BRANCH   5   6
ATOM      6  S   UNL     1      -3.684  -3.616  24.452  0.00  0.00    -0.113 S 
ATOM      7  C   UNL     1      -4.036  -4.054  23.847  0.00  0.00    +0.074 C 
ENDBRANCH   5   6
ENDBRANCH  11  10
ENDBRANCH  14  13
TORSDOF 5
ENDMDL
MODEL 6
REMARK VINA RESULT:      -8.1      3.210      5.090
REMARK  Name = 
REMARK  5 active torsions:
REMARK  status: ('A' for Active; 'I' for Inactive)
REMARK    1  A    between atoms: O_2  and  C_3
REMARK    2  A    between atoms: C_5  and  S_6
REMARK    3  A    between atoms: C_10  and  C_11
REMARK    4  A    between atoms: N_13  and  C_14
REMARK    5  A    between atoms: N_22  and  C_25
REMARK                            x       y       z     vdW  Elec       q    Type
REMARK                         _______ _______ _______ _____ _____    ______ ____
ROOT
ATOM     14  C   UNL     1      -1.434   1.471  24.445  0.00  0.00    +0.099 C 
ATOM     15  C   UNL     1      -0.729   1.049  24.372  0.00  0.00    +0.043 C 
ATOM     16  C   UNL     1      -0.738   0.225  24.390  0.00  0.00    +0.097 C 
ATOM     17  N   UNL     1      -1.453  -0.178  24.480  0.00  0.00    -0.257 N 
ATOM     18  C   UNL     1      -2.158   0.244  24.553  0.00  0.00    +0.156 C 
ATOM     19  C   UNL     1      -2.149   1.069  24.535  0.00  0.00    +0.051 C 
ATOM     20  C   UNL     1      -2.773  -0.299  24.635  0.00  0.00    +0.254 C 
ATOM     21  O   UNL     1      -3.573  -0.116  24.724  0.00  0.00    -0.272 OA
ATOM     22  N   UNL     1      -2.448  -1.057  24.613  0.00  0.00    -0.191 N 
ATOM     23  C   UNL     1      -1.633  -0.982  24.517  0.00  0.00    +0.317 C 
ATOM     24  O   UNL     1      -1.091  -1.602  24.467  0.00  0.00    -0.252 OA
ENDROOT
BRANCH  22  25
ATOM     25  C   UNL     1      -2.866  -1.765  24.675  0.00  0.00    +0.063 A 
ATOM     26  C   UNL     1      -2.828  -2.207  25.372  0.00  0.00    +0.018 A 
ATOM     27  C   UNL     1      -3.246  -2.916  25.434  0.00  0.00    +0.032 A 
ATOM     28  C   UNL     1      -3.702  -3.183  24.801  0.00  0.00    +0.151 A 
ATOM     29  F   UNL     1      -4.119  -3.891  24.863  0.00  0.00    -0.203 F 
ATOM     30  C   UNL     1      -3.740  -2.742  24.105  0.00  0.00    +0.086 A 
ATOM     31 CL   UNL     1      -4.196  -3.009  23.471  0.00  0.00    -0.080 Cl
ATOM     32  C   UNL     1      -3.322  -2.033  24.042  0.00  0.00    +0.029 A 
ENDBRANCH  22  25
BRANCH  14  13
ATOM     11  C   UNL     1      -1.316   2.722  25.125  0.00  0.00    +0.268 C 
ATOM     12  O   UNL     1      -1.216   2.324  25.841  0.00  0.00    -0.268 OA
ATOM     13  N   UNL     1      -1.425   2.297  24.427  0.00  0.00    -0.203 NA
BRANCH  11  10
ATOM      3  C   UNL     1      -1.903   3.975  25.484  0.00  0.00    +0.144 A 
ATOM      4  C   UNL     1      -1.894   4.799  25.466  0.00  0.00    +0.043 A 
ATOM      5  C   UNL     1      -1.288   5.198  25.072  0.00  0.00    +0.028 A 
ATOM      8  C   UNL     1      -0.691   4.770  24.695  0.00  0.00    +0.006 A 
ATOM      9  C   UNL     1      -0.700   3.945  24.713  0.00  0.00    +0.008 A 
ATOM     10  C   UNL     1      -1.307   3.548  25.107  0.00  0.00    +0.089 A 
BRANCH   3   2
ATOM      1  C   UNL     1      -3.114   4.003  26.242  0.00  0.00    +0.252 C 
ATOM      2  O   UNL     1      -2.509   3.577  25.878  0.00  0.00    -0.471 OA
ENDBRANCH   3   2
BRANCH   5   6
ATOM      6  S   UNL     1      -1.279   6.022  25.054  0.00  0.00    -0.113 S 
ATOM      7  C   UNL     1      -1.688   6.427  24.463  0.00  0.00    +0.074 C 
ENDBRANCH   5   6
ENDBRANCH  11  10
ENDBRANCH  14  13
TORSDOF 5
ENDMDL
MODEL 7
REMARK VINA RESULT:      -8.0      1.463      1.974
REMARK  Name = 
REMARK  5 active torsions:
REMARK  status: ('A' for Active; 'I' for Inactive)
REMARK    1  A    between atoms: O_2  and  C_3
REMARK    2  A    between atoms: C_5  and  S_6
REMARK    3  A    between atoms: C_10  and  C_11
REMARK    4  A    between atoms: N_13  and  C_14
REMARK    5  A    between atoms: N_22  and  C_25
REMARK                            x       y       z     vdW  Elec       q    Type
REMARK                         _______ _______ _______ _____ _____    ______ ____
ROOT
ATOM     14  C   UNL     1      -0.456   0.807  24.241  0.00  0.00    +0.099 C 
ATOM     15  C   UNL     1      -0.595   0.223  24.806  0.00  0.00    +0.043 C 
ATOM     16  C   UNL     1      -1.345   0.144  25.140  0.00  0.00    +0.097 C 
ATOM     17  N   UNL     1      -1.955   0.649  24.910  0.00  0.00    -0.257 N 
ATOM     18  C   UNL     1      -1.816   1.233  24.345  0.00  0.00    +0.156 C 
ATOM     19  C   UNL     1      -1.065   1.313  24.010  0.00  0.00    +0.051 C 
ATOM     20  C   UNL     1      -2.519   1.648  24.228  0.00  0.00    +0.254 C 
ATOM     21  O   UNL     1      -2.628   2.280  23.709  0.00  0.00    -0.272 OA
ATOM     22  N   UNL     1      -3.093   1.320  24.720  0.00  0.00    -0.191 N 
ATOM     23  C   UNL     1      -2.745   0.702  25.141  0.00  0.00    +0.317 C 
ATOM     24  O   UNL     1      -3.120   0.222  25.697  0.00  0.00    -0.252 OA
ENDROOT
BRANCH  22  25
ATOM     25  C   UNL     1      -3.878   1.565  24.780  0.00  0.00    +0.063 A 
ATOM     26  C   UNL     1      -4.482   1.104  24.456  0.00  0.00    +0.018 A 
ATOM     27  C   UNL     1      -5.267   1.350  24.516  0.00  0.00    +0.032 A 
ATOM     28  C   UNL     1      -5.449   2.057  24.900  0.00  0.00    +0.151 A 
ATOM     29  F   UNL     1      -6.234   2.303  24.961  0.00  0.00    -0.203 F 
ATOM     30  C   UNL     1      -4.847   2.518  25.224  0.00  0.00    +0.086 A 
ATOM     31 CL   UNL     1      -5.029   3.225  25.608  0.00  0.00    -0.080 Cl
ATOM     32  C   UNL     1      -4.062   2.272  25.164  0.00  0.00    +0.029 A 
ENDBRANCH  22  25
BRANCH  14  13
ATOM     11  C   UNL     1       0.658   0.238  23.549  0.00  0.00    +0.268 C 
ATOM     12  O   UNL     1       0.271  -0.491  23.527  0.00  0.00    -0.268 OA
ATOM     13  N   UNL     1       0.295   0.887  23.906  0.00  0.00    -0.203 NA
BRANCH  11  10
ATOM      3  C   UNL     1       1.574  -0.033  22.486  0.00  0.00    +0.144 A 
ATOM      4  C   UNL     1       2.324   0.047  22.152  0.00  0.00    +0.043 A 
ATOM      5  C   UNL     1       2.908   0.477  22.545  0.00  0.00    +0.028 A 
ATOM      8  C   UNL     1       2.742   0.827  23.273  0.00  0.00    +0.006 A 
ATOM      9  C   UNL     1       1.991   0.748  23.608  0.00  0.00    +0.008 A 
ATOM     10  C   UNL     1       1.408   0.317  23.214  0.00  0.00    +0.089 A 
BRANCH   3   2
ATOM      1  C   UNL     1       1.110  -0.708  21.315  0.00  0.00    +0.252 C 
ATOM      2  O   UNL     1       0.990  -0.463  22.093  0.00  0.00    -0.471 OA
ENDBRANCH   3   2
BRANCH   5   6
ATOM      6  S   UNL     1       3.657   0.556  22.211  0.00  0.00    -0.113 S 
ATOM      7  C   UNL     1       4.325   0.588  22.695  0.00  0.00    +0.074 C 
ENDBRANCH   5   6
ENDBRANCH  11  10
ENDBRANCH  14  13
TORSDOF 5
ENDMDL
