MODEL 1
REMARK VINA RESULT:     -11.2      0.000      0.000
REMARK  Name = 
REMARK  9 active torsions:
REMARK  status: ('A' for Active; 'I' for Inactive)
REMARK    1  A    between atoms: C_2  and  C_3
REMARK    2  A    between atoms: C_3  and  C_4
REMARK    3  A    between atoms: C_3  and  C_6
REMARK    4  A    between atoms: N_8  and  C_9
REMARK    5  A    between atoms: C_9  and  C_10
REMARK    6  A    between atoms: C_12  and  C_13
REMARK    7  A    between atoms: C_13  and  C_14
REMARK    8  A    between atoms: N_16  and  C_18
REMARK    9  A    between atoms: C_18  and  C_19
REMARK                            x       y       z     vdW  Elec       q    Type
REMARK                         _______ _______ _______ _____ _____    ______ ____
ROOT
ATOM     10  C   UNL     1      -4.230   3.126  25.444  0.00  0.00    +0.170 C 
ATOM     11  O   UNL     1      -4.076   2.322  25.334  0.00  0.00    -0.351 OA
ATOM     12  C   UNL     1      -4.797   1.939  25.217  0.00  0.00    +0.157 C 
ATOM     25  C   UNL     1      -5.396   2.505  25.254  0.00  0.00    +0.212 C 
ATOM     26  O   UNL     1      -6.204   2.363  25.167  0.00  0.00    -0.218 OA
ATOM     27  C   UNL     1      -5.045   3.238  25.394  0.00  0.00    +0.213 C 
ATOM     28  O   UNL     1      -5.440   3.958  25.471  0.00  0.00    -0.218 OA
ENDROOT
BRANCH  10   9
ATOM      9  C   UNL     1      -3.665   3.713  25.579  0.00  0.00    +0.147 C 
BRANCH   9   8
ATOM      6  C   UNL     1      -2.289   4.097  25.618  0.00  0.00    +0.241 C 
ATOM      7  O   UNL     1      -2.478   4.718  26.126  0.00  0.00    -0.273 OA
ATOM      8  N   UNL     1      -2.883   3.594  25.345  0.00  0.00    -0.203 NA
BRANCH   6   3
ATOM      3  C   UNL     1      -1.507   3.978  25.384  0.00  0.00    +0.078 C 
BRANCH   3   2
ATOM      1  C   UNL     1      -0.538   2.931  25.451  0.00  0.00    +0.001 C 
ATOM      2  C   UNL     1      -1.014   3.489  25.829  0.00  0.00    +0.009 C 
ENDBRANCH   3   2
BRANCH   3   4
ATOM      4  C   UNL     1      -1.219   4.347  24.706  0.00  0.00    +0.009 C 
ATOM      5  C   UNL     1      -0.664   4.954  24.771  0.00  0.00    +0.001 C 
ENDBRANCH   3   4
ENDBRANCH   6   3
ENDBRANCH   9   8
ENDBRANCH  10   9
BRANCH  12  13
ATOM     13  C   UNL     1      -4.901   1.131  25.086  0.00  0.00    +0.117 C 
BRANCH  13  14
ATOM     14  C   UNL     1      -4.372   0.720  24.605  0.00  0.00    +0.228 C 
ATOM     15  O   UNL     1      -4.086   1.069  23.914  0.00  0.00    -0.275 OA
ATOM     16  N   UNL     1      -4.128  -0.040  24.815  0.00  0.00    -0.274 N 
ATOM     17  C   UNL     1      -4.415  -0.388  25.506  0.00  0.00    +0.115 C 
BRANCH  16  18
ATOM     18  C   UNL     1      -3.600  -0.451  24.335  0.00  0.00    +0.120 C 
BRANCH  18  19
ATOM     19  C   UNL     1      -3.592  -1.276  24.340  0.00  0.00    -0.002 A 
ATOM     20  C   UNL     1      -3.040  -1.682  24.800  0.00  0.00    -0.003 A 
ATOM     21  C   UNL     1      -3.033  -2.506  24.804  0.00  0.00    -0.000 A 
ATOM     22  C   UNL     1      -3.578  -2.925  24.349  0.00  0.00    -0.000 A 
ATOM     23  C   UNL     1      -4.130  -2.521  23.889  0.00  0.00    -0.000 A 
ATOM     24  C   UNL     1      -4.137  -1.696  23.884  0.00  0.00    -0.003 A 
ENDBRANCH  18  19
ENDBRANCH  16  18
ENDBRANCH  13  14
ENDBRANCH  12  13
TORSDOF 9
ENDMDL
MODEL 2
REMARK VINA RESULT:     -10.3      1.682      3.368
REMARK  Name = 
REMARK  9 active torsions:
REMARK  status: ('A' for Active; 'I' for Inactive)
REMARK    1  A    between atoms: C_2  and  C_3
REMARK    2  A    between atoms: C_3  and  C_4
REMARK    3  A    between atoms: C_3  and  C_6
REMARK    4  A    between atoms: N_8  and  C_9
REMARK    5  A    between atoms: C_9  and  C_10
REMARK    6  A    between atoms: C_12  and  C_13
REMARK    7  A    between atoms: C_13  and  C_14
REMARK    8  A    between atoms: N_16  and  C_18
REMARK    9  A    between atoms: C_18  and  C_19
REMARK                            x       y       z     vdW  Elec       q    Type
REMARK                         _______ _______ _______ _____ _____    ______ ____
ROOT
ATOM     10  C   UNL     1      -1.655   2.671  25.241  0.00  0.00    +0.170 C 
ATOM     11  O   UNL     1      -1.686   1.848  25.196  0.00  0.00    -0.351 OA
ATOM     12  C   UNL     1      -0.938   1.555  25.385  0.00  0.00    +0.157 C 
ATOM     25  C   UNL     1      -0.446   2.197  25.547  0.00  0.00    +0.212 C 
ATOM     26  O   UNL     1       0.350   2.156  25.760  0.00  0.00    -0.218 OA
ATOM     27  C   UNL     1      -0.889   2.887  25.457  0.00  0.00    +0.213 C 
ATOM     28  O   UNL     1      -0.615   3.657  25.566  0.00  0.00    -0.218 OA
ENDROOT
BRANCH  10   9
ATOM      9  C   UNL     1      -2.282   3.188  25.094  0.00  0.00    +0.147 C 
BRANCH   9   8
ATOM      6  C   UNL     1      -3.686   3.350  24.878  0.00  0.00    +0.241 C 
ATOM      7  O   UNL     1      -3.535   4.008  24.403  0.00  0.00    -0.273 OA
ATOM      8  N   UNL     1      -3.059   2.940  25.223  0.00  0.00    -0.203 NA
BRANCH   6   3
ATOM      3  C   UNL     1      -4.462   3.103  25.007  0.00  0.00    +0.078 C 
BRANCH   3   2
ATOM      1  C   UNL     1      -5.565   3.795  25.593  0.00  0.00    +0.001 C 
ATOM      2  C   UNL     1      -4.870   3.359  25.676  0.00  0.00    +0.009 C 
ENDBRANCH   3   2
BRANCH   3   4
ATOM      4  C   UNL     1      -4.829   2.600  24.468  0.00  0.00    +0.009 C 
ATOM      5  C   UNL     1      -5.219   1.923  24.734  0.00  0.00    +0.001 C 
ENDBRANCH   3   4
ENDBRANCH   6   3
ENDBRANCH   9   8
ENDBRANCH  10   9
BRANCH  12  13
ATOM     13  C   UNL     1      -0.720   0.759  25.409  0.00  0.00    +0.117 C 
BRANCH  13  14
ATOM     14  C   UNL     1      -0.982   0.243  24.821  0.00  0.00    +0.228 C 
ATOM     15  O   UNL     1      -0.917   0.455  24.026  0.00  0.00    -0.275 OA
ATOM     16  N   UNL     1      -1.309  -0.485  25.028  0.00  0.00    -0.274 N 
ATOM     17  C   UNL     1      -1.375  -0.697  25.823  0.00  0.00    +0.115 C 
BRANCH  16  18
ATOM     18  C   UNL     1      -1.571  -1.002  24.441  0.00  0.00    +0.120 C 
BRANCH  18  19
ATOM     19  C   UNL     1      -2.244  -1.463  24.566  0.00  0.00    -0.002 A 
ATOM     20  C   UNL     1      -2.993  -1.119  24.529  0.00  0.00    -0.003 A 
ATOM     21  C   UNL     1      -3.665  -1.580  24.654  0.00  0.00    -0.000 A 
ATOM     22  C   UNL     1      -3.589  -2.385  24.816  0.00  0.00    -0.000 A 
ATOM     23  C   UNL     1      -2.840  -2.729  24.853  0.00  0.00    -0.000 A 
ATOM     24  C   UNL     1      -2.167  -2.268  24.728  0.00  0.00    -0.003 A 
ENDBRANCH  18  19
ENDBRANCH  16  18
ENDBRANCH  13  14
ENDBRANCH  12  13
TORSDOF 9
ENDMDL
MODEL 3
REMARK VINA RESULT:     -10.3      2.381      6.014
REMARK  Name = 
REMARK  9 active torsions:
REMARK  status: ('A' for Active; 'I' for Inactive)
REMARK    1  A    between atoms: C_2  and  C_3
REMARK    2  A    between atoms: C_3  and  C_4
REMARK    3  A    between atoms: C_3  and  C_6
REMARK    4  A    between atoms: N_8  and  C_9
REMARK    5  A    between atoms: C_9  and  C_10
REMARK    6  A    between atoms: C_12  and  C_13
REMARK    7  A    between atoms: C_13  and  C_14
REMARK    8  A    between atoms: N_16  and  C_18
REMARK    9  A    between atoms: C_18  and  C_19
REMARK                            x       y       z     vdW  Elec       q    Type
REMARK                         _______ _______ _______ _____ _____    ______ ____
ROOT
ATOM     10  C   UNL     1      -0.736  -0.325  24.348  0.00  0.00    +0.170 C 
ATOM     11  O   UNL     1      -0.770   0.487  24.494  0.00  0.00    -0.351 OA
ATOM     12  C   UNL     1      -0.113   0.836  24.137  0.00  0.00    +0.157 C 
ATOM     25  C   UNL     1       0.326   0.242  23.771  0.00  0.00    +0.212 C 
ATOM     26  O   UNL     1       1.027   0.346  23.349  0.00  0.00    -0.218 OA
ATOM     27  C   UNL     1      -0.059  -0.476  23.902  0.00  0.00    +0.213 C 
ATOM     28  O   UNL     1       0.189  -1.216  23.634  0.00  0.00    -0.218 OA
ENDROOT
BRANCH  10   9
ATOM      9  C   UNL     1      -1.284  -0.886  24.605  0.00  0.00    +0.147 C 
BRANCH   9   8
ATOM      6  C   UNL     1      -2.641  -1.280  24.818  0.00  0.00    +0.241 C 
ATOM      7  O   UNL     1      -2.383  -1.952  25.220  0.00  0.00    -0.273 OA
ATOM      8  N   UNL     1      -2.091  -0.747  24.510  0.00  0.00    -0.203 NA
BRANCH   6   3
ATOM      3  C   UNL     1      -3.449  -1.140  24.723  0.00  0.00    +0.078 C 
BRANCH   3   2
ATOM      1  C   UNL     1      -4.341  -1.935  23.941  0.00  0.00    +0.001 C 
ATOM      2  C   UNL     1      -3.813  -1.304  24.002  0.00  0.00    +0.009 C 
ENDBRANCH   3   2
BRANCH   3   4
ATOM      4  C   UNL     1      -3.891  -0.837  25.349  0.00  0.00    +0.009 C 
ATOM      5  C   UNL     1      -4.271  -0.109  25.270  0.00  0.00    +0.001 C 
ENDBRANCH   3   4
ENDBRANCH   6   3
ENDBRANCH   9   8
ENDBRANCH  10   9
BRANCH  12  13
ATOM     13  C   UNL     1       0.072   1.641  24.144  0.00  0.00    +0.117 C 
BRANCH  13  14
ATOM     14  C   UNL     1      -0.079   2.092  24.818  0.00  0.00    +0.228 C 
ATOM     15  O   UNL     1       0.072   1.779  25.567  0.00  0.00    -0.275 OA
ATOM     16  N   UNL     1      -0.380   2.856  24.744  0.00  0.00    -0.274 N 
ATOM     17  C   UNL     1      -0.531   3.169  23.995  0.00  0.00    +0.115 C 
BRANCH  16  18
ATOM     18  C   UNL     1      -0.531   3.308  25.416  0.00  0.00    +0.120 C 
BRANCH  18  19
ATOM     19  C   UNL     1      -1.109   3.896  25.399  0.00  0.00    -0.002 A 
ATOM     20  C   UNL     1      -1.873   3.733  25.666  0.00  0.00    -0.003 A 
ATOM     21  C   UNL     1      -2.450   4.322  25.647  0.00  0.00    -0.000 A 
ATOM     22  C   UNL     1      -2.265   5.073  25.363  0.00  0.00    -0.000 A 
ATOM     23  C   UNL     1      -1.502   5.236  25.096  0.00  0.00    -0.000 A 
ATOM     24  C   UNL     1      -0.923   4.648  25.113  0.00  0.00    -0.003 A 
ENDBRANCH  18  19
ENDBRANCH  16  18
ENDBRANCH  13  14
ENDBRANCH  12  13
TORSDOF 9
ENDMDL
MODEL 4
REMARK VINA RESULT:     -10.3      1.979      5.108
REMARK  Name = 
REMARK  9 active torsions:
REMARK  status: ('A' for Active; 'I' for Inactive)
REMARK    1  A    between atoms: C_2  and  C_3
REMARK    2  A    between atoms: C_3  and  C_4
REMARK    3  A    between atoms: C_3  and  C_6
REMARK    4  A    between atoms: N_8  and  C_9
REMARK    5  A    between atoms: C_9  and  C_10
REMARK    6  A    between atoms: C_12  and  C_13
REMARK    7  A    between atoms: C_13  and  C_14
REMARK    8  A    between atoms: N_16  and  C_18
REMARK    9  A    between atoms: C_18  and  C_19
REMARK                            x       y       z     vdW  Elec       q    Type
REMARK                         _______ _______ _______ _____ _____    ______ ____
ROOT
ATOM     10  C   UNL     1      -1.090   0.527  24.373  0.00  0.00    +0.170 C 
ATOM     11  O   UNL     1      -1.675   1.104  24.444  0.00  0.00    -0.351 OA
ATOM     12  C   UNL     1      -1.320   1.841  24.341  0.00  0.00    +0.157 C 
ATOM     25  C   UNL     1      -0.515   1.720  24.206  0.00  0.00    +0.212 C 
ATOM     26  O   UNL     1       0.048   2.308  24.075  0.00  0.00    -0.218 OA
ATOM     27  C   UNL     1      -0.373   0.908  24.226  0.00  0.00    +0.213 C 
ATOM     28  O   UNL     1       0.358   0.541  24.117  0.00  0.00    -0.218 OA
ENDROOT
BRANCH  10   9
ATOM      9  C   UNL     1      -1.202  -0.288  24.438  0.00  0.00    +0.147 C 
BRANCH   9   8
ATOM      6  C   UNL     1      -2.056  -1.398  24.724  0.00  0.00    +0.241 C 
ATOM      7  O   UNL     1      -1.409  -1.907  24.674  0.00  0.00    -0.273 OA
ATOM      8  N   UNL     1      -1.952  -0.588  24.605  0.00  0.00    -0.203 NA
BRANCH   6   3
ATOM      3  C   UNL     1      -2.806  -1.698  24.892  0.00  0.00    +0.078 C 
BRANCH   3   2
ATOM      1  C   UNL     1      -3.731  -1.308  25.907  0.00  0.00    +0.001 C 
ATOM      2  C   UNL     1      -3.068  -1.739  25.672  0.00  0.00    +0.009 C 
ENDBRANCH   3   2
BRANCH   3   4
ATOM      4  C   UNL     1      -3.293  -1.957  24.279  0.00  0.00    +0.009 C 
ATOM      5  C   UNL     1      -3.641  -2.704  24.317  0.00  0.00    +0.001 C 
ENDBRANCH   3   4
ENDBRANCH   6   3
ENDBRANCH   9   8
ENDBRANCH  10   9
BRANCH  12  13
ATOM     13  C   UNL     1      -1.702   2.572  24.369  0.00  0.00    +0.117 C 
BRANCH  13  14
ATOM     14  C   UNL     1      -2.463   2.651  24.059  0.00  0.00    +0.228 C 
ATOM     15  O   UNL     1      -2.628   2.382  23.296  0.00  0.00    -0.275 OA
ATOM     16  N   UNL     1      -3.059   2.998  24.511  0.00  0.00    -0.274 N 
ATOM     17  C   UNL     1      -2.893   3.267  25.274  0.00  0.00    +0.115 C 
BRANCH  16  18
ATOM     18  C   UNL     1      -3.819   3.077  24.203  0.00  0.00    +0.120 C 
BRANCH  18  19
ATOM     19  C   UNL     1      -4.474   2.874  24.661  0.00  0.00    -0.002 A 
ATOM     20  C   UNL     1      -4.786   3.415  25.201  0.00  0.00    -0.003 A 
ATOM     21  C   UNL     1      -5.441   3.210  25.658  0.00  0.00    -0.000 A 
ATOM     22  C   UNL     1      -5.785   2.465  25.575  0.00  0.00    -0.000 A 
ATOM     23  C   UNL     1      -5.474   1.924  25.036  0.00  0.00    -0.000 A 
ATOM     24  C   UNL     1      -4.819   2.128  24.578  0.00  0.00    -0.003 A 
ENDBRANCH  18  19
ENDBRANCH  16  18
ENDBRANCH  13  14
ENDBRANCH  12  13
TORSDOF 9
ENDMDL
