MODEL 1
REMARK VINA RESULT:      -9.4      0.000      0.000
REMARK  Name = 
REMARK  9 active torsions:
REMARK  status: ('A' for Active; 'I' for Inactive)
REMARK    1  A    between atoms: C_4  and  C_5
REMARK    2  A    between atoms: C_9  and  N_29
REMARK    3  A    between atoms: C_11  and  C_12
REMARK    4  A    between atoms: N_14  and  C_15
REMARK    5  A    between atoms: C_15  and  C_16
REMARK    6  A    between atoms: C_15  and  C_26
REMARK    7  A    between atoms: C_16  and  C_17
REMARK    8  A    between atoms: N_32  and  C_33
REMARK    9  A    between atoms: C_33  and  C_34
REMARK                            x       y       z     vdW  Elec       q    Type
REMARK                         _______ _______ _______ _____ _____    ______ ____
ROOT
ATOM      5  C   UNL     1      -0.980  -0.711  24.821  0.00  0.00    +0.249 C 
ATOM      6  O   UNL     1      -0.676  -1.320  25.286  0.00  0.00    -0.270 OA
ATOM      7  N   UNL     1      -0.535  -0.406  24.197  0.00  0.00    -0.268 N 
ATOM      8  C   UNL     1       0.220  -0.653  23.975  0.00  0.00    +0.116 C 
ATOM      9  C   UNL     1       0.457  -0.201  23.327  0.00  0.00    +0.119 C 
ATOM     10  C   UNL     1      -0.152   0.326  23.149  0.00  0.00    +0.053 C 
ATOM     11  C   UNL     1      -0.765   0.199  23.687  0.00  0.00    +0.156 C 
ENDROOT
BRANCH   5   4
ATOM      1  C   UNL     1      -1.880  -1.333  26.056  0.00  0.00    +0.027 C 
ATOM      2  C   UNL     1      -2.181  -0.718  25.596  0.00  0.00    -0.039 C 
ATOM      3  C   UNL     1      -2.932  -0.413  25.753  0.00  0.00    +0.027 C 
ATOM      4  C   UNL     1      -1.731  -0.407  24.978  0.00  0.00    +0.049 C 
ENDBRANCH   5   4
BRANCH   9  29
ATOM     29  N   UNL     1       1.176  -0.264  22.928  0.00  0.00    -0.187 NA
ATOM     30  C   UNL     1       1.785   0.268  23.088  0.00  0.00    +0.340 C 
ATOM     31  O   UNL     1       1.675   0.864  23.648  0.00  0.00    -0.249 OA
ATOM     32  N   UNL     1       2.504   0.205  22.689  0.00  0.00    -0.182 NA
BRANCH  32  33
ATOM     33  C   UNL     1       3.113   0.737  22.849  0.00  0.00    +0.143 C 
BRANCH  33  34
ATOM     34  C   UNL     1       3.841   0.658  22.468  0.00  0.00    -0.003 C 
ATOM     35  C   UNL     1       4.541   0.723  22.899  0.00  0.00    -0.003 C 
ENDBRANCH  33  34
ENDBRANCH  32  33
ENDBRANCH   9  29
BRANCH  11  12
ATOM     12  C   UNL     1      -1.482   0.607  23.709  0.00  0.00    +0.260 C 
ATOM     13  O   UNL     1      -2.186   0.197  23.839  0.00  0.00    -0.272 OA
ATOM     14  N   UNL     1      -1.495   1.425  23.602  0.00  0.00    -0.196 NA
BRANCH  14  15
ATOM     15  C   UNL     1      -2.211   1.833  23.624  0.00  0.00    +0.179 C 
BRANCH  15  26
ATOM     26  C   UNL     1      -2.679   1.883  22.947  0.00  0.00    +0.281 C 
ATOM     27  N   UNL     1      -2.347   2.127  22.232  0.00  0.00    -0.086 NA
ATOM     28  O   UNL     1      -3.480   1.688  22.983  0.00  0.00    -0.270 OA
ENDBRANCH  15  26
BRANCH  15  16
ATOM     16  C   UNL     1      -2.460   2.192  24.325  0.00  0.00    +0.059 C 
BRANCH  16  17
ATOM     17  C   UNL     1      -2.126   2.908  24.563  0.00  0.00    +0.001 A 
ATOM     18  C   UNL     1      -1.429   3.239  24.270  0.00  0.00    +0.095 A 
ATOM     19  N   UNL     1      -1.303   3.954  24.662  0.00  0.00    -0.244 NA
ATOM     20  C   UNL     1      -1.921   4.065  25.196  0.00  0.00    +0.081 A 
ATOM     21  C   UNL     1      -2.430   3.419  25.135  0.00  0.00    +0.015 A 
ATOM     22  C   UNL     1      -3.105   3.378  25.608  0.00  0.00    +0.001 A 
ATOM     23  C   UNL     1      -3.270   3.984  26.142  0.00  0.00    +0.000 A 
ATOM     24  C   UNL     1      -2.762   4.631  26.204  0.00  0.00    +0.002 A 
ATOM     25  C   UNL     1      -2.087   4.671  25.731  0.00  0.00    +0.019 A 
ENDBRANCH  16  17
ENDBRANCH  15  16
ENDBRANCH  14  15
ENDBRANCH  11  12
TORSDOF 9
ENDMDL
MODEL 2
REMARK VINA RESULT:      -9.1      1.774      3.951
REMARK  Name = 
REMARK  9 active torsions:
REMARK  status: ('A' for Active; 'I' for Inactive)
REMARK    1  A    between atoms: C_4  and  C_5
REMARK    2  A    between atoms: C_9  and  N_29
REMARK    3  A    between atoms: C_11  and  C_12
REMARK    4  A    between atoms: N_14  and  C_15
REMARK    5  A    between atoms: C_15  and  C_16
REMARK    6  A    between atoms: C_15  and  C_26
REMARK    7  A    between atoms: C_16  and  C_17
REMARK    8  A    between atoms: N_32  and  C_33
REMARK    9  A    between atoms: C_33  and  C_34
REMARK                            x       y       z     vdW  Elec       q    Type
REMARK                         _______ _______ _______ _____ _____    ______ ____
ROOT
ATOM      5  C   UNL     1      -1.835   3.344  25.153  0.00  0.00    +0.249 C 
ATOM      6  O   UNL     1      -1.369   4.017  25.256  0.00  0.00    -0.270 OA
ATOM      7  N   UNL     1      -1.573   2.731  24.667  0.00  0.00    -0.268 N 
ATOM      8  C   UNL     1      -0.861   2.714  24.251  0.00  0.00    +0.116 C 
ATOM      9  C   UNL     1      -0.824   2.000  23.838  0.00  0.00    +0.119 C 
ATOM     10  C   UNL     1      -1.514   1.577  24.000  0.00  0.00    +0.053 C 
ATOM     11  C   UNL     1      -1.976   2.029  24.512  0.00  0.00    +0.156 C 
ENDROOT
BRANCH   5   4
ATOM      1  C   UNL     1      -2.412   4.615  26.032  0.00  0.00    +0.027 C 
ATOM      2  C   UNL     1      -2.852   3.919  25.976  0.00  0.00    -0.039 C 
ATOM      3  C   UNL     1      -3.581   3.859  26.359  0.00  0.00    +0.027 C 
ATOM      4  C   UNL     1      -2.564   3.283  25.536  0.00  0.00    +0.049 C 
ENDBRANCH   5   4
BRANCH   9  29
ATOM     29  N   UNL     1      -0.207   1.753  23.350  0.00  0.00    -0.187 NA
ATOM     30  C   UNL     1       0.232   1.083  23.546  0.00  0.00    +0.340 C 
ATOM     31  O   UNL     1       0.053   0.659  24.231  0.00  0.00    -0.249 OA
ATOM     32  N   UNL     1       0.849   0.836  23.058  0.00  0.00    -0.182 NA
BRANCH  32  33
ATOM     33  C   UNL     1       1.288   0.166  23.254  0.00  0.00    +0.143 C 
BRANCH  33  34
ATOM     34  C   UNL     1       1.768  -0.194  22.688  0.00  0.00    -0.003 C 
ATOM     35  C   UNL     1       2.571  -0.010  22.650  0.00  0.00    -0.003 C 
ENDBRANCH  33  34
ENDBRANCH  32  33
ENDBRANCH   9  29
BRANCH  11  12
ATOM     12  C   UNL     1      -2.713   1.815  24.815  0.00  0.00    +0.260 C 
ATOM     13  O   UNL     1      -2.921   2.029  25.584  0.00  0.00    -0.272 OA
ATOM     14  N   UNL     1      -3.242   1.386  24.349  0.00  0.00    -0.196 NA
BRANCH  14  15
ATOM     15  C   UNL     1      -3.979   1.172  24.651  0.00  0.00    +0.179 C 
BRANCH  15  26
ATOM     26  C   UNL     1      -4.639   1.643  24.503  0.00  0.00    +0.281 C 
ATOM     27  N   UNL     1      -5.234   1.712  25.071  0.00  0.00    -0.086 NA
ATOM     28  O   UNL     1      -4.706   2.048  23.786  0.00  0.00    -0.270 OA
ENDBRANCH  15  26
BRANCH  15  16
ATOM     16  C   UNL     1      -4.056   0.485  25.103  0.00  0.00    +0.059 C 
BRANCH  16  17
ATOM     17  C   UNL     1      -4.065  -0.252  24.734  0.00  0.00    +0.001 A 
ATOM     18  C   UNL     1      -4.352  -0.412  23.977  0.00  0.00    +0.095 A 
ATOM     19  N   UNL     1      -4.253  -1.219  23.832  0.00  0.00    -0.244 NA
ATOM     20  C   UNL     1      -3.906  -1.557  24.499  0.00  0.00    +0.081 A 
ATOM     21  C   UNL     1      -3.790  -0.960  25.057  0.00  0.00    +0.015 A 
ATOM     22  C   UNL     1      -3.448  -1.138  25.786  0.00  0.00    +0.001 A 
ATOM     23  C   UNL     1      -3.223  -1.912  25.958  0.00  0.00    +0.000 A 
ATOM     24  C   UNL     1      -3.339  -2.509  25.401  0.00  0.00    +0.002 A 
ATOM     25  C   UNL     1      -3.681  -2.332  24.671  0.00  0.00    +0.019 A 
ENDBRANCH  16  17
ENDBRANCH  15  16
ENDBRANCH  14  15
ENDBRANCH  11  12
TORSDOF 9
ENDMDL
MODEL 3
REMARK VINA RESULT:      -8.9      1.574      3.976
REMARK  Name = 
REMARK  9 active torsions:
REMARK  status: ('A' for Active; 'I' for Inactive)
REMARK    1  A    between atoms: C_4  and  C_5
REMARK    2  A    between atoms: C_9  and  N_29
REMARK    3  A    between atoms: C_11  and  C_12
REMARK    4  A    between atoms: N_14  and  C_15
REMARK    5  A    between atoms: C_15  and  C_16
REMARK    6  A    between atoms: C_15  and  C_26
REMARK    7  A    between atoms: C_16  and  C_17
REMARK    8  A    between atoms: N_32  and  C_33
REMARK    9  A    between atoms: C_33  and  C_34
REMARK                            x       y       z     vdW  Elec       q    Type
REMARK                         _______ _______ _______ _____ _____    ______ ____
ROOT
ATOM      5  C   UNL     1      -1.080   1.486  23.558  0.00  0.00    +0.249 C 
ATOM      6  O   UNL     1      -1.120   2.093  23.000  0.00  0.00    -0.270 OA
ATOM      7  N   UNL     1      -0.446   0.957  23.548  0.00  0.00    -0.268 N 
ATOM      8  C   UNL     1       0.184   0.967  23.015  0.00  0.00    +0.116 C 
ATOM      9  C   UNL     1       0.688   0.342  23.206  0.00  0.00    +0.119 C 
ATOM     10  C   UNL     1       0.369  -0.053  23.856  0.00  0.00    +0.053 C 
ATOM     11  C   UNL     1      -0.332   0.327  24.067  0.00  0.00    +0.156 C 
ENDROOT
BRANCH   5   4
ATOM      1  C   UNL     1      -2.360   2.526  23.562  0.00  0.00    +0.027 C 
ATOM      2  C   UNL     1      -2.313   1.928  24.128  0.00  0.00    -0.039 C 
ATOM      3  C   UNL     1      -2.906   1.850  24.697  0.00  0.00    +0.027 C 
ATOM      4  C   UNL     1      -1.673   1.408  24.126  0.00  0.00    +0.049 C 
ENDBRANCH   5   4
BRANCH   9  29
ATOM     29  N   UNL     1       1.388   0.147  22.815  0.00  0.00    -0.187 NA
ATOM     30  C   UNL     1       2.089   0.535  23.008  0.00  0.00    +0.340 C 
ATOM     31  O   UNL     1       2.092   1.118  23.591  0.00  0.00    -0.249 OA
ATOM     32  N   UNL     1       2.790   0.340  22.617  0.00  0.00    -0.182 NA
BRANCH  32  33
ATOM     33  C   UNL     1       3.491   0.727  22.810  0.00  0.00    +0.143 C 
BRANCH  33  34
ATOM     34  C   UNL     1       4.214   0.427  22.549  0.00  0.00    -0.003 C 
ATOM     35  C   UNL     1       4.867   0.428  23.052  0.00  0.00    -0.003 C 
ENDBRANCH  33  34
ENDBRANCH  32  33
ENDBRANCH   9  29
BRANCH  11  12
ATOM     12  C   UNL     1      -0.831   0.114  24.689  0.00  0.00    +0.260 C 
ATOM     13  O   UNL     1      -1.116   0.690  25.205  0.00  0.00    -0.272 OA
ATOM     14  N   UNL     1      -1.044  -0.677  24.794  0.00  0.00    -0.196 NA
BRANCH  14  15
ATOM     15  C   UNL     1      -1.542  -0.890  25.415  0.00  0.00    +0.179 C 
BRANCH  15  26
ATOM     26  C   UNL     1      -1.241  -0.966  26.178  0.00  0.00    +0.281 C 
ATOM     27  N   UNL     1      -1.648  -0.640  26.817  0.00  0.00    -0.086 NA
ATOM     28  O   UNL     1      -0.531  -1.368  26.305  0.00  0.00    -0.270 OA
ENDBRANCH  15  26
BRANCH  15  16
ATOM     16  C   UNL     1      -2.344  -1.029  25.272  0.00  0.00    +0.059 C 
BRANCH  16  17
ATOM     17  C   UNL     1      -2.582  -1.729  24.908  0.00  0.00    +0.001 A 
ATOM     18  C   UNL     1      -2.149  -2.430  24.871  0.00  0.00    +0.095 A 
ATOM     19  N   UNL     1      -2.596  -2.985  24.456  0.00  0.00    -0.244 NA
ATOM     20  C   UNL     1      -3.306  -2.628  24.236  0.00  0.00    +0.081 A 
ATOM     21  C   UNL     1      -3.298  -1.852  24.515  0.00  0.00    +0.015 A 
ATOM     22  C   UNL     1      -3.943  -1.357  24.375  0.00  0.00    +0.001 A 
ATOM     23  C   UNL     1      -4.596  -1.638  23.957  0.00  0.00    +0.000 A 
ATOM     24  C   UNL     1      -4.604  -2.415  23.678  0.00  0.00    +0.002 A 
ATOM     25  C   UNL     1      -3.959  -2.910  23.818  0.00  0.00    +0.019 A 
ENDBRANCH  16  17
ENDBRANCH  15  16
ENDBRANCH  14  15
ENDBRANCH  11  12
TORSDOF 9
ENDMDL
MODEL 4
REMARK VINA RESULT:      -8.5      2.409      3.773
REMARK  Name = 
REMARK  9 active torsions:
REMARK  status: ('A' for Active; 'I' for Inactive)
REMARK    1  A    between atoms: C_4  and  C_5
REMARK    2  A    between atoms: C_9  and  N_29
REMARK    3  A    between atoms: C_11  and  C_12
REMARK    4  A    between atoms: N_14  and  C_15
REMARK    5  A    between atoms: C_15  and  C_16
REMARK    6  A    between atoms: C_15  and  C_26
REMARK    7  A    between atoms: C_16  and  C_17
REMARK    8  A    between atoms: N_32  and  C_33
REMARK    9  A    between atoms: C_33  and  C_34
REMARK                            x       y       z     vdW  Elec       q    Type
REMARK                         _______ _______ _______ _____ _____    ______ ____
ROOT
ATOM      5  C   UNL     1      -0.682   1.437  25.514  0.00  0.00    +0.249 C 
ATOM      6  O   UNL     1      -0.190   1.291  26.159  0.00  0.00    -0.270 OA
ATOM      7  N   UNL     1      -1.043   0.808  25.120  0.00  0.00    -0.268 N 
ATOM      8  C   UNL     1      -0.963   0.009  25.308  0.00  0.00    +0.116 C 
ATOM      9  C   UNL     1      -1.418  -0.426  24.773  0.00  0.00    +0.119 C 
ATOM     10  C   UNL     1      -1.779   0.106  24.255  0.00  0.00    +0.053 C 
ATOM     11  C   UNL     1      -1.547   0.868  24.470  0.00  0.00    +0.156 C 
ENDROOT
BRANCH   5   4
ATOM      1  C   UNL     1       0.016   2.696  26.319  0.00  0.00    +0.027 C 
ATOM      2  C   UNL     1      -0.465   2.841  25.665  0.00  0.00    -0.039 C 
ATOM      3  C   UNL     1      -0.597   3.616  25.413  0.00  0.00    +0.027 C 
ATOM      4  C   UNL     1      -0.814   2.212  25.262  0.00  0.00    +0.049 C 
ENDBRANCH   5   4
BRANCH   9  29
ATOM     29  N   UNL     1      -1.498  -1.246  24.759  0.00  0.00    -0.187 NA
ATOM     30  C   UNL     1      -2.237  -1.591  24.879  0.00  0.00    +0.340 C 
ATOM     31  O   UNL     1      -2.897  -1.115  25.012  0.00  0.00    -0.249 OA
ATOM     32  N   UNL     1      -2.317  -2.412  24.865  0.00  0.00    -0.182 NA
BRANCH  32  33
ATOM     33  C   UNL     1      -3.056  -2.757  24.985  0.00  0.00    +0.143 C 
BRANCH  33  34
ATOM     34  C   UNL     1      -3.285  -3.410  24.535  0.00  0.00    -0.003 C 
ATOM     35  C   UNL     1      -4.016  -3.413  24.154  0.00  0.00    -0.003 C 
ENDBRANCH  33  34
ENDBRANCH  32  33
ENDBRANCH   9  29
BRANCH  11  12
ATOM     12  C   UNL     1      -1.779   1.568  24.098  0.00  0.00    +0.260 C 
ATOM     13  O   UNL     1      -1.227   2.164  23.959  0.00  0.00    -0.272 OA
ATOM     14  N   UNL     1      -2.565   1.670  23.866  0.00  0.00    -0.196 NA
BRANCH  14  15
ATOM     15  C   UNL     1      -2.797   2.368  23.494  0.00  0.00    +0.179 C 
BRANCH  15  26
ATOM     26  C   UNL     1      -2.598   2.503  22.705  0.00  0.00    +0.281 C 
ATOM     27  N   UNL     1      -2.721   1.912  22.143  0.00  0.00    -0.086 NA
ATOM     28  O   UNL     1      -2.277   3.228  22.477  0.00  0.00    -0.270 OA
ENDBRANCH  15  26
BRANCH  15  16
ATOM     16  C   UNL     1      -3.229   2.934  23.912  0.00  0.00    +0.059 C 
BRANCH  16  17
ATOM     17  C   UNL     1      -3.983   2.753  24.193  0.00  0.00    +0.001 A 
ATOM     18  C   UNL     1      -4.492   2.182  23.883  0.00  0.00    +0.095 A 
ATOM     19  N   UNL     1      -5.184   2.187  24.333  0.00  0.00    -0.244 NA
ATOM     20  C   UNL     1      -5.103   2.760  24.920  0.00  0.00    +0.081 A 
ATOM     21  C   UNL     1      -4.361   3.110  24.835  0.00  0.00    +0.015 A 
ATOM     22  C   UNL     1      -4.124   3.708  25.351  0.00  0.00    +0.001 A 
ATOM     23  C   UNL     1      -4.630   3.956  25.953  0.00  0.00    +0.000 A 
ATOM     24  C   UNL     1      -5.373   3.607  26.039  0.00  0.00    +0.002 A 
ATOM     25  C   UNL     1      -5.609   3.008  25.522  0.00  0.00    +0.019 A 
ENDBRANCH  16  17
ENDBRANCH  15  16
ENDBRANCH  14  15
ENDBRANCH  11  12
TORSDOF 9
ENDMDL
MODEL 5
REMARK VINA RESULT:      -8.4      2.581      4.365
REMARK  Name = 
REMARK  9 active torsions:
REMARK  status: ('A' for Active; 'I' for Inactive)
REMARK    1  A    between atoms: C_4  and  C_5
REMARK    2  A    between atoms: C_9  and  N_29
REMARK    3  A    between atoms: C_11  and  C_12
REMARK    4  A    between atoms: N_14  and  C_15
REMARK    5  A    between atoms: C_15  and  C_16
REMARK    6  A    between atoms: C_15  and  C_26
REMARK    7  A    between atoms: C_16  and  C_17
REMARK    8  A    between atoms: N_32  and  C_33
REMARK    9  A    between atoms: C_33  and  C_34
REMARK                            x       y       z     vdW  Elec       q    Type
REMARK                         _______ _______ _______ _____ _____    ______ ____
ROOT
ATOM      5  C   UNL     1      -5.015   1.669  25.245  0.00  0.00    +0.249 C 
ATOM      6  O   UNL     1      -5.602   1.554  25.813  0.00  0.00    -0.270 OA
ATOM      7  N   UNL     1      -4.694   1.022  24.846  0.00  0.00    -0.268 N 
ATOM      8  C   UNL     1      -4.904   0.233  24.957  0.00  0.00    +0.116 C 
ATOM      9  C   UNL     1      -4.446  -0.227  24.446  0.00  0.00    +0.119 C 
ATOM     10  C   UNL     1      -3.954   0.280  24.021  0.00  0.00    +0.053 C 
ATOM     11  C   UNL     1      -4.107   1.052  24.268  0.00  0.00    +0.156 C 
ENDROOT
BRANCH   5   4
ATOM      1  C   UNL     1      -5.623   2.959  26.074  0.00  0.00    +0.027 C 
ATOM      2  C   UNL     1      -5.053   3.077  25.490  0.00  0.00    -0.039 C 
ATOM      3  C   UNL     1      -4.787   3.839  25.320  0.00  0.00    +0.027 C 
ATOM      4  C   UNL     1      -4.748   2.432  25.075  0.00  0.00    +0.049 C 
ENDBRANCH   5   4
BRANCH   9  29
ATOM     29  N   UNL     1      -4.476  -1.048  24.375  0.00  0.00    -0.187 NA
ATOM     30  C   UNL     1      -3.874  -1.512  24.693  0.00  0.00    +0.340 C 
ATOM     31  O   UNL     1      -3.241  -1.155  25.083  0.00  0.00    -0.249 OA
ATOM     32  N   UNL     1      -3.903  -2.334  24.621  0.00  0.00    -0.182 NA
BRANCH  32  33
ATOM     33  C   UNL     1      -3.301  -2.798  24.939  0.00  0.00    +0.143 C 
BRANCH  33  34
ATOM     34  C   UNL     1      -3.004  -3.439  24.513  0.00  0.00    -0.003 C 
ATOM     35  C   UNL     1      -2.208  -3.462  24.302  0.00  0.00    -0.003 C 
ENDBRANCH  33  34
ENDBRANCH  32  33
ENDBRANCH   9  29
BRANCH  11  12
ATOM     12  C   UNL     1      -3.737   1.733  23.986  0.00  0.00    +0.260 C 
ATOM     13  O   UNL     1      -4.170   2.428  23.891  0.00  0.00    -0.272 OA
ATOM     14  N   UNL     1      -2.933   1.718  23.798  0.00  0.00    -0.196 NA
BRANCH  14  15
ATOM     15  C   UNL     1      -2.563   2.399  23.516  0.00  0.00    +0.179 C 
BRANCH  15  26
ATOM     26  C   UNL     1      -2.678   2.638  22.735  0.00  0.00    +0.281 C 
ATOM     27  N   UNL     1      -2.514   2.118  22.116  0.00  0.00    -0.086 NA
ATOM     28  O   UNL     1      -2.957   3.398  22.572  0.00  0.00    -0.270 OA
ENDBRANCH  15  26
BRANCH  15  16
ATOM     16  C   UNL     1      -2.076   2.841  24.015  0.00  0.00    +0.059 C 
BRANCH  16  17
ATOM     17  C   UNL     1      -1.349   2.538  24.257  0.00  0.00    +0.001 A 
ATOM     18  C   UNL     1      -0.849   2.060  23.807  0.00  0.00    +0.095 A 
ATOM     19  N   UNL     1      -0.184   1.886  24.264  0.00  0.00    -0.244 NA
ATOM     20  C   UNL     1      -0.273   2.256  24.996  0.00  0.00    +0.081 A 
ATOM     21  C   UNL     1      -0.993   2.659  24.992  0.00  0.00    +0.015 A 
ATOM     22  C   UNL     1      -1.231   3.084  25.657  0.00  0.00    +0.001 A 
ATOM     23  C   UNL     1      -0.750   3.107  26.326  0.00  0.00    +0.000 A 
ATOM     24  C   UNL     1      -0.030   2.704  26.331  0.00  0.00    +0.002 A 
ATOM     25  C   UNL     1       0.208   2.278  25.665  0.00  0.00    +0.019 A 
ENDBRANCH  16  17
ENDBRANCH  15  16
ENDBRANCH  14  15
ENDBRANCH  11  12
TORSDOF 9
ENDMDL
MODEL 6
REMARK VINA RESULT:      -8.4      2.655      4.651
REMARK  Name = 
REMARK  9 active torsions:
REMARK  status: ('A' for Active; 'I' for Inactive)
REMARK    1  A    between atoms: C_4  and  C_5
REMARK    2  A    between atoms: C_9  and  N_29
REMARK    3  A    between atoms: C_11  and  C_12
REMARK    4  A    between atoms: N_14  and  C_15
REMARK    5  A    between atoms: C_15  and  C_16
REMARK    6  A    between atoms: C_15  and  C_26
REMARK    7  A    between atoms: C_16  and  C_17
REMARK    8  A    between atoms: N_32  and  C_33
REMARK    9  A    between atoms: C_33  and  C_34
REMARK                            x       y       z     vdW  Elec       q    Type
REMARK                         _______ _______ _______ _____ _____    ______ ____
ROOT
ATOM      5  C   UNL     1      -1.840   3.174  25.569  0.00  0.00    +0.249 C 
ATOM      6  O   UNL     1      -2.154   3.799  26.006  0.00  0.00    -0.270 OA
ATOM      7  N   UNL     1      -1.085   2.888  25.741  0.00  0.00    -0.268 N 
ATOM      8  C   UNL     1      -0.583   3.172  26.331  0.00  0.00    +0.116 C 
ATOM      9  C   UNL     1       0.113   2.728  26.309  0.00  0.00    +0.119 C 
ATOM     10  C   UNL     1       0.040   2.171  25.705  0.00  0.00    +0.053 C 
ATOM     11  C   UNL     1      -0.701   2.270  25.354  0.00  0.00    +0.156 C 
ENDROOT
BRANCH   5   4
ATOM      1  C   UNL     1      -3.364   3.719  25.249  0.00  0.00    +0.027 C 
ATOM      2  C   UNL     1      -3.042   3.106  24.800  0.00  0.00    -0.039 C 
ATOM      3  C   UNL     1      -3.483   2.766  24.191  0.00  0.00    +0.027 C 
ATOM      4  C   UNL     1      -2.280   2.833  24.960  0.00  0.00    +0.049 C 
ENDBRANCH   5   4
BRANCH   9  29
ATOM     29  N   UNL     1       0.766   2.825  26.803  0.00  0.00    -0.187 NA
ATOM     30  C   UNL     1       0.735   2.563  27.583  0.00  0.00    +0.340 C 
ATOM     31  O   UNL     1       0.050   2.203  27.871  0.00  0.00    -0.249 OA
ATOM     32  N   UNL     1       1.388   2.660  28.078  0.00  0.00    -0.182 NA
BRANCH  32  33
ATOM     33  C   UNL     1       1.357   2.397  28.859  0.00  0.00    +0.143 C 
BRANCH  33  34
ATOM     34  C   UNL     1       2.008   2.499  29.356  0.00  0.00    -0.003 C 
ATOM     35  C   UNL     1       2.042   2.104  30.079  0.00  0.00    -0.003 C 
ENDBRANCH  33  34
ENDBRANCH  32  33
ENDBRANCH   9  29
BRANCH  11  12
ATOM     12  C   UNL     1      -1.003   1.827  24.726  0.00  0.00    +0.260 C 
ATOM     13  O   UNL     1      -1.375   2.206  24.096  0.00  0.00    -0.272 OA
ATOM     14  N   UNL     1      -0.932   1.005  24.731  0.00  0.00    -0.196 NA
BRANCH  14  15
ATOM     15  C   UNL     1      -1.234   0.562  24.104  0.00  0.00    +0.179 C 
BRANCH  15  26
ATOM     26  C   UNL     1      -0.792   0.470  23.413  0.00  0.00    +0.281 C 
ATOM     27  N   UNL     1      -0.020   0.182  23.452  0.00  0.00    -0.086 NA
ATOM     28  O   UNL     1      -1.123   0.665  22.683  0.00  0.00    -0.270 OA
ENDBRANCH  15  26
BRANCH  15  16
ATOM     16  C   UNL     1      -1.978   0.210  24.168  0.00  0.00    +0.059 C 
BRANCH  16  17
ATOM     17  C   UNL     1      -2.054  -0.533  24.518  0.00  0.00    +0.001 A 
ATOM     18  C   UNL     1      -1.468  -0.934  24.938  0.00  0.00    +0.095 A 
ATOM     19  N   UNL     1      -1.783  -1.654  25.190  0.00  0.00    -0.244 NA
ATOM     20  C   UNL     1      -2.562  -1.698  24.926  0.00  0.00    +0.081 A 
ATOM     21  C   UNL     1      -2.731  -1.005  24.511  0.00  0.00    +0.015 A 
ATOM     22  C   UNL     1      -3.478  -0.894  24.180  0.00  0.00    +0.001 A 
ATOM     23  C   UNL     1      -4.057  -1.475  24.264  0.00  0.00    +0.000 A 
ATOM     24  C   UNL     1      -3.889  -2.168  24.679  0.00  0.00    +0.002 A 
ATOM     25  C   UNL     1      -3.142  -2.280  25.010  0.00  0.00    +0.019 A 
ENDBRANCH  16  17
ENDBRANCH  15  16
ENDBRANCH  14  15
ENDBRANCH  11  12
TORSDOF 9
ENDMDL
MODEL 7
REMARK VINA RESULT:      -8.1      1.732      2.727
REMARK  Name = 
REMARK  9 active torsions:
REMARK  status: ('A' for Active; 'I' for Inactive)
REMARK    1  A    between atoms: C_4  and  C_5
REMARK    2  A    between atoms: C_9  and  N_29
REMARK    3  A    between atoms: C_11  and  C_12
REMARK    4  A    between atoms: N_14  and  C_15
REMARK    5  A    between atoms: C_15  and  C_16
REMARK    6  A    between atoms: C_15  and  C_26
REMARK    7  A    between atoms: C_16  and  C_17
REMARK    8  A    between atoms: N_32  and  C_33
REMARK    9  A    between atoms: C_33  and  C_34
REMARK                            x       y       z     vdW  Elec       q    Type
REMARK                         _______ _______ _______ _____ _____    ______ ____
ROOT
ATOM      5  C   UNL     1      -0.399   2.425  25.288  0.00  0.00    +0.249 C 
ATOM      6  O   UNL     1       0.114   2.491  25.930  0.00  0.00    -0.270 OA
ATOM      7  N   UNL     1      -0.214   1.919  24.663  0.00  0.00    -0.268 N 
ATOM      8  C   UNL     1       0.460   1.448  24.605  0.00  0.00    +0.116 C 
ATOM      9  C   UNL     1       0.421   1.032  23.893  0.00  0.00    +0.119 C 
ATOM     10  C   UNL     1      -0.278   1.248  23.512  0.00  0.00    +0.053 C 
ATOM     11  C   UNL     1      -0.671   1.795  23.988  0.00  0.00    +0.156 C 
ENDROOT
BRANCH   5   4
ATOM      1  C   UNL     1      -0.777   3.425  26.544  0.00  0.00    +0.027 C 
ATOM      2  C   UNL     1      -1.286   3.364  25.898  0.00  0.00    -0.039 C 
ATOM      3  C   UNL     1      -1.985   3.803  25.880  0.00  0.00    +0.027 C 
ATOM      4  C   UNL     1      -1.098   2.864  25.270  0.00  0.00    +0.049 C 
ENDBRANCH   5   4
BRANCH   9  29
ATOM     29  N   UNL     1       0.982   0.497  23.612  0.00  0.00    -0.187 NA
ATOM     30  C   UNL     1       1.712   0.769  23.342  0.00  0.00    +0.340 C 
ATOM     31  O   UNL     1       1.882   1.576  23.354  0.00  0.00    -0.249 OA
ATOM     32  N   UNL     1       2.274   0.233  23.061  0.00  0.00    -0.182 NA
BRANCH  32  33
ATOM     33  C   UNL     1       3.004   0.504  22.792  0.00  0.00    +0.143 C 
BRANCH  33  34
ATOM     34  C   UNL     1       3.650  -0.008  22.762  0.00  0.00    -0.003 C 
ATOM     35  C   UNL     1       4.417   0.293  22.767  0.00  0.00    -0.003 C 
ENDBRANCH  33  34
ENDBRANCH  32  33
ENDBRANCH   9  29
BRANCH  11  12
ATOM     12  C   UNL     1      -1.393   2.156  23.817  0.00  0.00    +0.260 C 
ATOM     13  O   UNL     1      -1.466   2.975  23.859  0.00  0.00    -0.272 OA
ATOM     14  N   UNL     1      -2.044   1.694  23.605  0.00  0.00    -0.196 NA
BRANCH  14  15
ATOM     15  C   UNL     1      -2.766   2.053  23.434  0.00  0.00    +0.179 C 
BRANCH  15  26
ATOM     26  C   UNL     1      -2.929   2.310  22.667  0.00  0.00    +0.281 C 
ATOM     27  N   UNL     1      -3.299   3.037  22.546  0.00  0.00    -0.086 NA
ATOM     28  O   UNL     1      -2.721   1.840  22.021  0.00  0.00    -0.270 OA
ENDBRANCH  15  26
BRANCH  15  16
ATOM     16  C   UNL     1      -3.327   2.156  24.031  0.00  0.00    +0.059 C 
BRANCH  16  17
ATOM     17  C   UNL     1      -3.818   1.530  24.248  0.00  0.00    +0.001 A 
ATOM     18  C   UNL     1      -3.722   0.740  24.029  0.00  0.00    +0.095 A 
ATOM     19  N   UNL     1      -4.336   0.305  24.369  0.00  0.00    -0.244 NA
ATOM     20  C   UNL     1      -4.811   0.826  24.797  0.00  0.00    +0.081 A 
ATOM     21  C   UNL     1      -4.491   1.583  24.723  0.00  0.00    +0.015 A 
ATOM     22  C   UNL     1      -4.853   2.222  25.097  0.00  0.00    +0.001 A 
ATOM     23  C   UNL     1      -5.535   2.105  25.546  0.00  0.00    +0.000 A 
ATOM     24  C   UNL     1      -5.855   1.349  25.621  0.00  0.00    +0.002 A 
ATOM     25  C   UNL     1      -5.493   0.709  25.246  0.00  0.00    +0.019 A 
ENDBRANCH  16  17
ENDBRANCH  15  16
ENDBRANCH  14  15
ENDBRANCH  11  12
TORSDOF 9
ENDMDL
MODEL 8
REMARK VINA RESULT:      -8.0      2.065      5.347
REMARK  Name = 
REMARK  9 active torsions:
REMARK  status: ('A' for Active; 'I' for Inactive)
REMARK    1  A    between atoms: C_4  and  C_5
REMARK    2  A    between atoms: C_9  and  N_29
REMARK    3  A    between atoms: C_11  and  C_12
REMARK    4  A    between atoms: N_14  and  C_15
REMARK    5  A    between atoms: C_15  and  C_16
REMARK    6  A    between atoms: C_15  and  C_26
REMARK    7  A    between atoms: C_16  and  C_17
REMARK    8  A    between atoms: N_32  and  C_33
REMARK    9  A    between atoms: C_33  and  C_34
REMARK                            x       y       z     vdW  Elec       q    Type
REMARK                         _______ _______ _______ _____ _____    ______ ____
ROOT
ATOM      5  C   UNL     1      -4.023  -1.114  24.199  0.00  0.00    +0.249 C 
ATOM      6  O   UNL     1      -4.801  -1.377  24.121  0.00  0.00    -0.270 OA
ATOM      7  N   UNL     1      -3.861  -0.305  24.220  0.00  0.00    -0.268 N 
ATOM      8  C   UNL     1      -4.417   0.301  24.168  0.00  0.00    +0.116 C 
ATOM      9  C   UNL     1      -4.015   1.021  24.212  0.00  0.00    +0.119 C 
ATOM     10  C   UNL     1      -3.210   0.857  24.291  0.00  0.00    +0.053 C 
ATOM     11  C   UNL     1      -3.115   0.038  24.295  0.00  0.00    +0.156 C 
ENDROOT
BRANCH   5   4
ATOM      1  C   UNL     1      -4.340  -2.730  24.099  0.00  0.00    +0.027 C 
ATOM      2  C   UNL     1      -3.565  -2.468  24.207  0.00  0.00    -0.039 C 
ATOM      3  C   UNL     1      -2.949  -3.013  24.265  0.00  0.00    +0.027 C 
ATOM      4  C   UNL     1      -3.406  -1.660  24.257  0.00  0.00    +0.049 C 
ENDBRANCH   5   4
BRANCH   9  29
ATOM     29  N   UNL     1      -4.357   1.770  24.183  0.00  0.00    -0.187 NA
ATOM     30  C   UNL     1      -4.675   2.106  24.865  0.00  0.00    +0.340 C 
ATOM     31  O   UNL     1      -4.650   1.692  25.578  0.00  0.00    -0.249 OA
ATOM     32  N   UNL     1      -5.017   2.856  24.836  0.00  0.00    -0.182 NA
BRANCH  32  33
ATOM     33  C   UNL     1      -5.335   3.192  25.519  0.00  0.00    +0.143 C 
BRANCH  33  34
ATOM     34  C   UNL     1      -5.312   4.010  25.627  0.00  0.00    -0.003 C 
ATOM     35  C   UNL     1      -6.009   4.448  25.608  0.00  0.00    -0.003 C 
ENDBRANCH  33  34
ENDBRANCH  32  33
ENDBRANCH   9  29
BRANCH  11  12
ATOM     12  C   UNL     1      -2.399  -0.367  24.364  0.00  0.00    +0.260 C 
ATOM     13  O   UNL     1      -2.306  -1.104  24.007  0.00  0.00    -0.272 OA
ATOM     14  N   UNL     1      -1.776  -0.032  24.789  0.00  0.00    -0.196 NA
BRANCH  14  15
ATOM     15  C   UNL     1      -1.060  -0.435  24.858  0.00  0.00    +0.179 C 
BRANCH  15  26
ATOM     26  C   UNL     1      -0.863  -0.809  25.566  0.00  0.00    +0.281 C 
ATOM     27  N   UNL     1      -1.042  -0.449  26.287  0.00  0.00    -0.086 NA
ATOM     28  O   UNL     1      -0.487  -1.543  25.555  0.00  0.00    -0.270 OA
ENDBRANCH  15  26
BRANCH  15  16
ATOM     16  C   UNL     1      -0.540  -0.465  24.218  0.00  0.00    +0.059 C 
BRANCH  16  17
ATOM     17  C   UNL     1      -0.002   0.148  24.094  0.00  0.00    +0.001 A 
ATOM     18  C   UNL     1      -0.007   0.881  24.473  0.00  0.00    +0.095 A 
ATOM     19  N   UNL     1       0.628   1.322  24.182  0.00  0.00    -0.244 NA
ATOM     20  C   UNL     1       1.024   0.862  23.624  0.00  0.00    +0.081 A 
ATOM     21  C   UNL     1       0.635   0.136  23.569  0.00  0.00    +0.015 A 
ATOM     22  C   UNL     1       0.910  -0.441  23.049  0.00  0.00    +0.001 A 
ATOM     23  C   UNL     1       1.575  -0.294  22.583  0.00  0.00    +0.000 A 
ATOM     24  C   UNL     1       1.964   0.431  22.637  0.00  0.00    +0.002 A 
ATOM     25  C   UNL     1       1.688   1.009  23.158  0.00  0.00    +0.019 A 
ENDBRANCH  16  17
ENDBRANCH  15  16
ENDBRANCH  14  15
ENDBRANCH  11  12
TORSDOF 9
ENDMDL
MODEL 9
REMARK VINA RESULT:      -8.0      2.443      3.123
REMARK  Name = 
REMARK  9 active torsions:
REMARK  status: ('A' for Active; 'I' for Inactive)
REMARK    1  A    between atoms: C_4  and  C_5
REMARK    2  A    between atoms: C_9  and  N_29
REMARK    3  A    between atoms: C_11  and  C_12
REMARK    4  A    between atoms: N_14  and  C_15
REMARK    5  A    between atoms: C_15  and  C_16
REMARK    6  A    between atoms: C_15  and  C_26
REMARK    7  A    between atoms: C_16  and  C_17
REMARK    8  A    between atoms: N_32  and  C_33
REMARK    9  A    between atoms: C_33  and  C_34
REMARK                            x       y       z     vdW  Elec       q    Type
REMARK                         _______ _______ _______ _____ _____    ______ ____
ROOT
ATOM      5  C   UNL     1      -1.542   0.049  25.296  0.00  0.00    +0.249 C 
ATOM      6  O   UNL     1      -1.317  -0.564  25.798  0.00  0.00    -0.270 OA
ATOM      7  N   UNL     1      -1.129   0.763  25.304  0.00  0.00    -0.268 N 
ATOM      8  C   UNL     1      -0.481   0.941  25.783  0.00  0.00    +0.116 C 
ATOM      9  C   UNL     1      -0.241   1.712  25.611  0.00  0.00    +0.119 C 
ATOM     10  C   UNL     1      -0.740   2.009  25.026  0.00  0.00    +0.053 C 
ATOM     11  C   UNL     1      -1.289   1.422  24.836  0.00  0.00    +0.156 C 
ENDROOT
BRANCH   5   4
ATOM      1  C   UNL     1      -2.394  -1.364  25.304  0.00  0.00    +0.027 C 
ATOM      2  C   UNL     1      -2.608  -0.757  24.788  0.00  0.00    -0.039 C 
ATOM      3  C   UNL     1      -3.247  -0.856  24.276  0.00  0.00    +0.027 C 
ATOM      4  C   UNL     1      -2.182  -0.050  24.783  0.00  0.00    +0.049 C 
ENDBRANCH   5   4
BRANCH   9  29
ATOM     29  N   UNL     1       0.387   2.114  25.963  0.00  0.00    -0.187 NA
ATOM     30  C   UNL     1       0.388   2.248  26.776  0.00  0.00    +0.340 C 
ATOM     31  O   UNL     1      -0.240   1.979  27.239  0.00  0.00    -0.249 OA
ATOM     32  N   UNL     1       1.016   2.650  27.129  0.00  0.00    -0.182 NA
BRANCH  32  33
ATOM     33  C   UNL     1       1.017   2.784  27.942  0.00  0.00    +0.143 C 
BRANCH  33  34
ATOM     34  C   UNL     1       1.732   2.848  28.350  0.00  0.00    -0.003 C 
ATOM     35  C   UNL     1       1.750   2.751  29.168  0.00  0.00    -0.003 C 
ENDBRANCH  33  34
ENDBRANCH  32  33
ENDBRANCH   9  29
BRANCH  11  12
ATOM     12  C   UNL     1      -1.891   1.485  24.275  0.00  0.00    +0.260 C 
ATOM     13  O   UNL     1      -2.026   0.871  23.743  0.00  0.00    -0.272 OA
ATOM     14  N   UNL     1      -2.360   2.164  24.249  0.00  0.00    -0.196 NA
BRANCH  14  15
ATOM     15  C   UNL     1      -2.962   2.228  23.689  0.00  0.00    +0.179 C 
BRANCH  15  26
ATOM     26  C   UNL     1      -2.780   2.408  22.905  0.00  0.00    +0.281 C 
ATOM     27  N   UNL     1      -3.112   1.966  22.293  0.00  0.00    -0.086 NA
ATOM     28  O   UNL     1      -2.266   3.030  22.733  0.00  0.00    -0.270 OA
ENDBRANCH  15  26
BRANCH  15  16
ATOM     16  C   UNL     1      -3.748   2.112  23.914  0.00  0.00    +0.059 C 
BRANCH  16  17
ATOM     17  C   UNL     1      -4.129   2.670  24.386  0.00  0.00    +0.001 A 
ATOM     18  C   UNL     1      -3.916   3.463  24.467  0.00  0.00    +0.095 A 
ATOM     19  N   UNL     1      -4.446   3.817  24.992  0.00  0.00    -0.244 NA
ATOM     20  C   UNL     1      -4.986   3.243  25.235  0.00  0.00    +0.081 A 
ATOM     21  C   UNL     1      -4.791   2.534  24.861  0.00  0.00    +0.015 A 
ATOM     22  C   UNL     1      -5.239   1.857  25.000  0.00  0.00    +0.001 A 
ATOM     23  C   UNL     1      -5.884   1.888  25.514  0.00  0.00    +0.000 A 
ATOM     24  C   UNL     1      -6.080   2.596  25.889  0.00  0.00    +0.002 A 
ATOM     25  C   UNL     1      -5.630   3.274  25.749  0.00  0.00    +0.019 A 
ENDBRANCH  16  17
ENDBRANCH  15  16
ENDBRANCH  14  15
ENDBRANCH  11  12
TORSDOF 9
ENDMDL
