MODEL 1
REMARK VINA RESULT:     -17.9      0.000      0.000
REMARK  Name = 
REMARK  3 active torsions:
REMARK  status: ('A' for Active; 'I' for Inactive)
REMARK    1  A    between atoms: C_5  and  C_6
REMARK    2  A    between atoms: C_6  and  N_7
REMARK    3  A    between atoms: C_16  and  C_21
REMARK                            x       y       z     vdW  Elec       q    Type
REMARK                         _______ _______ _______ _____ _____    ______ ____
ROOT
ATOM      7  N   UNL     1      -3.277   2.852  25.040  0.00  0.00    -0.269 NA
ATOM      8  C   UNL     1      -3.372   3.667  25.200  0.00  0.00    +0.074 C 
ATOM      9  C   UNL     1      -4.346   3.690  25.366  0.00  0.00    +0.039 C 
ATOM     10  C   UNL     1      -5.123   3.876  25.527  0.00  0.00    +0.011 C 
ATOM     11  C   UNL     1      -4.749   3.304  25.364  0.00  0.00    +0.054 C 
ATOM     12  C   UNL     1      -3.807   3.298  25.207  0.00  0.00    +0.078 C 
ATOM     13  C   UNL     1      -4.839   2.401  25.220  0.00  0.00    +0.041 A 
ATOM     14  C   UNL     1      -5.412   1.808  25.210  0.00  0.00    +0.013 A 
ATOM     15  C   UNL     1      -5.197   1.031  25.037  0.00  0.00    +0.006 A 
ATOM     16  C   UNL     1      -4.409   0.846  24.874  0.00  0.00    +0.056 A 
ATOM     17  C   UNL     1      -3.836   1.440  24.883  0.00  0.00    +0.261 A 
ATOM     18  O   UNL     1      -3.049   1.255  24.720  0.00  0.00    -0.267 OA
ATOM     19  N   UNL     1      -4.051   2.217  25.056  0.00  0.00    -0.299 N 
ATOM     20  C   UNL     1      -4.430   2.746  25.213  0.00  0.00    +0.110 C 
ENDROOT
BRANCH  16  21
ATOM     21  C   UNL     1      -4.196   0.069  24.701  0.00  0.00    +0.005 A 
ATOM     22  C   UNL     1      -4.233  -0.205  23.923  0.00  0.00    +0.000 A 
ATOM     23  C   UNL     1      -4.019  -0.983  23.750  0.00  0.00    +0.000 A 
ATOM     24  C   UNL     1      -3.769  -1.486  24.353  0.00  0.00    +0.000 A 
ATOM     25  C   UNL     1      -3.555  -2.265  24.179  0.00  0.00    +0.000 A 
ATOM     26  C   UNL     1      -3.304  -2.768  24.784  0.00  0.00    +0.000 A 
ATOM     27  C   UNL     1      -3.267  -2.494  25.560  0.00  0.00    +0.000 A 
ATOM     28  C   UNL     1      -3.481  -1.716  25.734  0.00  0.00    +0.000 A 
ATOM     29  C   UNL     1      -3.731  -1.213  25.131  0.00  0.00    +0.000 A 
ATOM     30  C   UNL     1      -3.945  -0.434  25.304  0.00  0.00    +0.000 A 
ENDBRANCH  16  21
BRANCH   7   6
ATOM      6  C   UNL     1      -2.897   2.144  24.852  0.00  0.00    +0.099 C 
BRANCH   6   5
ATOM      1  F   UNL     1       0.365   2.103  24.356  0.00  0.00    -0.204 F 
ATOM      2  C   UNL     1      -0.451   2.113  24.480  0.00  0.00    +0.140 A 
ATOM      3  C   UNL     1      -0.962   2.233  23.845  0.00  0.00    +0.029 A 
ATOM      4  C   UNL     1      -1.778   2.243  23.969  0.00  0.00    -0.001 A 
ATOM      5  C   UNL     1      -2.082   2.134  24.728  0.00  0.00    -0.006 A 
ATOM     31  C   UNL     1      -1.570   2.014  25.363  0.00  0.00    -0.001 A 
ATOM     32  C   UNL     1      -0.754   2.004  25.240  0.00  0.00    +0.029 A 
ENDBRANCH   6   5
ENDBRANCH   7   6
TORSDOF 3
ENDMDL
MODEL 2
REMARK VINA RESULT:     -15.9      1.226      3.591
REMARK  Name = 
REMARK  3 active torsions:
REMARK  status: ('A' for Active; 'I' for Inactive)
REMARK    1  A    between atoms: C_5  and  C_6
REMARK    2  A    between atoms: C_6  and  N_7
REMARK    3  A    between atoms: C_16  and  C_21
REMARK                            x       y       z     vdW  Elec       q    Type
REMARK                         _______ _______ _______ _____ _____    ______ ____
ROOT
ATOM      7  N   UNL     1      -4.985   1.043  25.063  0.00  0.00    -0.269 NA
ATOM      8  C   UNL     1      -5.805   1.001  25.215  0.00  0.00    +0.074 C 
ATOM      9  C   UNL     1      -6.006   1.963  25.308  0.00  0.00    +0.039 C 
ATOM     10  C   UNL     1      -6.331   2.703  25.411  0.00  0.00    +0.011 C 
ATOM     11  C   UNL     1      -5.700   2.428  25.277  0.00  0.00    +0.054 C 
ATOM     12  C   UNL     1      -5.521   1.494  25.190  0.00  0.00    +0.078 C 
ATOM     13  C   UNL     1      -4.826   2.669  25.127  0.00  0.00    +0.041 A 
ATOM     14  C   UNL     1      -4.346   3.338  25.075  0.00  0.00    +0.013 A 
ATOM     15  C   UNL     1      -3.540   3.256  24.919  0.00  0.00    +0.006 A 
ATOM     16  C   UNL     1      -3.214   2.505  24.815  0.00  0.00    +0.056 A 
ATOM     17  C   UNL     1      -3.694   1.836  24.867  0.00  0.00    +0.261 A 
ATOM     18  O   UNL     1      -3.368   1.085  24.763  0.00  0.00    -0.267 OA
ATOM     19  N   UNL     1      -4.500   1.918  25.023  0.00  0.00    -0.299 N 
ATOM     20  C   UNL     1      -5.091   2.206  25.150  0.00  0.00    +0.110 C 
ENDROOT
BRANCH  16  21
ATOM     21  C   UNL     1      -2.408   2.423  24.659  0.00  0.00    +0.005 A 
ATOM     22  C   UNL     1      -2.142   2.380  23.879  0.00  0.00    +0.000 A 
ATOM     23  C   UNL     1      -1.336   2.299  23.722  0.00  0.00    +0.000 A 
ATOM     24  C   UNL     1      -0.797   2.261  24.345  0.00  0.00    +0.000 A 
ATOM     25  C   UNL     1       0.010   2.179  24.189  0.00  0.00    +0.000 A 
ATOM     26  C   UNL     1       0.549   2.141  24.813  0.00  0.00    +0.000 A 
ATOM     27  C   UNL     1       0.283   2.184  25.591  0.00  0.00    +0.000 A 
ATOM     28  C   UNL     1      -0.523   2.265  25.748  0.00  0.00    +0.000 A 
ATOM     29  C   UNL     1      -1.062   2.304  25.125  0.00  0.00    +0.000 A 
ATOM     30  C   UNL     1      -1.869   2.385  25.282  0.00  0.00    +0.000 A 
ENDBRANCH  16  21
BRANCH   7   6
ATOM      6  C   UNL     1      -4.217   0.785  24.905  0.00  0.00    +0.099 C 
BRANCH   6   5
ATOM      1  F   UNL     1      -3.587  -2.442  24.618  0.00  0.00    -0.204 F 
ATOM      2  C   UNL     1      -3.745  -1.635  24.689  0.00  0.00    +0.140 A 
ATOM      3  C   UNL     1      -3.997  -1.205  24.033  0.00  0.00    +0.029 A 
ATOM      4  C   UNL     1      -4.155  -0.397  24.105  0.00  0.00    -0.001 A 
ATOM      5  C   UNL     1      -4.059  -0.021  24.833  0.00  0.00    -0.006 A 
ATOM     31  C   UNL     1      -3.807  -0.452  25.489  0.00  0.00    -0.001 A 
ATOM     32  C   UNL     1      -3.649  -1.259  25.418  0.00  0.00    +0.029 A 
ENDBRANCH   6   5
ENDBRANCH   7   6
TORSDOF 3
ENDMDL
MODEL 3
REMARK VINA RESULT:     -15.6      1.437      3.823
REMARK  Name = 
REMARK  3 active torsions:
REMARK  status: ('A' for Active; 'I' for Inactive)
REMARK    1  A    between atoms: C_5  and  C_6
REMARK    2  A    between atoms: C_6  and  N_7
REMARK    3  A    between atoms: C_16  and  C_21
REMARK                            x       y       z     vdW  Elec       q    Type
REMARK                         _______ _______ _______ _____ _____    ______ ____
ROOT
ATOM      7  N   UNL     1      -1.646  -0.809  24.778  0.00  0.00    -0.269 NA
ATOM      8  C   UNL     1      -1.184  -1.505  24.768  0.00  0.00    +0.074 C 
ATOM      9  C   UNL     1      -1.893  -2.171  24.597  0.00  0.00    +0.039 C 
ATOM     10  C   UNL     1      -2.349  -2.833  24.462  0.00  0.00    +0.011 C 
ATOM     11  C   UNL     1      -2.445  -2.140  24.523  0.00  0.00    +0.054 C 
ATOM     12  C   UNL     1      -1.748  -1.508  24.688  0.00  0.00    +0.078 C 
ATOM     13  C   UNL     1      -3.102  -1.498  24.499  0.00  0.00    +0.041 A 
ATOM     14  C   UNL     1      -3.916  -1.419  24.392  0.00  0.00    +0.013 A 
ATOM     15  C   UNL     1      -4.265  -0.672  24.423  0.00  0.00    +0.006 A 
ATOM     16  C   UNL     1      -3.800  -0.005  24.560  0.00  0.00    +0.056 A 
ATOM     17  C   UNL     1      -2.986  -0.084  24.666  0.00  0.00    +0.261 A 
ATOM     18  O   UNL     1      -2.521   0.584  24.803  0.00  0.00    -0.267 OA
ATOM     19  N   UNL     1      -2.637  -0.831  24.636  0.00  0.00    -0.299 N 
ATOM     20  C   UNL     1      -2.573  -1.494  24.574  0.00  0.00    +0.110 C 
ENDROOT
BRANCH  16  21
ATOM     21  C   UNL     1      -4.150   0.741  24.591  0.00  0.00    +0.005 A 
ATOM     22  C   UNL     1      -4.049   1.270  23.965  0.00  0.00    +0.000 A 
ATOM     23  C   UNL     1      -4.398   2.016  23.995  0.00  0.00    +0.000 A 
ATOM     24  C   UNL     1      -4.849   2.235  24.651  0.00  0.00    +0.000 A 
ATOM     25  C   UNL     1      -5.199   2.982  24.681  0.00  0.00    +0.000 A 
ATOM     26  C   UNL     1      -5.649   3.200  25.337  0.00  0.00    +0.000 A 
ATOM     27  C   UNL     1      -5.750   2.672  25.962  0.00  0.00    +0.000 A 
ATOM     28  C   UNL     1      -5.400   1.926  25.932  0.00  0.00    +0.000 A 
ATOM     29  C   UNL     1      -4.950   1.707  25.277  0.00  0.00    +0.000 A 
ATOM     30  C   UNL     1      -4.600   0.960  25.247  0.00  0.00    +0.000 A 
ENDBRANCH  16  21
BRANCH   7   6
ATOM      6  C   UNL     1      -1.827  -0.006  24.838  0.00  0.00    +0.099 C 
BRANCH   6   5
ATOM      1  F   UNL     1       0.586   2.199  25.294  0.00  0.00    -0.204 F 
ATOM      2  C   UNL     1      -0.017   1.648  25.180  0.00  0.00    +0.140 A 
ATOM      3  C   UNL     1      -0.457   1.380  25.824  0.00  0.00    +0.029 A 
ATOM      4  C   UNL     1      -1.061   0.828  25.710  0.00  0.00    -0.001 A 
ATOM      5  C   UNL     1      -1.224   0.545  24.952  0.00  0.00    -0.006 A 
ATOM     31  C   UNL     1      -0.784   0.814  24.308  0.00  0.00    -0.001 A 
ATOM     32  C   UNL     1      -0.180   1.365  24.422  0.00  0.00    +0.029 A 
ENDBRANCH   6   5
ENDBRANCH   7   6
TORSDOF 3
ENDMDL
MODEL 4
REMARK VINA RESULT:     -15.6      1.653      3.055
REMARK  Name = 
REMARK  3 active torsions:
REMARK  status: ('A' for Active; 'I' for Inactive)
REMARK    1  A    between atoms: C_5  and  C_6
REMARK    2  A    between atoms: C_6  and  N_7
REMARK    3  A    between atoms: C_16  and  C_21
REMARK                            x       y       z     vdW  Elec       q    Type
REMARK                         _______ _______ _______ _____ _____    ______ ____
ROOT
ATOM      7  N   UNL     1      -2.457   3.659  25.205  0.00  0.00    -0.269 NA
ATOM      8  C   UNL     1      -2.097   4.398  25.355  0.00  0.00    +0.074 C 
ATOM      9  C   UNL     1      -1.154   4.161  25.173  0.00  0.00    +0.039 C 
ATOM     10  C   UNL     1      -0.348   4.129  25.062  0.00  0.00    +0.011 C 
ATOM     11  C   UNL     1      -0.896   3.693  25.016  0.00  0.00    +0.054 C 
ATOM     12  C   UNL     1      -1.801   3.937  25.195  0.00  0.00    +0.078 C 
ATOM     13  C   UNL     1      -1.108   2.822  24.813  0.00  0.00    +0.041 A 
ATOM     14  C   UNL     1      -0.755   2.114  24.581  0.00  0.00    +0.013 A 
ATOM     15  C   UNL     1      -1.218   1.442  24.462  0.00  0.00    +0.006 A 
ATOM     16  C   UNL     1      -2.035   1.478  24.575  0.00  0.00    +0.056 A 
ATOM     17  C   UNL     1      -2.388   2.186  24.807  0.00  0.00    +0.261 A 
ATOM     18  O   UNL     1      -3.205   2.222  24.920  0.00  0.00    -0.267 OA
ATOM     19  N   UNL     1      -1.925   2.858  24.926  0.00  0.00    -0.299 N 
ATOM     20  C   UNL     1      -1.386   3.254  24.962  0.00  0.00    +0.110 C 
ENDROOT
BRANCH  16  21
ATOM     21  C   UNL     1      -2.497   0.806  24.455  0.00  0.00    +0.005 A 
ATOM     22  C   UNL     1      -2.897   0.702  23.741  0.00  0.00    +0.000 A 
ATOM     23  C   UNL     1      -3.359   0.029  23.621  0.00  0.00    +0.000 A 
ATOM     24  C   UNL     1      -3.422  -0.539  24.215  0.00  0.00    +0.000 A 
ATOM     25  C   UNL     1      -3.885  -1.212  24.095  0.00  0.00    +0.000 A 
ATOM     26  C   UNL     1      -3.948  -1.781  24.690  0.00  0.00    +0.000 A 
ATOM     27  C   UNL     1      -3.548  -1.677  25.404  0.00  0.00    +0.000 A 
ATOM     28  C   UNL     1      -3.086  -1.005  25.524  0.00  0.00    +0.000 A 
ATOM     29  C   UNL     1      -3.023  -0.436  24.930  0.00  0.00    +0.000 A 
ATOM     30  C   UNL     1      -2.560   0.237  25.050  0.00  0.00    +0.000 A 
ENDBRANCH  16  21
BRANCH   7   6
ATOM      6  C   UNL     1      -3.056   3.096  25.132  0.00  0.00    +0.099 C 
BRANCH   6   5
ATOM      1  F   UNL     1      -6.199   3.949  25.668  0.00  0.00    -0.204 F 
ATOM      2  C   UNL     1      -5.413   3.736  25.534  0.00  0.00    +0.140 A 
ATOM      3  C   UNL     1      -4.964   3.413  26.145  0.00  0.00    +0.029 A 
ATOM      4  C   UNL     1      -4.177   3.200  26.012  0.00  0.00    -0.001 A 
ATOM      5  C   UNL     1      -3.841   3.309  25.266  0.00  0.00    -0.006 A 
ATOM     31  C   UNL     1      -4.291   3.631  24.654  0.00  0.00    -0.001 A 
ATOM     32  C   UNL     1      -5.077   3.845  24.788  0.00  0.00    +0.029 A 
ENDBRANCH   6   5
ENDBRANCH   7   6
TORSDOF 3
ENDMDL
MODEL 5
REMARK VINA RESULT:     -15.4      1.628      2.043
REMARK  Name = 
REMARK  3 active torsions:
REMARK  status: ('A' for Active; 'I' for Inactive)
REMARK    1  A    between atoms: C_5  and  C_6
REMARK    2  A    between atoms: C_6  and  N_7
REMARK    3  A    between atoms: C_16  and  C_21
REMARK                            x       y       z     vdW  Elec       q    Type
REMARK                         _______ _______ _______ _____ _____    ______ ____
ROOT
ATOM      7  N   UNL     1      -4.334   2.973  25.313  0.00  0.00    -0.269 NA
ATOM      8  C   UNL     1      -5.004   3.448  25.466  0.00  0.00    +0.074 C 
ATOM      9  C   UNL     1      -5.711   2.761  25.402  0.00  0.00    +0.039 C 
ATOM     10  C   UNL     1      -6.399   2.324  25.384  0.00  0.00    +0.011 C 
ATOM     11  C   UNL     1      -5.711   2.213  25.298  0.00  0.00    +0.054 C 
ATOM     12  C   UNL     1      -5.039   2.888  25.363  0.00  0.00    +0.078 C 
ATOM     13  C   UNL     1      -5.106   1.546  25.114  0.00  0.00    +0.041 A 
ATOM     14  C   UNL     1      -5.073   0.737  24.958  0.00  0.00    +0.013 A 
ATOM     15  C   UNL     1      -4.346   0.373  24.820  0.00  0.00    +0.006 A 
ATOM     16  C   UNL     1      -3.651   0.818  24.839  0.00  0.00    +0.056 A 
ATOM     17  C   UNL     1      -3.685   1.627  24.996  0.00  0.00    +0.261 A 
ATOM     18  O   UNL     1      -2.990   2.072  25.015  0.00  0.00    -0.267 OA
ATOM     19  N   UNL     1      -4.412   1.991  25.134  0.00  0.00    -0.299 N 
ATOM     20  C   UNL     1      -5.072   2.070  25.211  0.00  0.00    +0.110 C 
ENDROOT
BRANCH  16  21
ATOM     21  C   UNL     1      -2.925   0.454  24.702  0.00  0.00    +0.005 A 
ATOM     22  C   UNL     1      -2.575   0.501  23.956  0.00  0.00    +0.000 A 
ATOM     23  C   UNL     1      -1.848   0.136  23.817  0.00  0.00    +0.000 A 
ATOM     24  C   UNL     1      -1.471  -0.275  24.425  0.00  0.00    +0.000 A 
ATOM     25  C   UNL     1      -0.743  -0.640  24.286  0.00  0.00    +0.000 A 
ATOM     26  C   UNL     1      -0.366  -1.051  24.894  0.00  0.00    +0.000 A 
ATOM     27  C   UNL     1      -0.715  -1.098  25.639  0.00  0.00    +0.000 A 
ATOM     28  C   UNL     1      -1.442  -0.734  25.778  0.00  0.00    +0.000 A 
ATOM     29  C   UNL     1      -1.820  -0.322  25.171  0.00  0.00    +0.000 A 
ATOM     30  C   UNL     1      -2.547   0.043  25.309  0.00  0.00    +0.000 A 
ENDBRANCH  16  21
BRANCH   7   6
ATOM      6  C   UNL     1      -3.540   2.775  25.200  0.00  0.00    +0.099 C 
BRANCH   6   5
ATOM      1  F   UNL     1      -1.213   5.105  25.402  0.00  0.00    -0.204 F 
ATOM      2  C   UNL     1      -1.795   4.522  25.352  0.00  0.00    +0.140 A 
ATOM      3  C   UNL     1      -2.011   4.097  26.024  0.00  0.00    +0.029 A 
ATOM      4  C   UNL     1      -2.593   3.514  25.974  0.00  0.00    -0.001 A 
ATOM      5  C   UNL     1      -2.959   3.357  25.250  0.00  0.00    -0.006 A 
ATOM     31  C   UNL     1      -2.742   3.783  24.578  0.00  0.00    -0.001 A 
ATOM     32  C   UNL     1      -2.160   4.366  24.629  0.00  0.00    +0.029 A 
ENDBRANCH   6   5
ENDBRANCH   7   6
TORSDOF 3
ENDMDL
MODEL 6
REMARK VINA RESULT:     -15.3      1.780      4.475
REMARK  Name = 
REMARK  3 active torsions:
REMARK  status: ('A' for Active; 'I' for Inactive)
REMARK    1  A    between atoms: C_5  and  C_6
REMARK    2  A    between atoms: C_6  and  N_7
REMARK    3  A    between atoms: C_16  and  C_21
REMARK                            x       y       z     vdW  Elec       q    Type
REMARK                         _______ _______ _______ _____ _____    ______ ____
ROOT
ATOM      7  N   UNL     1      -3.894  -0.677  24.459  0.00  0.00    -0.269 NA
ATOM      8  C   UNL     1      -4.462  -1.284  24.372  0.00  0.00    +0.074 C 
ATOM      9  C   UNL     1      -3.864  -2.071  24.377  0.00  0.00    +0.039 C 
ATOM     10  C   UNL     1      -3.517  -2.808  24.363  0.00  0.00    +0.011 C 
ATOM     11  C   UNL     1      -3.313  -2.139  24.422  0.00  0.00    +0.054 C 
ATOM     12  C   UNL     1      -3.903  -1.388  24.415  0.00  0.00    +0.078 C 
ATOM     13  C   UNL     1      -2.560  -1.621  24.520  0.00  0.00    +0.041 A 
ATOM     14  C   UNL     1      -1.741  -1.688  24.589  0.00  0.00    +0.013 A 
ATOM     15  C   UNL     1      -1.277  -1.011  24.671  0.00  0.00    +0.006 A 
ATOM     16  C   UNL     1      -1.633  -0.266  24.685  0.00  0.00    +0.056 A 
ATOM     17  C   UNL     1      -2.452  -0.199  24.617  0.00  0.00    +0.261 A 
ATOM     18  O   UNL     1      -2.808   0.545  24.630  0.00  0.00    -0.267 OA
ATOM     19  N   UNL     1      -2.916  -0.876  24.534  0.00  0.00    -0.299 N 
ATOM     20  C   UNL     1      -3.084  -1.522  24.480  0.00  0.00    +0.110 C 
ENDROOT
BRANCH  16  21
ATOM     21  C   UNL     1      -1.169   0.410  24.768  0.00  0.00    +0.005 A 
ATOM     22  C   UNL     1      -0.787   0.731  24.110  0.00  0.00    +0.000 A 
ATOM     23  C   UNL     1      -0.323   1.408  24.192  0.00  0.00    +0.000 A 
ATOM     24  C   UNL     1      -0.240   1.764  24.931  0.00  0.00    +0.000 A 
ATOM     25  C   UNL     1       0.225   2.442  25.013  0.00  0.00    +0.000 A 
ATOM     26  C   UNL     1       0.307   2.798  25.753  0.00  0.00    +0.000 A 
ATOM     27  C   UNL     1      -0.074   2.478  26.409  0.00  0.00    +0.000 A 
ATOM     28  C   UNL     1      -0.539   1.801  26.328  0.00  0.00    +0.000 A 
ATOM     29  C   UNL     1      -0.621   1.444  25.589  0.00  0.00    +0.000 A 
ATOM     30  C   UNL     1      -1.086   0.767  25.507  0.00  0.00    +0.000 A 
ENDBRANCH  16  21
BRANCH   7   6
ATOM      6  C   UNL     1      -3.589   0.086  24.533  0.00  0.00    +0.099 C 
BRANCH   6   5
ATOM      1  F   UNL     1      -5.632   2.667  24.761  0.00  0.00    -0.204 F 
ATOM      2  C   UNL     1      -5.121   2.021  24.704  0.00  0.00    +0.140 A 
ATOM      3  C   UNL     1      -4.647   1.929  24.035  0.00  0.00    +0.029 A 
ATOM      4  C   UNL     1      -4.136   1.283  23.978  0.00  0.00    -0.001 A 
ATOM      5  C   UNL     1      -4.099   0.731  24.590  0.00  0.00    -0.006 A 
ATOM     31  C   UNL     1      -4.573   0.824  25.258  0.00  0.00    -0.001 A 
ATOM     32  C   UNL     1      -5.085   1.470  25.316  0.00  0.00    +0.029 A 
ENDBRANCH   6   5
ENDBRANCH   7   6
TORSDOF 3
ENDMDL
