MODEL 1
REMARK VINA RESULT:     -11.4      0.000      0.000
REMARK  Name = 
REMARK  8 active torsions:
REMARK  status: ('A' for Active; 'I' for Inactive)
REMARK    1  A    between atoms: O_2  and  C_3
REMARK    2  A    between atoms: C_3  and  C_5
REMARK    3  A    between atoms: N_10  and  S_11
REMARK    4  A    between atoms: S_11  and  C_14
REMARK    5  A    between atoms: C_16  and  C_20
REMARK    6  A    between atoms: N_24  and  C_25
REMARK    7  A    between atoms: C_25  and  C_26
REMARK    8  A    between atoms: C_29  and  O_30
REMARK                            x       y       z     vdW  Elec       q    Type
REMARK                         _______ _______ _______ _____ _____    ______ ____
ROOT
ATOM      5  C   UNL     1      -1.030   1.969  24.328  0.00  0.00    +0.184 C 
ATOM      6  C   UNL     1      -0.538   1.372  24.042  0.00  0.00    +0.076 C 
ATOM      7  C   UNL     1      -0.633   0.596  24.305  0.00  0.00    +0.076 A 
ATOM      8  C   UNL     1      -1.221   0.417  24.856  0.00  0.00    +0.070 A 
ATOM      9  C   UNL     1      -1.714   1.014  25.143  0.00  0.00    +0.141 C 
ATOM     10  N   UNL     1      -1.618   1.790  24.879  0.00  0.00    -0.140 NA
ATOM     24  N   UNL     1      -1.185  -0.392  25.013  0.00  0.00    -0.307 N 
ATOM     34  C   UNL     1      -0.575  -0.713  24.560  0.00  0.00    +0.178 A 
ATOM     35  N   UNL     1      -0.235  -0.102  24.123  0.00  0.00    -0.229 NA
ENDROOT
BRANCH  10  11
ATOM     11  S   UNL     1      -2.110   2.386  25.166  0.00  0.00    +0.064 S 
ATOM     12  O   UNL     1      -2.605   2.293  24.513  0.00  0.00    -0.153 OA
ATOM     13  O   UNL     1      -1.615   2.479  25.820  0.00  0.00    -0.153 OA
BRANCH  11  14
ATOM     14  C   UNL     1      -2.602   2.982  25.454  0.00  0.00    +0.122 A 
ATOM     15  C   UNL     1      -3.404   2.984  25.262  0.00  0.00    +0.024 A 
ATOM     16  C   UNL     1      -3.897   3.580  25.550  0.00  0.00    +0.073 A 
ATOM     17  C   UNL     1      -3.586   4.175  26.030  0.00  0.00    +0.004 A 
ATOM     18  C   UNL     1      -2.784   4.173  26.223  0.00  0.00    +0.001 A 
ATOM     19  C   UNL     1      -2.292   3.577  25.935  0.00  0.00    +0.020 A 
BRANCH  16  20
ATOM     20  C   UNL     1      -4.699   3.581  25.357  0.00  0.00    +0.419 C 
ATOM     21  F   UNL     1      -5.501   3.582  25.165  0.00  0.00    -0.166 F 
ATOM     22  F   UNL     1      -4.540   4.046  24.696  0.00  0.00    -0.166 F 
ATOM     23  F   UNL     1      -4.859   3.115  26.019  0.00  0.00    -0.166 F 
ENDBRANCH  16  20
ENDBRANCH  11  14
ENDBRANCH  10  11
BRANCH   5   3
ATOM      3  C   UNL     1      -0.935   2.744  24.065  0.00  0.00    +0.334 C 
ATOM      4  O   UNL     1      -1.431   3.044  23.478  0.00  0.00    -0.249 OA
BRANCH   3   2
ATOM      1  C   UNL     1       0.071   3.747  23.907  0.00  0.00    +0.256 C 
ATOM      2  O   UNL     1      -0.343   3.220  24.387  0.00  0.00    -0.443 OA
ENDBRANCH   3   2
ENDBRANCH   5   3
BRANCH  24  25
ATOM     25  C   UNL     1      -1.673  -0.807  25.533  0.00  0.00    +0.134 C 
BRANCH  25  26
ATOM     26  C   UNL     1      -2.208  -1.363  25.241  0.00  0.00    +0.001 A 
ATOM     27  C   UNL     1      -3.020  -1.234  25.316  0.00  0.00    +0.001 A 
ATOM     28  C   UNL     1      -3.555  -1.790  25.024  0.00  0.00    +0.037 A 
ATOM     29  C   UNL     1      -3.277  -2.476  24.657  0.00  0.00    +0.139 A 
ATOM     32  C   UNL     1      -2.467  -2.605  24.582  0.00  0.00    +0.037 A 
ATOM     33  C   UNL     1      -1.932  -2.048  24.874  0.00  0.00    +0.001 A 
BRANCH  29  30
ATOM     30  O   UNL     1      -3.812  -3.032  24.365  0.00  0.00    -0.471 OA
ATOM     31  C   UNL     1      -4.319  -2.831  23.746  0.00  0.00    +0.252 C 
ENDBRANCH  29  30
ENDBRANCH  25  26
ENDBRANCH  24  25
TORSDOF 8
ENDMDL
MODEL 2
REMARK VINA RESULT:     -11.3      2.004      3.067
REMARK  Name = 
REMARK  8 active torsions:
REMARK  status: ('A' for Active; 'I' for Inactive)
REMARK    1  A    between atoms: O_2  and  C_3
REMARK    2  A    between atoms: C_3  and  C_5
REMARK    3  A    between atoms: N_10  and  S_11
REMARK    4  A    between atoms: S_11  and  C_14
REMARK    5  A    between atoms: C_16  and  C_20
REMARK    6  A    between atoms: N_24  and  C_25
REMARK    7  A    between atoms: C_25  and  C_26
REMARK    8  A    between atoms: C_29  and  O_30
REMARK                            x       y       z     vdW  Elec       q    Type
REMARK                         _______ _______ _______ _____ _____    ______ ____
ROOT
ATOM      5  C   UNL     1      -4.065   2.827  25.332  0.00  0.00    +0.184 C 
ATOM      6  C   UNL     1      -4.768   2.404  25.248  0.00  0.00    +0.076 C 
ATOM      7  C   UNL     1      -4.759   1.652  24.908  0.00  0.00    +0.076 A 
ATOM      8  C   UNL     1      -4.047   1.324  24.652  0.00  0.00    +0.070 A 
ATOM      9  C   UNL     1      -3.343   1.747  24.736  0.00  0.00    +0.141 C 
ATOM     10  N   UNL     1      -3.353   2.498  25.076  0.00  0.00    -0.140 NA
ATOM     24  N   UNL     1      -4.207   0.577  24.340  0.00  0.00    -0.307 N 
ATOM     34  C   UNL     1      -5.019   0.444  24.403  0.00  0.00    +0.178 A 
ATOM     35  N   UNL     1      -5.359   1.108  24.754  0.00  0.00    -0.229 NA
ENDROOT
BRANCH  10  11
ATOM     11  S   UNL     1      -2.650   2.921  25.160  0.00  0.00    +0.064 S 
ATOM     12  O   UNL     1      -2.722   3.197  24.387  0.00  0.00    -0.153 OA
ATOM     13  O   UNL     1      -2.576   2.645  25.935  0.00  0.00    -0.153 OA
BRANCH  11  14
ATOM     14  C   UNL     1      -1.946   3.344  25.246  0.00  0.00    +0.122 A 
ATOM     15  C   UNL     1      -1.912   4.137  25.022  0.00  0.00    +0.024 A 
ATOM     16  C   UNL     1      -1.209   4.560  25.107  0.00  0.00    +0.073 A 
ATOM     17  C   UNL     1      -0.539   4.189  25.416  0.00  0.00    +0.004 A 
ATOM     18  C   UNL     1      -0.573   3.396  25.639  0.00  0.00    +0.001 A 
ATOM     19  C   UNL     1      -1.277   2.974  25.554  0.00  0.00    +0.020 A 
BRANCH  16  20
ATOM     20  C   UNL     1      -1.175   5.354  24.883  0.00  0.00    +0.419 C 
ATOM     21  F   UNL     1      -1.142   6.147  24.659  0.00  0.00    -0.166 F 
ATOM     22  F   UNL     1      -0.737   5.147  24.216  0.00  0.00    -0.166 F 
ATOM     23  F   UNL     1      -1.614   5.561  25.551  0.00  0.00    -0.166 F 
ENDBRANCH  16  20
ENDBRANCH  11  14
ENDBRANCH  10  11
BRANCH   5   3
ATOM      3  C   UNL     1      -4.074   3.578  25.672  0.00  0.00    +0.334 C 
ATOM      4  O   UNL     1      -3.806   3.684  26.445  0.00  0.00    -0.249 OA
BRANCH   3   2
ATOM      1  C   UNL     1      -4.935   4.712  25.555  0.00  0.00    +0.256 C 
ATOM      2  O   UNL     1      -4.351   4.224  25.239  0.00  0.00    -0.443 OA
ENDBRANCH   3   2
ENDBRANCH   5   3
BRANCH  24  25
ATOM     25  C   UNL     1      -3.653   0.055  24.021  0.00  0.00    +0.134 C 
BRANCH  25  26
ATOM     26  C   UNL     1      -3.661  -0.740  24.241  0.00  0.00    +0.001 A 
ATOM     27  C   UNL     1      -3.256  -0.985  24.917  0.00  0.00    +0.001 A 
ATOM     28  C   UNL     1      -3.263  -1.780  25.137  0.00  0.00    +0.037 A 
ATOM     29  C   UNL     1      -3.677  -2.330  24.682  0.00  0.00    +0.139 A 
ATOM     32  C   UNL     1      -4.082  -2.085  24.007  0.00  0.00    +0.037 A 
ATOM     33  C   UNL     1      -4.075  -1.290  23.787  0.00  0.00    +0.001 A 
BRANCH  29  30
ATOM     30  O   UNL     1      -3.685  -3.124  24.902  0.00  0.00    -0.471 OA
ATOM     31  C   UNL     1      -3.313  -3.688  24.427  0.00  0.00    +0.252 C 
ENDBRANCH  29  30
ENDBRANCH  25  26
ENDBRANCH  24  25
TORSDOF 8
ENDMDL
MODEL 3
REMARK VINA RESULT:     -11.0      2.597      4.532
REMARK  Name = 
REMARK  8 active torsions:
REMARK  status: ('A' for Active; 'I' for Inactive)
REMARK    1  A    between atoms: O_2  and  C_3
REMARK    2  A    between atoms: C_3  and  C_5
REMARK    3  A    between atoms: N_10  and  S_11
REMARK    4  A    between atoms: S_11  and  C_14
REMARK    5  A    between atoms: C_16  and  C_20
REMARK    6  A    between atoms: N_24  and  C_25
REMARK    7  A    between atoms: C_25  and  C_26
REMARK    8  A    between atoms: C_29  and  O_30
REMARK                            x       y       z     vdW  Elec       q    Type
REMARK                         _______ _______ _______ _____ _____    ______ ____
ROOT
ATOM      5  C   UNL     1      -0.893   2.603  25.444  0.00  0.00    +0.184 C 
ATOM      6  C   UNL     1      -1.234   3.312  25.692  0.00  0.00    +0.076 C 
ATOM      7  C   UNL     1      -1.996   3.511  25.447  0.00  0.00    +0.076 A 
ATOM      8  C   UNL     1      -2.418   3.001  24.955  0.00  0.00    +0.070 A 
ATOM      9  C   UNL     1      -2.076   2.291  24.707  0.00  0.00    +0.141 C 
ATOM     10  N   UNL     1      -1.314   2.093  24.952  0.00  0.00    -0.140 NA
ATOM     24  N   UNL     1      -3.153   3.341  24.804  0.00  0.00    -0.307 N 
ATOM     34  C   UNL     1      -3.187   4.062  25.203  0.00  0.00    +0.178 A 
ATOM     35  N   UNL     1      -2.472   4.167  25.600  0.00  0.00    -0.229 NA
ENDROOT
BRANCH  10  11
ATOM     11  S   UNL     1      -0.974   1.384  24.704  0.00  0.00    +0.064 S 
ATOM     12  O   UNL     1      -1.279   1.004  25.369  0.00  0.00    -0.153 OA
ATOM     13  O   UNL     1      -0.667   1.764  24.038  0.00  0.00    -0.153 OA
BRANCH  11  14
ATOM     14  C   UNL     1      -0.632   0.675  24.455  0.00  0.00    +0.122 A 
ATOM     15  C   UNL     1      -0.858  -0.037  24.807  0.00  0.00    +0.024 A 
ATOM     16  C   UNL     1      -0.517  -0.746  24.559  0.00  0.00    +0.073 A 
ATOM     17  C   UNL     1       0.049  -0.744  23.958  0.00  0.00    +0.004 A 
ATOM     18  C   UNL     1       0.274  -0.032  23.606  0.00  0.00    +0.001 A 
ATOM     19  C   UNL     1      -0.067   0.677  23.855  0.00  0.00    +0.020 A 
BRANCH  16  20
ATOM     20  C   UNL     1      -0.743  -1.458  24.911  0.00  0.00    +0.419 C 
ATOM     21  F   UNL     1      -0.968  -2.169  25.263  0.00  0.00    -0.166 F 
ATOM     22  F   UNL     1      -1.331  -1.553  24.342  0.00  0.00    -0.166 F 
ATOM     23  F   UNL     1      -0.153  -1.362  25.481  0.00  0.00    -0.166 F 
ENDBRANCH  16  20
ENDBRANCH  11  14
ENDBRANCH  10  11
BRANCH   5   3
ATOM      3  C   UNL     1      -0.131   2.405  25.689  0.00  0.00    +0.334 C 
ATOM      4  O   UNL     1       0.506   2.500  25.173  0.00  0.00    -0.249 OA
BRANCH   3   2
ATOM      1  C   UNL     1       0.595   2.426  26.920  0.00  0.00    +0.256 C 
ATOM      2  O   UNL     1      -0.005   2.111  26.450  0.00  0.00    -0.443 OA
ENDBRANCH   3   2
ENDBRANCH   5   3
BRANCH  24  25
ATOM     25  C   UNL     1      -3.751   3.017  24.336  0.00  0.00    +0.134 C 
BRANCH  25  26
ATOM     26  C   UNL     1      -4.449   2.750  24.685  0.00  0.00    +0.001 A 
ATOM     27  C   UNL     1      -4.645   1.949  24.655  0.00  0.00    +0.001 A 
ATOM     28  C   UNL     1      -5.343   1.682  25.004  0.00  0.00    +0.037 A 
ATOM     29  C   UNL     1      -5.845   2.216  25.383  0.00  0.00    +0.139 A 
ATOM     32  C   UNL     1      -5.650   3.016  25.413  0.00  0.00    +0.037 A 
ATOM     33  C   UNL     1      -4.951   3.283  25.064  0.00  0.00    +0.001 A 
BRANCH  29  30
ATOM     30  O   UNL     1      -6.543   1.948  25.732  0.00  0.00    -0.471 OA
ATOM     31  C   UNL     1      -6.540   1.688  26.515  0.00  0.00    +0.252 C 
ENDBRANCH  29  30
ENDBRANCH  25  26
ENDBRANCH  24  25
TORSDOF 8
ENDMDL
MODEL 4
REMARK VINA RESULT:     -10.9      2.470      4.906
REMARK  Name = 
REMARK  8 active torsions:
REMARK  status: ('A' for Active; 'I' for Inactive)
REMARK    1  A    between atoms: O_2  and  C_3
REMARK    2  A    between atoms: C_3  and  C_5
REMARK    3  A    between atoms: N_10  and  S_11
REMARK    4  A    between atoms: S_11  and  C_14
REMARK    5  A    between atoms: C_16  and  C_20
REMARK    6  A    between atoms: N_24  and  C_25
REMARK    7  A    between atoms: C_25  and  C_26
REMARK    8  A    between atoms: C_29  and  O_30
REMARK                            x       y       z     vdW  Elec       q    Type
REMARK                         _______ _______ _______ _____ _____    ______ ____
ROOT
ATOM      5  C   UNL     1      -1.499   0.421  24.576  0.00  0.00    +0.184 C 
ATOM      6  C   UNL     1      -1.176   1.159  24.405  0.00  0.00    +0.076 C 
ATOM      7  C   UNL     1      -1.666   1.781  24.171  0.00  0.00    +0.076 A 
ATOM      8  C   UNL     1      -2.480   1.662  24.108  0.00  0.00    +0.070 A 
ATOM      9  C   UNL     1      -2.804   0.922  24.279  0.00  0.00    +0.141 C 
ATOM     10  N   UNL     1      -2.313   0.302  24.512  0.00  0.00    -0.140 NA
ATOM     24  N   UNL     1      -2.823   2.372  23.866  0.00  0.00    -0.307 N 
ATOM     34  C   UNL     1      -2.222   2.929  23.779  0.00  0.00    +0.178 A 
ATOM     35  N   UNL     1      -1.507   2.564  23.968  0.00  0.00    -0.229 NA
ENDROOT
BRANCH  10  11
ATOM     11  S   UNL     1      -2.637  -0.437  24.683  0.00  0.00    +0.064 S 
ATOM     12  O   UNL     1      -2.520  -0.670  23.901  0.00  0.00    -0.153 OA
ATOM     13  O   UNL     1      -2.755  -0.204  25.466  0.00  0.00    -0.153 OA
BRANCH  11  14
ATOM     14  C   UNL     1      -2.962  -1.176  24.855  0.00  0.00    +0.122 A 
ATOM     15  C   UNL     1      -3.374  -1.591  24.273  0.00  0.00    +0.024 A 
ATOM     16  C   UNL     1      -3.699  -2.329  24.444  0.00  0.00    +0.073 A 
ATOM     17  C   UNL     1      -3.611  -2.654  25.198  0.00  0.00    +0.004 A 
ATOM     18  C   UNL     1      -3.199  -2.239  25.780  0.00  0.00    +0.001 A 
ATOM     19  C   UNL     1      -2.874  -1.500  25.608  0.00  0.00    +0.020 A 
BRANCH  16  20
ATOM     20  C   UNL     1      -4.111  -2.744  23.862  0.00  0.00    +0.419 C 
ATOM     21  F   UNL     1      -4.523  -3.158  23.280  0.00  0.00    -0.166 F 
ATOM     22  F   UNL     1      -4.705  -2.173  23.877  0.00  0.00    -0.166 F 
ATOM     23  F   UNL     1      -3.516  -3.315  23.847  0.00  0.00    -0.166 F 
ENDBRANCH  16  20
ENDBRANCH  11  14
ENDBRANCH  10  11
BRANCH   5   3
ATOM      3  C   UNL     1      -1.009  -0.200  24.809  0.00  0.00    +0.334 C 
ATOM      4  O   UNL     1      -0.915  -0.371  25.611  0.00  0.00    -0.249 OA
BRANCH   3   2
ATOM      1  C   UNL     1       0.172  -0.870  24.365  0.00  0.00    +0.256 C 
ATOM      2  O   UNL     1      -0.613  -0.650  24.242  0.00  0.00    -0.443 OA
ENDBRANCH   3   2
ENDBRANCH   5   3
BRANCH  24  25
ATOM     25  C   UNL     1      -3.627   2.502  23.734  0.00  0.00    +0.134 C 
BRANCH  25  26
ATOM     26  C   UNL     1      -4.072   2.927  24.283  0.00  0.00    +0.001 A 
ATOM     27  C   UNL     1      -3.896   3.719  24.432  0.00  0.00    +0.001 A 
ATOM     28  C   UNL     1      -4.341   4.145  24.981  0.00  0.00    +0.037 A 
ATOM     29  C   UNL     1      -4.962   3.778  25.381  0.00  0.00    +0.139 A 
ATOM     32  C   UNL     1      -5.139   2.986  25.232  0.00  0.00    +0.037 A 
ATOM     33  C   UNL     1      -4.694   2.561  24.683  0.00  0.00    +0.001 A 
BRANCH  29  30
ATOM     30  O   UNL     1      -5.407   4.203  25.930  0.00  0.00    -0.471 OA
ATOM     31  C   UNL     1      -6.106   4.575  25.696  0.00  0.00    +0.252 C 
ENDBRANCH  29  30
ENDBRANCH  25  26
ENDBRANCH  24  25
TORSDOF 8
ENDMDL
MODEL 5
REMARK VINA RESULT:     -10.9      2.553      5.127
REMARK  Name = 
REMARK  8 active torsions:
REMARK  status: ('A' for Active; 'I' for Inactive)
REMARK    1  A    between atoms: O_2  and  C_3
REMARK    2  A    between atoms: C_3  and  C_5
REMARK    3  A    between atoms: N_10  and  S_11
REMARK    4  A    between atoms: S_11  and  C_14
REMARK    5  A    between atoms: C_16  and  C_20
REMARK    6  A    between atoms: N_24  and  C_25
REMARK    7  A    between atoms: C_25  and  C_26
REMARK    8  A    between atoms: C_29  and  O_30
REMARK                            x       y       z     vdW  Elec       q    Type
REMARK                         _______ _______ _______ _____ _____    ______ ____
ROOT
ATOM      5  C   UNL     1      -4.456   1.624  24.974  0.00  0.00    +0.184 C 
ATOM      6  C   UNL     1      -4.392   2.433  25.114  0.00  0.00    +0.076 C 
ATOM      7  C   UNL     1      -3.673   2.819  24.988  0.00  0.00    +0.076 A 
ATOM      8  C   UNL     1      -3.019   2.394  24.721  0.00  0.00    +0.070 A 
ATOM      9  C   UNL     1      -3.083   1.583  24.580  0.00  0.00    +0.141 C 
ATOM     10  N   UNL     1      -3.801   1.198  24.707  0.00  0.00    -0.140 NA
ATOM     24  N   UNL     1      -2.387   2.918  24.646  0.00  0.00    -0.307 N 
ATOM     34  C   UNL     1      -2.651   3.668  24.866  0.00  0.00    +0.178 A 
ATOM     35  N   UNL     1      -3.445   3.606  25.077  0.00  0.00    -0.229 NA
ENDROOT
BRANCH  10  11
ATOM     11  S   UNL     1      -3.865   0.388  24.567  0.00  0.00    +0.064 S 
ATOM     12  O   UNL     1      -3.762   0.240  25.371  0.00  0.00    -0.153 OA
ATOM     13  O   UNL     1      -3.968   0.536  23.761  0.00  0.00    -0.153 OA
BRANCH  11  14
ATOM     14  C   UNL     1      -3.928  -0.423  24.425  0.00  0.00    +0.122 A 
ATOM     15  C   UNL     1      -3.530  -0.958  24.910  0.00  0.00    +0.024 A 
ATOM     16  C   UNL     1      -3.593  -1.768  24.769  0.00  0.00    +0.073 A 
ATOM     17  C   UNL     1      -4.055  -2.043  24.142  0.00  0.00    +0.004 A 
ATOM     18  C   UNL     1      -4.453  -1.508  23.657  0.00  0.00    +0.001 A 
ATOM     19  C   UNL     1      -4.390  -0.697  23.799  0.00  0.00    +0.020 A 
BRANCH  16  20
ATOM     20  C   UNL     1      -3.195  -2.304  25.254  0.00  0.00    +0.419 C 
ATOM     21  F   UNL     1      -2.796  -2.840  25.739  0.00  0.00    -0.166 F 
ATOM     22  F   UNL     1      -2.538  -2.265  24.758  0.00  0.00    -0.166 F 
ATOM     23  F   UNL     1      -3.852  -2.343  25.751  0.00  0.00    -0.166 F 
ENDBRANCH  16  20
ENDBRANCH  11  14
ENDBRANCH  10  11
BRANCH   5   3
ATOM      3  C   UNL     1      -5.174   1.239  25.101  0.00  0.00    +0.334 C 
ATOM      4  O   UNL     1      -5.271   0.755  25.762  0.00  0.00    -0.249 OA
BRANCH   3   2
ATOM      1  C   UNL     1      -6.551   1.518  24.841  0.00  0.00    +0.256 C 
ATOM      2  O   UNL     1      -5.795   1.337  24.567  0.00  0.00    -0.443 OA
ENDBRANCH   3   2
ENDBRANCH   5   3
BRANCH  24  25
ATOM     25  C   UNL     1      -1.625   2.727  24.394  0.00  0.00    +0.134 C 
BRANCH  25  26
ATOM     26  C   UNL     1      -1.003   2.714  24.936  0.00  0.00    +0.001 A 
ATOM     27  C   UNL     1      -0.719   3.420  25.256  0.00  0.00    +0.001 A 
ATOM     28  C   UNL     1      -0.097   3.407  25.797  0.00  0.00    +0.037 A 
ATOM     29  C   UNL     1       0.241   2.688  26.019  0.00  0.00    +0.139 A 
ATOM     32  C   UNL     1      -0.042   1.982  25.699  0.00  0.00    +0.037 A 
ATOM     33  C   UNL     1      -0.664   1.995  25.158  0.00  0.00    +0.001 A 
BRANCH  29  30
ATOM     30  O   UNL     1       0.863   2.675  26.561  0.00  0.00    -0.471 OA
ATOM     31  C   UNL     1       0.710   2.553  27.363  0.00  0.00    +0.252 C 
ENDBRANCH  29  30
ENDBRANCH  25  26
ENDBRANCH  24  25
TORSDOF 8
ENDMDL
MODEL 6
REMARK VINA RESULT:     -10.7      2.406      5.107
REMARK  Name = 
REMARK  8 active torsions:
REMARK  status: ('A' for Active; 'I' for Inactive)
REMARK    1  A    between atoms: O_2  and  C_3
REMARK    2  A    between atoms: C_3  and  C_5
REMARK    3  A    between atoms: N_10  and  S_11
REMARK    4  A    between atoms: S_11  and  C_14
REMARK    5  A    between atoms: C_16  and  C_20
REMARK    6  A    between atoms: N_24  and  C_25
REMARK    7  A    between atoms: C_25  and  C_26
REMARK    8  A    between atoms: C_29  and  O_30
REMARK                            x       y       z     vdW  Elec       q    Type
REMARK                         _______ _______ _______ _____ _____    ______ ____
ROOT
ATOM      5  C   UNL     1      -0.689  -0.479  24.599  0.00  0.00    +0.184 C 
ATOM      6  C   UNL     1      -0.046   0.013  24.442  0.00  0.00    +0.076 C 
ATOM      7  C   UNL     1      -0.166   0.816  24.295  0.00  0.00    +0.076 A 
ATOM      8  C   UNL     1      -0.931   1.126  24.304  0.00  0.00    +0.070 A 
ATOM      9  C   UNL     1      -1.575   0.634  24.461  0.00  0.00    +0.141 C 
ATOM     10  N   UNL     1      -1.453  -0.169  24.609  0.00  0.00    -0.140 NA
ATOM     24  N   UNL     1      -0.881   1.932  24.140  0.00  0.00    -0.307 N 
ATOM     34  C   UNL     1      -0.085   2.121  24.029  0.00  0.00    +0.178 A 
ATOM     35  N   UNL     1       0.355   1.430  24.125  0.00  0.00    -0.229 NA
ENDROOT
BRANCH  10  11
ATOM     11  S   UNL     1      -2.096  -0.660  24.766  0.00  0.00    +0.064 S 
ATOM     12  O   UNL     1      -2.138  -0.862  23.968  0.00  0.00    -0.153 OA
ATOM     13  O   UNL     1      -2.055  -0.458  25.565  0.00  0.00    -0.153 OA
BRANCH  11  14
ATOM     14  C   UNL     1      -2.740  -1.152  24.924  0.00  0.00    +0.122 A 
ATOM     15  C   UNL     1      -3.142  -1.517  24.303  0.00  0.00    +0.024 A 
ATOM     16  C   UNL     1      -3.786  -2.008  24.460  0.00  0.00    +0.073 A 
ATOM     17  C   UNL     1      -4.027  -2.135  25.239  0.00  0.00    +0.004 A 
ATOM     18  C   UNL     1      -3.625  -1.770  25.860  0.00  0.00    +0.001 A 
ATOM     19  C   UNL     1      -2.981  -1.279  25.702  0.00  0.00    +0.020 A 
BRANCH  16  20
ATOM     20  C   UNL     1      -4.188  -2.373  23.839  0.00  0.00    +0.419 C 
ATOM     21  F   UNL     1      -4.591  -2.738  23.218  0.00  0.00    -0.166 F 
ATOM     22  F   UNL     1      -3.735  -3.053  23.945  0.00  0.00    -0.166 F 
ATOM     23  F   UNL     1      -4.642  -1.692  23.733  0.00  0.00    -0.166 F 
ENDBRANCH  16  20
ENDBRANCH  11  14
ENDBRANCH  10  11
BRANCH   5   3
ATOM      3  C   UNL     1      -0.568  -1.281  24.746  0.00  0.00    +0.334 C 
ATOM      4  O   UNL     1      -0.689  -1.834  24.146  0.00  0.00    -0.249 OA
BRANCH   3   2
ATOM      1  C   UNL     1       0.167  -2.188  25.570  0.00  0.00    +0.256 C 
ATOM      2  O   UNL     1      -0.326  -1.532  25.494  0.00  0.00    -0.443 OA
ENDBRANCH   3   2
ENDBRANCH   5   3
BRANCH  24  25
ATOM     25  C   UNL     1      -1.515   2.459  24.095  0.00  0.00    +0.134 C 
BRANCH  25  26
ATOM     26  C   UNL     1      -1.449   3.213  24.424  0.00  0.00    +0.001 A 
ATOM     27  C   UNL     1      -0.980   3.784  24.056  0.00  0.00    +0.001 A 
ATOM     28  C   UNL     1      -0.915   4.538  24.385  0.00  0.00    +0.037 A 
ATOM     29  C   UNL     1      -1.318   4.720  25.081  0.00  0.00    +0.139 A 
ATOM     32  C   UNL     1      -1.787   4.150  25.449  0.00  0.00    +0.037 A 
ATOM     33  C   UNL     1      -1.852   3.396  25.120  0.00  0.00    +0.001 A 
BRANCH  29  30
ATOM     30  O   UNL     1      -1.253   5.474  25.410  0.00  0.00    -0.471 OA
ATOM     31  C   UNL     1      -1.649   6.110  25.065  0.00  0.00    +0.252 C 
ENDBRANCH  29  30
ENDBRANCH  25  26
ENDBRANCH  24  25
TORSDOF 8
ENDMDL
MODEL 7
REMARK VINA RESULT:     -10.6      1.978      3.293
REMARK  Name = 
REMARK  8 active torsions:
REMARK  status: ('A' for Active; 'I' for Inactive)
REMARK    1  A    between atoms: O_2  and  C_3
REMARK    2  A    between atoms: C_3  and  C_5
REMARK    3  A    between atoms: N_10  and  S_11
REMARK    4  A    between atoms: S_11  and  C_14
REMARK    5  A    between atoms: C_16  and  C_20
REMARK    6  A    between atoms: N_24  and  C_25
REMARK    7  A    between atoms: C_25  and  C_26
REMARK    8  A    between atoms: C_29  and  O_30
REMARK                            x       y       z     vdW  Elec       q    Type
REMARK                         _______ _______ _______ _____ _____    ______ ____
ROOT
ATOM      5  C   UNL     1      -3.646   1.679  24.623  0.00  0.00    +0.184 C 
ATOM      6  C   UNL     1      -3.750   0.896  24.387  0.00  0.00    +0.076 C 
ATOM      7  C   UNL     1      -3.119   0.365  24.424  0.00  0.00    +0.076 A 
ATOM      8  C   UNL     1      -2.383   0.619  24.696  0.00  0.00    +0.070 A 
ATOM      9  C   UNL     1      -2.278   1.403  24.932  0.00  0.00    +0.141 C 
ATOM     10  N   UNL     1      -2.909   1.933  24.895  0.00  0.00    -0.140 NA
ATOM     24  N   UNL     1      -1.867  -0.023  24.671  0.00  0.00    -0.307 N 
ATOM     34  C   UNL     1      -2.283  -0.674  24.384  0.00  0.00    +0.178 A 
ATOM     35  N   UNL     1      -3.057  -0.433  24.231  0.00  0.00    -0.229 NA
ENDROOT
BRANCH  10  11
ATOM     11  S   UNL     1      -2.804   2.716  25.131  0.00  0.00    +0.064 S 
ATOM     12  O   UNL     1      -2.690   2.938  24.345  0.00  0.00    -0.153 OA
ATOM     13  O   UNL     1      -2.918   2.494  25.918  0.00  0.00    -0.153 OA
BRANCH  11  14
ATOM     14  C   UNL     1      -2.699   3.499  25.368  0.00  0.00    +0.122 A 
ATOM     15  C   UNL     1      -2.050   3.929  25.093  0.00  0.00    +0.024 A 
ATOM     16  C   UNL     1      -1.944   4.713  25.330  0.00  0.00    +0.073 A 
ATOM     17  C   UNL     1      -2.487   5.066  25.842  0.00  0.00    +0.004 A 
ATOM     18  C   UNL     1      -3.135   4.636  26.117  0.00  0.00    +0.001 A 
ATOM     19  C   UNL     1      -3.240   3.852  25.880  0.00  0.00    +0.020 A 
BRANCH  16  20
ATOM     20  C   UNL     1      -1.296   5.143  25.054  0.00  0.00    +0.419 C 
ATOM     21  F   UNL     1      -0.648   5.573  24.779  0.00  0.00    -0.166 F 
ATOM     22  F   UNL     1      -0.787   4.622  25.441  0.00  0.00    -0.166 F 
ATOM     23  F   UNL     1      -1.806   5.663  24.668  0.00  0.00    -0.166 F 
ENDBRANCH  16  20
ENDBRANCH  11  14
ENDBRANCH  10  11
BRANCH   5   3
ATOM      3  C   UNL     1      -4.276   2.209  24.586  0.00  0.00    +0.334 C 
ATOM      4  O   UNL     1      -4.325   2.749  23.965  0.00  0.00    -0.249 OA
BRANCH   3   2
ATOM      1  C   UNL     1      -5.655   2.236  24.960  0.00  0.00    +0.256 C 
ATOM      2  O   UNL     1      -4.859   2.198  25.170  0.00  0.00    -0.443 OA
ENDBRANCH   3   2
ENDBRANCH   5   3
BRANCH  24  25
ATOM     25  C   UNL     1      -1.072  -0.016  24.895  0.00  0.00    +0.134 C 
BRANCH  25  26
ATOM     26  C   UNL     1      -0.482  -0.102  24.325  0.00  0.00    +0.001 A 
ATOM     27  C   UNL     1      -0.244  -0.856  24.088  0.00  0.00    +0.001 A 
ATOM     28  C   UNL     1       0.346  -0.943  23.518  0.00  0.00    +0.037 A 
ATOM     29  C   UNL     1       0.698  -0.275  23.185  0.00  0.00    +0.139 A 
ATOM     32  C   UNL     1       0.460   0.478  23.421  0.00  0.00    +0.037 A 
ATOM     33  C   UNL     1      -0.130   0.565  23.991  0.00  0.00    +0.001 A 
BRANCH  29  30
ATOM     30  O   UNL     1       1.288  -0.362  22.615  0.00  0.00    -0.471 OA
ATOM     31  C   UNL     1       1.989   0.068  22.679  0.00  0.00    +0.252 C 
ENDBRANCH  29  30
ENDBRANCH  25  26
ENDBRANCH  24  25
TORSDOF 8
ENDMDL
