MODEL 1
REMARK VINA RESULT:     -10.8      0.000      0.000
REMARK  Name = 
REMARK  8 active torsions:
REMARK  status: ('A' for Active; 'I' for Inactive)
REMARK    1  A    between atoms: O_2  and  C_3
REMARK    2  A    between atoms: C_3  and  C_4
REMARK    3  A    between atoms: C_6  and  C_7
REMARK    4  A    between atoms: C_7  and  C_8
REMARK    5  A    between atoms: C_13  and  C_14
REMARK    6  A    between atoms: C_14  and  C_15
REMARK    7  A    between atoms: N_17  and  C_18
REMARK    8  A    between atoms: C_18  and  C_19
REMARK                            x       y       z     vdW  Elec       q    Type
REMARK                         _______ _______ _______ _____ _____    ______ ____
ROOT
ATOM      8  C   UNL     1      -3.934   3.056  24.926  0.00  0.00    +0.024 C 
ATOM      9  C   UNL     1      -4.123   3.697  25.410  0.00  0.00    +0.089 C 
ATOM     10  N   UNL     1      -4.813   3.684  25.862  0.00  0.00    -0.218 NA
ATOM     11  C   UNL     1      -5.314   3.031  25.831  0.00  0.00    +0.089 C 
ATOM     12  C   UNL     1      -5.127   2.389  25.347  0.00  0.00    +0.019 C 
ATOM     13  C   UNL     1      -4.437   2.401  24.895  0.00  0.00    +0.012 C 
ENDROOT
BRANCH   8   7
ATOM      7  C   UNL     1      -3.245   3.069  24.475  0.00  0.00    +0.051 C 
BRANCH   7   6
ATOM      4  C   UNL     1      -1.329   3.490  25.316  0.00  0.00    +0.184 A 
ATOM      5  C   UNL     1      -1.894   2.954  25.043  0.00  0.00    +0.056 A 
ATOM      6  C   UNL     1      -2.551   3.385  24.789  0.00  0.00    +0.100 A 
ATOM     25  N   UNL     1      -2.392   4.187  24.905  0.00  0.00    -0.082 NA
ATOM     26  O   UNL     1      -1.637   4.251  25.230  0.00  0.00    -0.356 OA
BRANCH   4   3
ATOM      3  C   UNL     1      -0.587   3.298  25.620  0.00  0.00    +0.209 C 
BRANCH   3   2
ATOM      1  C   UNL     1       0.232   2.478  26.457  0.00  0.00    +0.175 C 
ATOM      2  O   UNL     1      -0.516   2.710  26.195  0.00  0.00    -0.343 OA
ENDBRANCH   3   2
ENDBRANCH   4   3
ENDBRANCH   7   6
ENDBRANCH   8   7
BRANCH  13  14
ATOM     14  C   UNL     1      -4.249   1.760  24.411  0.00  0.00    +0.087 C 
BRANCH  14  15
ATOM     15  C   UNL     1      -4.628   1.036  24.521  0.00  0.00    +0.242 C 
ATOM     16  O   UNL     1      -5.450   1.006  24.587  0.00  0.00    -0.273 OA
ATOM     17  N   UNL     1      -4.185   0.341  24.564  0.00  0.00    -0.201 NA
BRANCH  17  18
ATOM     18  C   UNL     1      -4.565  -0.384  24.673  0.00  0.00    +0.141 C 
BRANCH  18  19
ATOM     19  C   UNL     1      -4.127  -1.082  24.673  0.00  0.00    -0.001 A 
ATOM     20  C   UNL     1      -3.630  -1.257  25.309  0.00  0.00    -0.003 A 
ATOM     21  C   UNL     1      -3.191  -1.956  25.309  0.00  0.00    -0.000 A 
ATOM     22  C   UNL     1      -3.249  -2.479  24.675  0.00  0.00    -0.000 A 
ATOM     23  C   UNL     1      -3.745  -2.305  24.040  0.00  0.00    -0.000 A 
ATOM     24  C   UNL     1      -4.184  -1.606  24.040  0.00  0.00    -0.003 A 
ENDBRANCH  18  19
ENDBRANCH  17  18
ENDBRANCH  14  15
ENDBRANCH  13  14
TORSDOF 8
ENDMDL
MODEL 2
REMARK VINA RESULT:     -10.3      1.430      4.728
REMARK  Name = 
REMARK  8 active torsions:
REMARK  status: ('A' for Active; 'I' for Inactive)
REMARK    1  A    between atoms: O_2  and  C_3
REMARK    2  A    between atoms: C_3  and  C_4
REMARK    3  A    between atoms: C_6  and  C_7
REMARK    4  A    between atoms: C_7  and  C_8
REMARK    5  A    between atoms: C_13  and  C_14
REMARK    6  A    between atoms: C_14  and  C_15
REMARK    7  A    between atoms: N_17  and  C_18
REMARK    8  A    between atoms: C_18  and  C_19
REMARK                            x       y       z     vdW  Elec       q    Type
REMARK                         _______ _______ _______ _____ _____    ______ ____
ROOT
ATOM      8  C   UNL     1      -4.895   1.496  24.919  0.00  0.00    +0.024 C 
ATOM      9  C   UNL     1      -5.447   1.070  25.359  0.00  0.00    +0.089 C 
ATOM     10  N   UNL     1      -6.010   1.469  25.812  0.00  0.00    -0.218 NA
ATOM     11  C   UNL     1      -6.020   2.293  25.825  0.00  0.00    +0.089 C 
ATOM     12  C   UNL     1      -5.468   2.720  25.385  0.00  0.00    +0.019 C 
ATOM     13  C   UNL     1      -4.905   2.321  24.932  0.00  0.00    +0.012 C 
ENDROOT
BRANCH   8   7
ATOM      7  C   UNL     1      -4.333   1.098  24.466  0.00  0.00    +0.051 C 
BRANCH   7   6
ATOM      4  C   UNL     1      -3.970  -1.004  24.542  0.00  0.00    +0.184 A 
ATOM      5  C   UNL     1      -4.237  -0.333  24.144  0.00  0.00    +0.056 A 
ATOM      6  C   UNL     1      -4.138   0.316  24.644  0.00  0.00    +0.100 A 
ATOM     25  N   UNL     1      -3.810   0.046  25.352  0.00  0.00    -0.082 NA
ATOM     26  O   UNL     1      -3.707  -0.770  25.289  0.00  0.00    -0.356 OA
BRANCH   4   3
ATOM      3  C   UNL     1      -3.967  -1.774  24.247  0.00  0.00    +0.209 C 
BRANCH   3   2
ATOM      1  C   UNL     1      -3.564  -3.141  24.358  0.00  0.00    +0.175 C 
ATOM      2  O   UNL     1      -3.584  -2.374  24.664  0.00  0.00    -0.343 OA
ENDBRANCH   3   2
ENDBRANCH   4   3
ENDBRANCH   7   6
ENDBRANCH   8   7
BRANCH  13  14
ATOM     14  C   UNL     1      -4.353   2.748  24.491  0.00  0.00    +0.087 C 
BRANCH  14  15
ATOM     15  C   UNL     1      -4.009   3.428  24.808  0.00  0.00    +0.242 C 
ATOM     16  O   UNL     1      -4.484   4.064  25.032  0.00  0.00    -0.273 OA
ATOM     17  N   UNL     1      -3.191   3.470  24.901  0.00  0.00    -0.201 NA
BRANCH  17  18
ATOM     18  C   UNL     1      -2.847   4.150  25.219  0.00  0.00    +0.141 C 
BRANCH  18  19
ATOM     19  C   UNL     1      -2.030   4.256  25.177  0.00  0.00    -0.001 A 
ATOM     20  C   UNL     1      -1.720   4.995  24.977  0.00  0.00    -0.003 A 
ATOM     21  C   UNL     1      -0.903   5.101  24.935  0.00  0.00    -0.000 A 
ATOM     22  C   UNL     1      -0.397   4.471  25.092  0.00  0.00    -0.000 A 
ATOM     23  C   UNL     1      -0.706   3.733  25.292  0.00  0.00    -0.000 A 
ATOM     24  C   UNL     1      -1.523   3.626  25.335  0.00  0.00    -0.003 A 
ENDBRANCH  18  19
ENDBRANCH  17  18
ENDBRANCH  14  15
ENDBRANCH  13  14
TORSDOF 8
ENDMDL
MODEL 3
REMARK VINA RESULT:     -10.2      2.270      4.508
REMARK  Name = 
REMARK  8 active torsions:
REMARK  status: ('A' for Active; 'I' for Inactive)
REMARK    1  A    between atoms: O_2  and  C_3
REMARK    2  A    between atoms: C_3  and  C_4
REMARK    3  A    between atoms: C_6  and  C_7
REMARK    4  A    between atoms: C_7  and  C_8
REMARK    5  A    between atoms: C_13  and  C_14
REMARK    6  A    between atoms: C_14  and  C_15
REMARK    7  A    between atoms: N_17  and  C_18
REMARK    8  A    between atoms: C_18  and  C_19
REMARK                            x       y       z     vdW  Elec       q    Type
REMARK                         _______ _______ _______ _____ _____    ______ ____
ROOT
ATOM      8  C   UNL     1      -2.574  -1.457  24.956  0.00  0.00    +0.024 C 
ATOM      9  C   UNL     1      -2.337  -2.157  24.589  0.00  0.00    +0.089 C 
ATOM     10  N   UNL     1      -2.899  -2.657  24.250  0.00  0.00    -0.218 NA
ATOM     11  C   UNL     1      -3.698  -2.457  24.278  0.00  0.00    +0.089 C 
ATOM     12  C   UNL     1      -3.937  -1.757  24.645  0.00  0.00    +0.019 C 
ATOM     13  C   UNL     1      -3.374  -1.258  24.984  0.00  0.00    +0.012 C 
ENDROOT
BRANCH   8   7
ATOM      7  C   UNL     1      -2.012  -0.958  25.295  0.00  0.00    +0.051 C 
BRANCH   7   6
ATOM      4  C   UNL     1      -0.222  -0.451  24.249  0.00  0.00    +0.184 A 
ATOM      5  C   UNL     1      -1.009  -0.299  24.447  0.00  0.00    +0.056 A 
ATOM      6  C   UNL     1      -1.261  -0.894  24.960  0.00  0.00    +0.100 A 
ATOM     25  N   UNL     1      -0.631  -1.414  25.079  0.00  0.00    -0.082 NA
ATOM     26  O   UNL     1       0.011  -1.139  24.639  0.00  0.00    -0.356 OA
BRANCH   4   3
ATOM      3  C   UNL     1       0.248   0.006  23.748  0.00  0.00    +0.209 C 
BRANCH   3   2
ATOM      1  C   UNL     1       1.267   0.094  22.750  0.00  0.00    +0.175 C 
ATOM      2  O   UNL     1       0.752  -0.361  23.207  0.00  0.00    -0.343 OA
ENDBRANCH   3   2
ENDBRANCH   4   3
ENDBRANCH   7   6
ENDBRANCH   8   7
BRANCH  13  14
ATOM     14  C   UNL     1      -3.612  -0.557  25.352  0.00  0.00    +0.087 C 
BRANCH  14  15
ATOM     15  C   UNL     1      -4.197  -0.089  25.006  0.00  0.00    +0.242 C 
ATOM     16  O   UNL     1      -4.735  -0.423  24.477  0.00  0.00    -0.273 OA
ATOM     17  N   UNL     1      -4.243   0.713  25.191  0.00  0.00    -0.201 NA
BRANCH  17  18
ATOM     18  C   UNL     1      -4.829   1.182  24.845  0.00  0.00    +0.141 C 
BRANCH  18  19
ATOM     19  C   UNL     1      -4.869   1.987  25.022  0.00  0.00    -0.001 A 
ATOM     20  C   UNL     1      -4.345   2.515  24.663  0.00  0.00    -0.003 A 
ATOM     21  C   UNL     1      -4.385   3.319  24.840  0.00  0.00    -0.000 A 
ATOM     22  C   UNL     1      -4.948   3.597  25.374  0.00  0.00    -0.000 A 
ATOM     23  C   UNL     1      -5.472   3.070  25.733  0.00  0.00    -0.000 A 
ATOM     24  C   UNL     1      -5.432   2.265  25.556  0.00  0.00    -0.003 A 
ENDBRANCH  18  19
ENDBRANCH  17  18
ENDBRANCH  14  15
ENDBRANCH  13  14
TORSDOF 8
ENDMDL
MODEL 4
REMARK VINA RESULT:     -10.2      2.515      3.831
REMARK  Name = 
REMARK  8 active torsions:
REMARK  status: ('A' for Active; 'I' for Inactive)
REMARK    1  A    between atoms: O_2  and  C_3
REMARK    2  A    between atoms: C_3  and  C_4
REMARK    3  A    between atoms: C_6  and  C_7
REMARK    4  A    between atoms: C_7  and  C_8
REMARK    5  A    between atoms: C_13  and  C_14
REMARK    6  A    between atoms: C_14  and  C_15
REMARK    7  A    between atoms: N_17  and  C_18
REMARK    8  A    between atoms: C_18  and  C_19
REMARK                            x       y       z     vdW  Elec       q    Type
REMARK                         _______ _______ _______ _____ _____    ______ ____
ROOT
ATOM      8  C   UNL     1      -0.972   3.648  25.386  0.00  0.00    +0.024 C 
ATOM      9  C   UNL     1      -0.412   4.033  24.917  0.00  0.00    +0.089 C 
ATOM     10  N   UNL     1      -0.548   4.805  24.660  0.00  0.00    -0.218 NA
ATOM     11  C   UNL     1      -1.245   5.192  24.871  0.00  0.00    +0.089 C 
ATOM     12  C   UNL     1      -1.806   4.809  25.339  0.00  0.00    +0.019 C 
ATOM     13  C   UNL     1      -1.669   4.037  25.596  0.00  0.00    +0.012 C 
ENDROOT
BRANCH   8   7
ATOM      7  C   UNL     1      -0.836   2.878  25.643  0.00  0.00    +0.051 C 
BRANCH   7   6
ATOM      4  C   UNL     1       0.047   1.413  24.365  0.00  0.00    +0.184 A 
ATOM      5  C   UNL     1      -0.617   1.779  24.691  0.00  0.00    +0.056 A 
ATOM      6  C   UNL     1      -0.356   2.373  25.200  0.00  0.00    +0.100 A 
ATOM     25  N   UNL     1       0.470   2.375  25.190  0.00  0.00    -0.082 NA
ATOM     26  O   UNL     1       0.719   1.781  24.674  0.00  0.00    -0.356 OA
BRANCH   4   3
ATOM      3  C   UNL     1       0.041   0.789  23.826  0.00  0.00    +0.209 C 
BRANCH   3   2
ATOM      1  C   UNL     1       0.762  -0.152  23.027  0.00  0.00    +0.175 C 
ATOM      2  O   UNL     1       0.745   0.544  23.471  0.00  0.00    -0.343 OA
ENDBRANCH   3   2
ENDBRANCH   4   3
ENDBRANCH   7   6
ENDBRANCH   8   7
BRANCH  13  14
ATOM     14  C   UNL     1      -2.230   3.653  26.065  0.00  0.00    +0.087 C 
BRANCH  14  15
ATOM     15  C   UNL     1      -3.028   3.852  25.999  0.00  0.00    +0.242 C 
ATOM     16  O   UNL     1      -3.288   4.599  26.236  0.00  0.00    -0.273 OA
ATOM     17  N   UNL     1      -3.565   3.305  25.697  0.00  0.00    -0.201 NA
BRANCH  17  18
ATOM     18  C   UNL     1      -4.364   3.504  25.631  0.00  0.00    +0.141 C 
BRANCH  18  19
ATOM     19  C   UNL     1      -4.918   2.924  25.437  0.00  0.00    -0.001 A 
ATOM     20  C   UNL     1      -5.543   2.763  25.952  0.00  0.00    -0.003 A 
ATOM     21  C   UNL     1      -6.097   2.184  25.758  0.00  0.00    -0.000 A 
ATOM     22  C   UNL     1      -6.027   1.766  25.051  0.00  0.00    -0.000 A 
ATOM     23  C   UNL     1      -5.403   1.927  24.537  0.00  0.00    -0.000 A 
ATOM     24  C   UNL     1      -4.848   2.507  24.730  0.00  0.00    -0.003 A 
ENDBRANCH  18  19
ENDBRANCH  17  18
ENDBRANCH  14  15
ENDBRANCH  13  14
TORSDOF 8
ENDMDL
MODEL 5
REMARK VINA RESULT:     -10.0      0.994      1.198
REMARK  Name = 
REMARK  8 active torsions:
REMARK  status: ('A' for Active; 'I' for Inactive)
REMARK    1  A    between atoms: O_2  and  C_3
REMARK    2  A    between atoms: C_3  and  C_4
REMARK    3  A    between atoms: C_6  and  C_7
REMARK    4  A    between atoms: C_7  and  C_8
REMARK    5  A    between atoms: C_13  and  C_14
REMARK    6  A    between atoms: C_14  and  C_15
REMARK    7  A    between atoms: N_17  and  C_18
REMARK    8  A    between atoms: C_18  and  C_19
REMARK                            x       y       z     vdW  Elec       q    Type
REMARK                         _______ _______ _______ _____ _____    ______ ____
ROOT
ATOM      8  C   UNL     1      -3.225   2.923  24.997  0.00  0.00    +0.024 C 
ATOM      9  C   UNL     1      -3.149   3.603  24.537  0.00  0.00    +0.089 C 
ATOM     10  N   UNL     1      -3.677   3.745  23.919  0.00  0.00    -0.218 NA
ATOM     11  C   UNL     1      -4.280   3.206  23.761  0.00  0.00    +0.089 C 
ATOM     12  C   UNL     1      -4.357   2.525  24.220  0.00  0.00    +0.019 C 
ATOM     13  C   UNL     1      -3.829   2.383  24.838  0.00  0.00    +0.012 C 
ENDROOT
BRANCH   8   7
ATOM      7  C   UNL     1      -2.698   2.782  25.614  0.00  0.00    +0.051 C 
BRANCH   7   6
ATOM      4  C   UNL     1      -0.596   2.763  25.239  0.00  0.00    +0.184 A 
ATOM      5  C   UNL     1      -1.327   2.381  25.265  0.00  0.00    +0.056 A 
ATOM      6  C   UNL     1      -1.893   2.929  25.512  0.00  0.00    +0.100 A 
ATOM     25  N   UNL     1      -1.511   3.651  25.639  0.00  0.00    -0.082 NA
ATOM     26  O   UNL     1      -0.711   3.548  25.470  0.00  0.00    -0.356 OA
BRANCH   4   3
ATOM      3  C   UNL     1       0.122   2.422  25.021  0.00  0.00    +0.209 C 
BRANCH   3   2
ATOM      1  C   UNL     1       0.882   1.622  24.113  0.00  0.00    +0.175 C 
ATOM      2  O   UNL     1       0.189   2.031  24.297  0.00  0.00    -0.343 OA
ENDBRANCH   3   2
ENDBRANCH   4   3
ENDBRANCH   7   6
ENDBRANCH   8   7
BRANCH  13  14
ATOM     14  C   UNL     1      -3.906   1.702  25.299  0.00  0.00    +0.087 C 
BRANCH  14  15
ATOM     15  C   UNL     1      -4.361   1.071  25.027  0.00  0.00    +0.242 C 
ATOM     16  O   UNL     1      -5.160   1.182  24.853  0.00  0.00    -0.273 OA
ATOM     17  N   UNL     1      -4.017   0.327  24.929  0.00  0.00    -0.201 NA
BRANCH  17  18
ATOM     18  C   UNL     1      -4.473  -0.305  24.657  0.00  0.00    +0.141 C 
BRANCH  18  19
ATOM     19  C   UNL     1      -4.142  -1.059  24.608  0.00  0.00    -0.001 A 
ATOM     20  C   UNL     1      -3.695  -1.356  25.235  0.00  0.00    -0.003 A 
ATOM     21  C   UNL     1      -3.364  -2.110  25.186  0.00  0.00    -0.000 A 
ATOM     22  C   UNL     1      -3.480  -2.567  24.510  0.00  0.00    -0.000 A 
ATOM     23  C   UNL     1      -3.927  -2.272  23.883  0.00  0.00    -0.000 A 
ATOM     24  C   UNL     1      -4.258  -1.517  23.932  0.00  0.00    -0.003 A 
ENDBRANCH  18  19
ENDBRANCH  17  18
ENDBRANCH  14  15
ENDBRANCH  13  14
TORSDOF 8
ENDMDL
MODEL 6
REMARK VINA RESULT:     -10.0      2.491      5.874
REMARK  Name = 
REMARK  8 active torsions:
REMARK  status: ('A' for Active; 'I' for Inactive)
REMARK    1  A    between atoms: O_2  and  C_3
REMARK    2  A    between atoms: C_3  and  C_4
REMARK    3  A    between atoms: C_6  and  C_7
REMARK    4  A    between atoms: C_7  and  C_8
REMARK    5  A    between atoms: C_13  and  C_14
REMARK    6  A    between atoms: C_14  and  C_15
REMARK    7  A    between atoms: N_17  and  C_18
REMARK    8  A    between atoms: C_18  and  C_19
REMARK                            x       y       z     vdW  Elec       q    Type
REMARK                         _______ _______ _______ _____ _____    ______ ____
ROOT
ATOM      8  C   UNL     1      -0.532  -0.202  24.643  0.00  0.00    +0.024 C 
ATOM      9  C   UNL     1      -0.254  -0.663  24.019  0.00  0.00    +0.089 C 
ATOM     10  N   UNL     1       0.210  -0.322  23.428  0.00  0.00    -0.218 NA
ATOM     11  C   UNL     1       0.395   0.480  23.461  0.00  0.00    +0.089 C 
ATOM     12  C   UNL     1       0.118   0.943  24.085  0.00  0.00    +0.019 C 
ATOM     13  C   UNL     1      -0.346   0.602  24.676  0.00  0.00    +0.012 C 
ENDROOT
BRANCH   8   7
ATOM      7  C   UNL     1      -0.995  -0.542  25.233  0.00  0.00    +0.051 C 
BRANCH   7   6
ATOM      4  C   UNL     1      -2.526  -1.969  24.809  0.00  0.00    +0.184 A 
ATOM      5  C   UNL     1      -2.286  -1.197  24.978  0.00  0.00    +0.056 A 
ATOM      6  C   UNL     1      -1.465  -1.198  25.063  0.00  0.00    +0.100 A 
ATOM     25  N   UNL     1      -1.197  -1.970  24.947  0.00  0.00    -0.082 NA
ATOM     26  O   UNL     1      -1.852  -2.446  24.790  0.00  0.00    -0.356 OA
BRANCH   4   3
ATOM      3  C   UNL     1      -3.301  -2.219  24.682  0.00  0.00    +0.209 C 
BRANCH   3   2
ATOM      1  C   UNL     1      -4.441  -2.333  23.828  0.00  0.00    +0.175 C 
ATOM      2  O   UNL     1      -3.658  -2.099  23.948  0.00  0.00    -0.343 OA
ENDBRANCH   3   2
ENDBRANCH   4   3
ENDBRANCH   7   6
ENDBRANCH   8   7
BRANCH  13  14
ATOM     14  C   UNL     1      -0.624   1.065  25.301  0.00  0.00    +0.087 C 
BRANCH  14  15
ATOM     15  C   UNL     1      -0.352   1.837  25.395  0.00  0.00    +0.242 C 
ATOM     16  O   UNL     1       0.451   1.980  25.525  0.00  0.00    -0.273 OA
ATOM     17  N   UNL     1      -0.882   2.468  25.358  0.00  0.00    -0.201 NA
BRANCH  17  18
ATOM     18  C   UNL     1      -0.610   3.242  25.452  0.00  0.00    +0.141 C 
BRANCH  18  19
ATOM     19  C   UNL     1      -1.139   3.873  25.409  0.00  0.00    -0.001 A 
ATOM     20  C   UNL     1      -0.906   4.583  25.059  0.00  0.00    -0.003 A 
ATOM     21  C   UNL     1      -1.436   5.214  25.015  0.00  0.00    -0.000 A 
ATOM     22  C   UNL     1      -2.197   5.136  25.322  0.00  0.00    -0.000 A 
ATOM     23  C   UNL     1      -2.430   4.426  25.671  0.00  0.00    -0.000 A 
ATOM     24  C   UNL     1      -1.900   3.794  25.715  0.00  0.00    -0.003 A 
ENDBRANCH  18  19
ENDBRANCH  17  18
ENDBRANCH  14  15
ENDBRANCH  13  14
TORSDOF 8
ENDMDL
MODEL 7
REMARK VINA RESULT:      -9.9      1.887      3.337
REMARK  Name = 
REMARK  8 active torsions:
REMARK  status: ('A' for Active; 'I' for Inactive)
REMARK    1  A    between atoms: O_2  and  C_3
REMARK    2  A    between atoms: C_3  and  C_4
REMARK    3  A    between atoms: C_6  and  C_7
REMARK    4  A    between atoms: C_7  and  C_8
REMARK    5  A    between atoms: C_13  and  C_14
REMARK    6  A    between atoms: C_14  and  C_15
REMARK    7  A    between atoms: N_17  and  C_18
REMARK    8  A    between atoms: C_18  and  C_19
REMARK                            x       y       z     vdW  Elec       q    Type
REMARK                         _______ _______ _______ _____ _____    ______ ____
ROOT
ATOM      8  C   UNL     1      -0.637   1.621  25.129  0.00  0.00    +0.024 C 
ATOM      9  C   UNL     1      -0.177   2.113  24.652  0.00  0.00    +0.089 C 
ATOM     10  N   UNL     1       0.280   1.790  24.045  0.00  0.00    -0.218 NA
ATOM     11  C   UNL     1       0.276   0.976  23.916  0.00  0.00    +0.089 C 
ATOM     12  C   UNL     1      -0.184   0.483  24.392  0.00  0.00    +0.019 C 
ATOM     13  C   UNL     1      -0.641   0.806  24.999  0.00  0.00    +0.012 C 
ENDROOT
BRANCH   8   7
ATOM      7  C   UNL     1      -1.093   1.944  25.735  0.00  0.00    +0.051 C 
BRANCH   7   6
ATOM      4  C   UNL     1      -2.424   3.566  25.344  0.00  0.00    +0.184 A 
ATOM      5  C   UNL     1      -2.267   2.758  25.387  0.00  0.00    +0.056 A 
ATOM      6  C   UNL     1      -1.481   2.663  25.622  0.00  0.00    +0.100 A 
ATOM     25  N   UNL     1      -1.152   3.413  25.724  0.00  0.00    -0.082 NA
ATOM     26  O   UNL     1      -1.735   3.971  25.552  0.00  0.00    -0.356 OA
BRANCH   4   3
ATOM      3  C   UNL     1      -3.142   3.910  25.130  0.00  0.00    +0.209 C 
BRANCH   3   2
ATOM      1  C   UNL     1      -4.561   3.957  25.297  0.00  0.00    +0.175 C 
ATOM      2  O   UNL     1      -3.810   3.795  25.601  0.00  0.00    -0.343 OA
ENDBRANCH   3   2
ENDBRANCH   4   3
ENDBRANCH   7   6
ENDBRANCH   8   7
BRANCH  13  14
ATOM     14  C   UNL     1      -1.101   0.314  25.475  0.00  0.00    +0.087 C 
BRANCH  14  15
ATOM     15  C   UNL     1      -1.222  -0.473  25.260  0.00  0.00    +0.242 C 
ATOM     16  O   UNL     1      -0.590  -1.004  25.262  0.00  0.00    -0.273 OA
ATOM     17  N   UNL     1      -1.975  -0.729  25.042  0.00  0.00    -0.201 NA
BRANCH  17  18
ATOM     18  C   UNL     1      -2.097  -1.516  24.826  0.00  0.00    +0.141 C 
BRANCH  18  19
ATOM     19  C   UNL     1      -2.837  -1.760  24.557  0.00  0.00    -0.001 A 
ATOM     20  C   UNL     1      -3.029  -2.563  24.548  0.00  0.00    -0.003 A 
ATOM     21  C   UNL     1      -3.770  -2.807  24.279  0.00  0.00    -0.000 A 
ATOM     22  C   UNL     1      -4.318  -2.249  24.020  0.00  0.00    -0.000 A 
ATOM     23  C   UNL     1      -4.127  -1.447  24.028  0.00  0.00    -0.000 A 
ATOM     24  C   UNL     1      -3.386  -1.203  24.297  0.00  0.00    -0.003 A 
ENDBRANCH  18  19
ENDBRANCH  17  18
ENDBRANCH  14  15
ENDBRANCH  13  14
TORSDOF 8
ENDMDL
MODEL 8
REMARK VINA RESULT:      -9.9      1.484      3.166
REMARK  Name = 
REMARK  8 active torsions:
REMARK  status: ('A' for Active; 'I' for Inactive)
REMARK    1  A    between atoms: O_2  and  C_3
REMARK    2  A    between atoms: C_3  and  C_4
REMARK    3  A    between atoms: C_6  and  C_7
REMARK    4  A    between atoms: C_7  and  C_8
REMARK    5  A    between atoms: C_13  and  C_14
REMARK    6  A    between atoms: C_14  and  C_15
REMARK    7  A    between atoms: N_17  and  C_18
REMARK    8  A    between atoms: C_18  and  C_19
REMARK                            x       y       z     vdW  Elec       q    Type
REMARK                         _______ _______ _______ _____ _____    ______ ____
ROOT
ATOM      8  C   UNL     1      -1.420   2.457  24.960  0.00  0.00    +0.024 C 
ATOM      9  C   UNL     1      -1.241   3.044  25.511  0.00  0.00    +0.089 C 
ATOM     10  N   UNL     1      -0.652   2.917  26.074  0.00  0.00    -0.218 NA
ATOM     11  C   UNL     1      -0.240   2.203  26.086  0.00  0.00    +0.089 C 
ATOM     12  C   UNL     1      -0.418   1.615  25.535  0.00  0.00    +0.019 C 
ATOM     13  C   UNL     1      -1.007   1.742  24.972  0.00  0.00    +0.012 C 
ENDROOT
BRANCH   8   7
ATOM      7  C   UNL     1      -2.008   2.584  24.398  0.00  0.00    +0.051 C 
BRANCH   7   6
ATOM      4  C   UNL     1      -3.935   3.351  24.907  0.00  0.00    +0.184 A 
ATOM      5  C   UNL     1      -3.435   2.719  24.728  0.00  0.00    +0.056 A 
ATOM      6  C   UNL     1      -2.679   3.023  24.594  0.00  0.00    +0.100 A 
ATOM     25  N   UNL     1      -2.712   3.842  24.690  0.00  0.00    -0.082 NA
ATOM     26  O   UNL     1      -3.488   4.044  24.884  0.00  0.00    -0.356 OA
BRANCH   4   3
ATOM      3  C   UNL     1      -4.739   3.298  25.079  0.00  0.00    +0.209 C 
BRANCH   3   2
ATOM      1  C   UNL     1      -5.795   2.801  25.905  0.00  0.00    +0.175 C 
ATOM      2  O   UNL     1      -4.990   2.923  25.771  0.00  0.00    -0.343 OA
ENDBRANCH   3   2
ENDBRANCH   4   3
ENDBRANCH   7   6
ENDBRANCH   8   7
BRANCH  13  14
ATOM     14  C   UNL     1      -1.185   1.154  24.420  0.00  0.00    +0.087 C 
BRANCH  14  15
ATOM     15  C   UNL     1      -1.064   0.360  24.611  0.00  0.00    +0.242 C 
ATOM     16  O   UNL     1      -0.298   0.073  24.715  0.00  0.00    -0.273 OA
ATOM     17  N   UNL     1      -1.711  -0.145  24.698  0.00  0.00    -0.201 NA
BRANCH  17  18
ATOM     18  C   UNL     1      -1.590  -0.939  24.888  0.00  0.00    +0.141 C 
BRANCH  18  19
ATOM     19  C   UNL     1      -2.232  -1.457  24.920  0.00  0.00    -0.001 A 
ATOM     20  C   UNL     1      -2.874  -1.288  25.411  0.00  0.00    -0.003 A 
ATOM     21  C   UNL     1      -3.515  -1.805  25.443  0.00  0.00    -0.000 A 
ATOM     22  C   UNL     1      -3.515  -2.490  24.985  0.00  0.00    -0.000 A 
ATOM     23  C   UNL     1      -2.874  -2.660  24.495  0.00  0.00    -0.000 A 
ATOM     24  C   UNL     1      -2.232  -2.142  24.463  0.00  0.00    -0.003 A 
ENDBRANCH  18  19
ENDBRANCH  17  18
ENDBRANCH  14  15
ENDBRANCH  13  14
TORSDOF 8
ENDMDL
MODEL 9
REMARK VINA RESULT:      -9.8      2.097      4.266
REMARK  Name = 
REMARK  8 active torsions:
REMARK  status: ('A' for Active; 'I' for Inactive)
REMARK    1  A    between atoms: O_2  and  C_3
REMARK    2  A    between atoms: C_3  and  C_4
REMARK    3  A    between atoms: C_6  and  C_7
REMARK    4  A    between atoms: C_7  and  C_8
REMARK    5  A    between atoms: C_13  and  C_14
REMARK    6  A    between atoms: C_14  and  C_15
REMARK    7  A    between atoms: N_17  and  C_18
REMARK    8  A    between atoms: C_18  and  C_19
REMARK                            x       y       z     vdW  Elec       q    Type
REMARK                         _______ _______ _______ _____ _____    ______ ____
ROOT
ATOM      8  C   UNL     1      -0.743   1.982  24.771  0.00  0.00    +0.024 C 
ATOM      9  C   UNL     1      -0.131   1.814  25.297  0.00  0.00    +0.089 C 
ATOM     10  N   UNL     1       0.035   2.333  25.917  0.00  0.00    -0.218 NA
ATOM     11  C   UNL     1      -0.411   3.020  26.009  0.00  0.00    +0.089 C 
ATOM     12  C   UNL     1      -1.024   3.189  25.483  0.00  0.00    +0.019 C 
ATOM     13  C   UNL     1      -1.190   2.670  24.863  0.00  0.00    +0.012 C 
ENDROOT
BRANCH   8   7
ATOM      7  C   UNL     1      -0.909   1.463  24.152  0.00  0.00    +0.051 C 
BRANCH   7   6
ATOM      4  C   UNL     1      -0.723  -0.639  24.474  0.00  0.00    +0.184 A 
ATOM      5  C   UNL     1      -1.153   0.063  24.527  0.00  0.00    +0.056 A 
ATOM      6  C   UNL     1      -0.692   0.669  24.209  0.00  0.00    +0.100 A 
ATOM     25  N   UNL     1       0.024   0.342  23.959  0.00  0.00    -0.082 NA
ATOM     26  O   UNL     1       0.004  -0.466  24.123  0.00  0.00    -0.356 OA
BRANCH   4   3
ATOM      3  C   UNL     1      -0.975  -1.382  24.726  0.00  0.00    +0.209 C 
BRANCH   3   2
ATOM      1  C   UNL     1      -1.835  -2.512  24.566  0.00  0.00    +0.175 C 
ATOM      2  O   UNL     1      -1.508  -1.815  24.268  0.00  0.00    -0.343 OA
ENDBRANCH   3   2
ENDBRANCH   4   3
ENDBRANCH   7   6
ENDBRANCH   8   7
BRANCH  13  14
ATOM     14  C   UNL     1      -1.803   2.838  24.336  0.00  0.00    +0.087 C 
BRANCH  14  15
ATOM     15  C   UNL     1      -2.462   3.262  24.593  0.00  0.00    +0.242 C 
ATOM     16  O   UNL     1      -2.393   4.065  24.773  0.00  0.00    -0.273 OA
ATOM     17  N   UNL     1      -3.190   2.883  24.671  0.00  0.00    -0.201 NA
BRANCH  17  18
ATOM     18  C   UNL     1      -3.850   3.307  24.928  0.00  0.00    +0.141 C 
BRANCH  18  19
ATOM     19  C   UNL     1      -4.553   2.911  25.098  0.00  0.00    -0.001 A 
ATOM     20  C   UNL     1      -4.982   3.105  25.777  0.00  0.00    -0.003 A 
ATOM     21  C   UNL     1      -5.685   2.709  25.947  0.00  0.00    -0.000 A 
ATOM     22  C   UNL     1      -5.960   2.120  25.441  0.00  0.00    -0.000 A 
ATOM     23  C   UNL     1      -5.532   1.925  24.763  0.00  0.00    -0.000 A 
ATOM     24  C   UNL     1      -4.828   2.322  24.592  0.00  0.00    -0.003 A 
ENDBRANCH  18  19
ENDBRANCH  17  18
ENDBRANCH  14  15
ENDBRANCH  13  14
TORSDOF 8
ENDMDL
