MODEL 1
REMARK VINA RESULT:     -12.4      0.000      0.000
REMARK  Name = 
REMARK  7 active torsions:
REMARK  status: ('A' for Active; 'I' for Inactive)
REMARK    1  A    between atoms: C_2  and  C_3
REMARK    2  A    between atoms: C_11  and  C_12
REMARK    3  A    between atoms: C_12  and  C_13
REMARK    4  A    between atoms: N_15  and  C_16
REMARK    5  A    between atoms: C_16  and  C_17
REMARK    6  A    between atoms: C_17  and  N_18
REMARK    7  A    between atoms: C_31  and  C_33
REMARK                            x       y       z     vdW  Elec       q    Type
REMARK                         _______ _______ _______ _____ _____    ______ ____
ROOT
ATOM      1  C   UNL     1      -3.155   4.483  25.438  0.00  0.00    +0.005 C 
ATOM      2  C   UNL     1      -2.801   3.747  25.326  0.00  0.00    +0.059 C 
ATOM      5  C   UNL     1      -2.131   4.209  25.453  0.00  0.00    +0.154 C 
ATOM      6  O   UNL     1      -2.208   5.018  25.596  0.00  0.00    -0.223 OA
ATOM      7  C   UNL     1      -1.381   3.862  25.437  0.00  0.00    +0.033 C 
ATOM      8  C   UNL     1      -1.304   3.054  25.294  0.00  0.00    +0.003 C 
ATOM      9  C   UNL     1      -1.975   2.592  25.167  0.00  0.00    +0.006 C 
ATOM     10  C   UNL     1      -1.227   2.246  25.151  0.00  0.00    +0.000 C 
ATOM     11  C   UNL     1      -1.898   1.783  25.023  0.00  0.00    +0.050 C 
ATOM     24  C   UNL     1      -2.568   1.320  24.896  0.00  0.00    +0.063 A 
ATOM     25  C   UNL     1      -3.318   1.667  24.912  0.00  0.00    +0.023 A 
ATOM     26  C   UNL     1      -3.395   2.475  25.055  0.00  0.00    +0.034 C 
ATOM     27  C   UNL     1      -2.724   2.938  25.182  0.00  0.00    +0.010 C 
ATOM     28  S   UNL     1      -3.875   1.075  24.768  0.00  0.00    -0.054 S 
ATOM     29  C   UNL     1      -3.471   0.364  24.663  0.00  0.00    +0.185 A 
ATOM     30  N   UNL     1      -3.814  -0.370  24.507  0.00  0.00    -0.154 NA
ATOM     31  C   UNL     1      -3.337  -1.036  24.415  0.00  0.00    +0.247 C 
ATOM     32  O   UNL     1      -2.517  -0.970  24.479  0.00  0.00    -0.273 OA
ATOM     37  N   UNL     1      -2.664   0.515  24.742  0.00  0.00    -0.227 NA
ENDROOT
BRANCH  31  33
ATOM     33  C   UNL     1      -3.679  -1.770  24.259  0.00  0.00    +0.079 C 
ATOM     34  C   UNL     1      -3.554  -2.542  24.526  0.00  0.00    +0.009 C 
ATOM     35  C   UNL     1      -4.164  -2.809  24.038  0.00  0.00    +0.001 C 
ATOM     36  C   UNL     1      -4.289  -2.038  23.772  0.00  0.00    +0.009 C 
ENDBRANCH  31  33
BRANCH   2   3
ATOM      3  C   UNL     1      -3.595   3.540  25.237  0.00  0.00    +0.184 C 
ATOM      4  O   UNL     1      -4.182   4.116  25.310  0.00  0.00    -0.220 OA
ENDBRANCH   2   3
BRANCH  11  12
ATOM     12  C   UNL     1      -1.149   1.437  25.007  0.00  0.00    +0.093 C 
BRANCH  12  13
ATOM     13  C   UNL     1      -0.789   1.263  24.284  0.00  0.00    +0.242 C 
ATOM     14  O   UNL     1      -1.082   1.597  23.589  0.00  0.00    -0.273 OA
ATOM     15  N   UNL     1      -0.139   0.758  24.258  0.00  0.00    -0.204 NA
BRANCH  15  16
ATOM     16  C   UNL     1       0.220   0.584  23.536  0.00  0.00    +0.132 C 
BRANCH  16  17
ATOM     17  C   UNL     1       0.743  -0.051  23.477  0.00  0.00    +0.096 C 
BRANCH  17  18
ATOM     18  N   UNL     1       1.356  -0.030  22.927  0.00  0.00    -0.267 NA
ATOM     19  C   UNL     1       1.241  -0.333  22.168  0.00  0.00    +0.105 C 
ATOM     20  C   UNL     1       1.855  -0.312  21.616  0.00  0.00    +0.159 C 
ATOM     21  O   UNL     1       2.584   0.012  21.824  0.00  0.00    -0.351 OA
ATOM     22  C   UNL     1       2.700   0.315  22.583  0.00  0.00    +0.159 C 
ATOM     23  C   UNL     1       2.086   0.294  23.134  0.00  0.00    +0.105 C 
ENDBRANCH  17  18
ENDBRANCH  16  17
ENDBRANCH  15  16
ENDBRANCH  12  13
ENDBRANCH  11  12
TORSDOF 7
ENDMDL
MODEL 2
REMARK VINA RESULT:     -11.8      2.189      4.730
REMARK  Name = 
REMARK  7 active torsions:
REMARK  status: ('A' for Active; 'I' for Inactive)
REMARK    1  A    between atoms: C_2  and  C_3
REMARK    2  A    between atoms: C_11  and  C_12
REMARK    3  A    between atoms: C_12  and  C_13
REMARK    4  A    between atoms: N_15  and  C_16
REMARK    5  A    between atoms: C_16  and  C_17
REMARK    6  A    between atoms: C_17  and  N_18
REMARK    7  A    between atoms: C_31  and  C_33
REMARK                            x       y       z     vdW  Elec       q    Type
REMARK                         _______ _______ _______ _____ _____    ______ ____
ROOT
ATOM      1  C   UNL     1      -3.417  -2.937  24.057  0.00  0.00    +0.005 C 
ATOM      2  C   UNL     1      -3.227  -2.189  24.350  0.00  0.00    +0.059 C 
ATOM      5  C   UNL     1      -2.504  -2.572  24.452  0.00  0.00    +0.154 C 
ATOM      6  O   UNL     1      -2.419  -3.362  24.230  0.00  0.00    -0.223 OA
ATOM      7  C   UNL     1      -1.863  -2.164  24.776  0.00  0.00    +0.033 C 
ATOM      8  C   UNL     1      -1.947  -1.374  24.998  0.00  0.00    +0.003 C 
ATOM      9  C   UNL     1      -2.670  -0.992  24.896  0.00  0.00    +0.006 C 
ATOM     10  C   UNL     1      -2.031  -0.585  25.220  0.00  0.00    +0.000 C 
ATOM     11  C   UNL     1      -2.755  -0.202  25.118  0.00  0.00    +0.050 C 
ATOM     24  C   UNL     1      -3.478   0.181  25.016  0.00  0.00    +0.063 A 
ATOM     25  C   UNL     1      -4.118  -0.227  24.692  0.00  0.00    +0.023 A 
ATOM     26  C   UNL     1      -4.034  -1.017  24.470  0.00  0.00    +0.034 C 
ATOM     27  C   UNL     1      -3.311  -1.400  24.572  0.00  0.00    +0.010 C 
ATOM     28  S   UNL     1      -4.759   0.291  24.658  0.00  0.00    -0.054 S 
ATOM     29  C   UNL     1      -4.516   1.019  24.961  0.00  0.00    +0.185 A 
ATOM     30  N   UNL     1      -4.982   1.696  25.030  0.00  0.00    -0.154 NA
ATOM     31  C   UNL     1      -4.661   2.387  25.345  0.00  0.00    +0.247 C 
ATOM     32  O   UNL     1      -3.874   2.402  25.592  0.00  0.00    -0.273 OA
ATOM     37  N   UNL     1      -3.724   0.950  25.182  0.00  0.00    -0.227 NA
ENDROOT
BRANCH  31  33
ATOM     33  C   UNL     1      -5.128   3.064  25.415  0.00  0.00    +0.079 C 
ATOM     34  C   UNL     1      -5.024   3.865  25.241  0.00  0.00    +0.009 C 
ATOM     35  C   UNL     1      -5.787   4.022  25.513  0.00  0.00    +0.001 C 
ATOM     36  C   UNL     1      -5.890   3.222  25.686  0.00  0.00    +0.009 C 
ENDBRANCH  31  33
BRANCH   2   3
ATOM      3  C   UNL     1      -4.016  -2.067  24.146  0.00  0.00    +0.184 C 
ATOM      4  O   UNL     1      -4.446  -2.668  23.778  0.00  0.00    -0.220 OA
ENDBRANCH   2   3
BRANCH  11  12
ATOM     12  C   UNL     1      -2.115   0.206  25.442  0.00  0.00    +0.093 C 
BRANCH  12  13
ATOM     13  C   UNL     1      -1.726   0.784  24.999  0.00  0.00    +0.242 C 
ATOM     14  O   UNL     1      -1.727   0.741  24.175  0.00  0.00    -0.273 OA
ATOM     15  N   UNL     1      -1.336   1.402  25.379  0.00  0.00    -0.204 NA
BRANCH  15  16
ATOM     16  C   UNL     1      -0.948   1.980  24.937  0.00  0.00    +0.132 C 
BRANCH  16  17
ATOM     17  C   UNL     1      -0.539   2.587  25.318  0.00  0.00    +0.096 C 
BRANCH  17  18
ATOM     18  N   UNL     1      -0.621   3.365  25.060  0.00  0.00    -0.267 NA
ATOM     19  C   UNL     1      -1.123   3.883  25.460  0.00  0.00    +0.105 C 
ATOM     20  C   UNL     1      -1.206   4.662  25.201  0.00  0.00    +0.159 C 
ATOM     21  O   UNL     1      -0.785   4.924  24.542  0.00  0.00    -0.351 OA
ATOM     22  C   UNL     1      -0.282   4.406  24.140  0.00  0.00    +0.159 C 
ATOM     23  C   UNL     1      -0.200   3.627  24.400  0.00  0.00    +0.105 C 
ENDBRANCH  17  18
ENDBRANCH  16  17
ENDBRANCH  15  16
ENDBRANCH  12  13
ENDBRANCH  11  12
TORSDOF 7
ENDMDL
MODEL 3
REMARK VINA RESULT:     -11.2      1.304      4.108
REMARK  Name = 
REMARK  7 active torsions:
REMARK  status: ('A' for Active; 'I' for Inactive)
REMARK    1  A    between atoms: C_2  and  C_3
REMARK    2  A    between atoms: C_11  and  C_12
REMARK    3  A    between atoms: C_12  and  C_13
REMARK    4  A    between atoms: N_15  and  C_16
REMARK    5  A    between atoms: C_16  and  C_17
REMARK    6  A    between atoms: C_17  and  N_18
REMARK    7  A    between atoms: C_31  and  C_33
REMARK                            x       y       z     vdW  Elec       q    Type
REMARK                         _______ _______ _______ _____ _____    ______ ____
ROOT
ATOM      1  C   UNL     1      -3.994  -1.990  24.446  0.00  0.00    +0.005 C 
ATOM      2  C   UNL     1      -3.335  -1.499  24.515  0.00  0.00    +0.059 C 
ATOM      5  C   UNL     1      -2.962  -2.232  24.457  0.00  0.00    +0.154 C 
ATOM      6  O   UNL     1      -3.412  -2.919  24.376  0.00  0.00    -0.223 OA
ATOM      7  C   UNL     1      -2.138  -2.279  24.480  0.00  0.00    +0.033 C 
ATOM      8  C   UNL     1      -1.688  -1.592  24.561  0.00  0.00    +0.003 C 
ATOM      9  C   UNL     1      -2.061  -0.859  24.619  0.00  0.00    +0.006 C 
ATOM     10  C   UNL     1      -1.239  -0.906  24.642  0.00  0.00    +0.000 C 
ATOM     11  C   UNL     1      -1.612  -0.172  24.701  0.00  0.00    +0.050 C 
ATOM     24  C   UNL     1      -1.984   0.561  24.759  0.00  0.00    +0.063 A 
ATOM     25  C   UNL     1      -2.809   0.608  24.736  0.00  0.00    +0.023 A 
ATOM     26  C   UNL     1      -3.258  -0.079  24.655  0.00  0.00    +0.034 C 
ATOM     27  C   UNL     1      -2.886  -0.813  24.596  0.00  0.00    +0.010 C 
ATOM     28  S   UNL     1      -3.020   1.402  24.805  0.00  0.00    -0.054 S 
ATOM     29  C   UNL     1      -2.328   1.846  24.871  0.00  0.00    +0.185 A 
ATOM     30  N   UNL     1      -2.284   2.666  24.951  0.00  0.00    -0.154 NA
ATOM     31  C   UNL     1      -1.549   3.035  25.011  0.00  0.00    +0.247 C 
ATOM     32  O   UNL     1      -0.857   2.585  24.991  0.00  0.00    -0.273 OA
ATOM     37  N   UNL     1      -1.689   1.326  24.842  0.00  0.00    -0.227 NA
ENDROOT
BRANCH  31  33
ATOM     33  C   UNL     1      -1.504   3.855  25.092  0.00  0.00    +0.079 C 
ATOM     34  C   UNL     1      -0.927   4.426  24.942  0.00  0.00    +0.009 C 
ATOM     35  C   UNL     1      -1.442   5.015  25.205  0.00  0.00    +0.001 C 
ATOM     36  C   UNL     1      -2.018   4.444  25.355  0.00  0.00    +0.009 C 
ENDBRANCH  31  33
BRANCH   2   3
ATOM      3  C   UNL     1      -3.937  -0.936  24.549  0.00  0.00    +0.184 C 
ATOM      4  O   UNL     1      -4.710  -1.145  24.347  0.00  0.00    -0.220 OA
ENDBRANCH   2   3
BRANCH  11  12
ATOM     12  C   UNL     1      -0.788  -0.219  24.724  0.00  0.00    +0.093 C 
BRANCH  12  13
ATOM     13  C   UNL     1      -0.345  -0.038  24.050  0.00  0.00    +0.242 C 
ATOM     14  O   UNL     1      -0.721   0.047  23.321  0.00  0.00    -0.273 OA
ATOM     15  N   UNL     1       0.471   0.056  24.108  0.00  0.00    -0.204 NA
BRANCH  15  16
ATOM     16  C   UNL     1       0.914   0.237  23.436  0.00  0.00    +0.132 C 
BRANCH  16  17
ATOM     17  C   UNL     1       1.597   0.694  23.502  0.00  0.00    +0.096 C 
BRANCH  17  18
ATOM     18  N   UNL     1       2.230   0.566  22.989  0.00  0.00    -0.267 NA
ATOM     19  C   UNL     1       2.137   0.077  22.331  0.00  0.00    +0.105 C 
ATOM     20  C   UNL     1       2.770  -0.051  21.817  0.00  0.00    +0.159 C 
ATOM     21  O   UNL     1       3.497   0.310  21.962  0.00  0.00    -0.351 OA
ATOM     22  C   UNL     1       3.591   0.800  22.620  0.00  0.00    +0.159 C 
ATOM     23  C   UNL     1       2.958   0.928  23.134  0.00  0.00    +0.105 C 
ENDBRANCH  17  18
ENDBRANCH  16  17
ENDBRANCH  15  16
ENDBRANCH  12  13
ENDBRANCH  11  12
TORSDOF 7
ENDMDL
MODEL 4
REMARK VINA RESULT:     -11.0      2.185      5.975
REMARK  Name = 
REMARK  7 active torsions:
REMARK  status: ('A' for Active; 'I' for Inactive)
REMARK    1  A    between atoms: C_2  and  C_3
REMARK    2  A    between atoms: C_11  and  C_12
REMARK    3  A    between atoms: C_12  and  C_13
REMARK    4  A    between atoms: N_15  and  C_16
REMARK    5  A    between atoms: C_16  and  C_17
REMARK    6  A    between atoms: C_17  and  N_18
REMARK    7  A    between atoms: C_31  and  C_33
REMARK                            x       y       z     vdW  Elec       q    Type
REMARK                         _______ _______ _______ _____ _____    ______ ____
ROOT
ATOM      1  C   UNL     1      -0.926  -2.523  25.008  0.00  0.00    +0.005 C 
ATOM      2  C   UNL     1      -1.354  -1.836  24.849  0.00  0.00    +0.059 C 
ATOM      5  C   UNL     1      -1.906  -2.404  24.620  0.00  0.00    +0.154 C 
ATOM      6  O   UNL     1      -1.722  -3.206  24.681  0.00  0.00    -0.223 OA
ATOM      7  C   UNL     1      -2.643  -2.171  24.331  0.00  0.00    +0.033 C 
ATOM      8  C   UNL     1      -2.827  -1.369  24.270  0.00  0.00    +0.003 C 
ATOM      9  C   UNL     1      -2.276  -0.801  24.498  0.00  0.00    +0.006 C 
ATOM     10  C   UNL     1      -3.011  -0.568  24.209  0.00  0.00    +0.000 C 
ATOM     11  C   UNL     1      -2.459   0.001  24.438  0.00  0.00    +0.050 C 
ATOM     24  C   UNL     1      -1.908   0.570  24.666  0.00  0.00    +0.063 A 
ATOM     25  C   UNL     1      -1.170   0.336  24.956  0.00  0.00    +0.023 A 
ATOM     26  C   UNL     1      -0.986  -0.465  25.016  0.00  0.00    +0.034 C 
ATOM     27  C   UNL     1      -1.538  -1.034  24.788  0.00  0.00    +0.010 C 
ATOM     28  S   UNL     1      -0.741   1.017  25.137  0.00  0.00    -0.054 S 
ATOM     29  C   UNL     1      -1.212   1.671  24.960  0.00  0.00    +0.185 A 
ATOM     30  N   UNL     1      -0.999   2.462  25.056  0.00  0.00    -0.154 NA
ATOM     31  C   UNL     1      -1.531   3.059  24.854  0.00  0.00    +0.247 C 
ATOM     32  O   UNL     1      -2.275   2.866  24.555  0.00  0.00    -0.273 OA
ATOM     37  N   UNL     1      -1.932   1.394  24.669  0.00  0.00    -0.227 NA
ENDROOT
BRANCH  31  33
ATOM     33  C   UNL     1      -1.318   3.850  24.951  0.00  0.00    +0.079 C 
ATOM     34  C   UNL     1      -0.678   4.316  24.717  0.00  0.00    +0.009 C 
ATOM     35  C   UNL     1      -1.018   4.970  25.088  0.00  0.00    +0.001 C 
ATOM     36  C   UNL     1      -1.657   4.505  25.322  0.00  0.00    +0.009 C 
ENDBRANCH  31  33
BRANCH   2   3
ATOM      3  C   UNL     1      -0.653  -1.506  25.132  0.00  0.00    +0.184 C 
ATOM      4  O   UNL     1      -0.040  -1.996  25.386  0.00  0.00    -0.220 OA
ENDBRANCH   2   3
BRANCH  11  12
ATOM     12  C   UNL     1      -3.196   0.234  24.148  0.00  0.00    +0.093 C 
BRANCH  12  13
ATOM     13  C   UNL     1      -3.781   0.495  24.670  0.00  0.00    +0.242 C 
ATOM     14  O   UNL     1      -3.791   0.219  25.447  0.00  0.00    -0.273 OA
ATOM     15  N   UNL     1      -4.353   1.029  24.413  0.00  0.00    -0.204 NA
BRANCH  15  16
ATOM     16  C   UNL     1      -4.938   1.289  24.934  0.00  0.00    +0.132 C 
BRANCH  16  17
ATOM     17  C   UNL     1      -5.464   1.881  24.702  0.00  0.00    +0.096 C 
BRANCH  17  18
ATOM     18  N   UNL     1      -5.622   2.513  25.207  0.00  0.00    -0.267 NA
ATOM     19  C   UNL     1      -6.104   2.404  25.867  0.00  0.00    +0.105 C 
ATOM     20  C   UNL     1      -6.263   3.036  26.373  0.00  0.00    +0.159 C 
ATOM     21  O   UNL     1      -5.938   3.779  26.218  0.00  0.00    -0.351 OA
ATOM     22  C   UNL     1      -5.456   3.889  25.557  0.00  0.00    +0.159 C 
ATOM     23  C   UNL     1      -5.298   3.256  25.052  0.00  0.00    +0.105 C 
ENDBRANCH  17  18
ENDBRANCH  16  17
ENDBRANCH  15  16
ENDBRANCH  12  13
ENDBRANCH  11  12
TORSDOF 7
ENDMDL
MODEL 5
REMARK VINA RESULT:     -10.0      1.311      3.877
REMARK  Name = 
REMARK  7 active torsions:
REMARK  status: ('A' for Active; 'I' for Inactive)
REMARK    1  A    between atoms: C_2  and  C_3
REMARK    2  A    between atoms: C_11  and  C_12
REMARK    3  A    between atoms: C_12  and  C_13
REMARK    4  A    between atoms: N_15  and  C_16
REMARK    5  A    between atoms: C_16  and  C_17
REMARK    6  A    between atoms: C_17  and  N_18
REMARK    7  A    between atoms: C_31  and  C_33
REMARK                            x       y       z     vdW  Elec       q    Type
REMARK                         _______ _______ _______ _____ _____    ______ ____
ROOT
ATOM      1  C   UNL     1      -4.122   4.411  26.079  0.00  0.00    +0.005 C 
ATOM      2  C   UNL     1      -3.932   3.745  25.632  0.00  0.00    +0.059 C 
ATOM      5  C   UNL     1      -4.755   3.707  25.603  0.00  0.00    +0.154 C 
ATOM      6  O   UNL     1      -5.209   4.280  25.986  0.00  0.00    -0.223 OA
ATOM      7  C   UNL     1      -5.126   3.095  25.190  0.00  0.00    +0.033 C 
ATOM      8  C   UNL     1      -4.673   2.523  24.807  0.00  0.00    +0.003 C 
ATOM      9  C   UNL     1      -3.851   2.560  24.836  0.00  0.00    +0.006 C 
ATOM     10  C   UNL     1      -4.221   1.950  24.424  0.00  0.00    +0.000 C 
ATOM     11  C   UNL     1      -3.397   1.988  24.453  0.00  0.00    +0.050 C 
ATOM     24  C   UNL     1      -2.574   2.025  24.481  0.00  0.00    +0.063 A 
ATOM     25  C   UNL     1      -2.203   2.637  24.894  0.00  0.00    +0.023 A 
ATOM     26  C   UNL     1      -2.655   3.209  25.277  0.00  0.00    +0.034 C 
ATOM     27  C   UNL     1      -3.479   3.172  25.249  0.00  0.00    +0.010 C 
ATOM     28  S   UNL     1      -1.387   2.531  24.826  0.00  0.00    -0.054 S 
ATOM     29  C   UNL     1      -1.254   1.855  24.373  0.00  0.00    +0.185 A 
ATOM     30  N   UNL     1      -0.517   1.546  24.168  0.00  0.00    -0.154 NA
ATOM     31  C   UNL     1      -0.469   0.863  23.709  0.00  0.00    +0.247 C 
ATOM     32  O   UNL     1      -1.159   0.488  23.454  0.00  0.00    -0.273 OA
ATOM     37  N   UNL     1      -1.987   1.543  24.160  0.00  0.00    -0.227 NA
ENDROOT
BRANCH  31  33
ATOM     33  C   UNL     1       0.268   0.554  23.504  0.00  0.00    +0.079 C 
ATOM     34  C   UNL     1       0.540  -0.179  23.238  0.00  0.00    +0.009 C 
ATOM     35  C   UNL     1       1.310   0.117  23.215  0.00  0.00    +0.001 C 
ATOM     36  C   UNL     1       1.038   0.848  23.481  0.00  0.00    +0.009 C 
ENDBRANCH  31  33
BRANCH   2   3
ATOM      3  C   UNL     1      -3.175   4.014  25.816  0.00  0.00    +0.184 C 
ATOM      4  O   UNL     1      -3.078   4.692  26.277  0.00  0.00    -0.220 OA
ENDBRANCH   2   3
BRANCH  11  12
ATOM     12  C   UNL     1      -3.768   1.377  24.040  0.00  0.00    +0.093 C 
BRANCH  12  13
ATOM     13  C   UNL     1      -3.829   0.627  24.380  0.00  0.00    +0.242 C 
ATOM     14  O   UNL     1      -3.837   0.546  25.201  0.00  0.00    -0.273 OA
ATOM     15  N   UNL     1      -3.882  -0.040  23.899  0.00  0.00    -0.204 NA
BRANCH  15  16
ATOM     16  C   UNL     1      -3.943  -0.790  24.238  0.00  0.00    +0.132 C 
BRANCH  16  17
ATOM     17  C   UNL     1      -3.799  -1.462  23.783  0.00  0.00    +0.096 C 
BRANCH  17  18
ATOM     18  N   UNL     1      -3.429  -2.117  24.121  0.00  0.00    -0.267 NA
ATOM     19  C   UNL     1      -3.882  -2.719  24.459  0.00  0.00    +0.105 C 
ATOM     20  C   UNL     1      -3.512  -3.374  24.797  0.00  0.00    +0.159 C 
ATOM     21  O   UNL     1      -2.689  -3.429  24.798  0.00  0.00    -0.351 OA
ATOM     22  C   UNL     1      -2.235  -2.827  24.460  0.00  0.00    +0.159 C 
ATOM     23  C   UNL     1      -2.606  -2.171  24.122  0.00  0.00    +0.105 C 
ENDBRANCH  17  18
ENDBRANCH  16  17
ENDBRANCH  15  16
ENDBRANCH  12  13
ENDBRANCH  11  12
TORSDOF 7
ENDMDL
MODEL 6
REMARK VINA RESULT:      -9.8      1.634      5.213
REMARK  Name = 
REMARK  7 active torsions:
REMARK  status: ('A' for Active; 'I' for Inactive)
REMARK    1  A    between atoms: C_2  and  C_3
REMARK    2  A    between atoms: C_11  and  C_12
REMARK    3  A    between atoms: C_12  and  C_13
REMARK    4  A    between atoms: N_15  and  C_16
REMARK    5  A    between atoms: C_16  and  C_17
REMARK    6  A    between atoms: C_17  and  N_18
REMARK    7  A    between atoms: C_31  and  C_33
REMARK                            x       y       z     vdW  Elec       q    Type
REMARK                         _______ _______ _______ _____ _____    ______ ____
ROOT
ATOM      1  C   UNL     1      -3.310  -2.535  24.802  0.00  0.00    +0.005 C 
ATOM      2  C   UNL     1      -2.762  -1.924  24.885  0.00  0.00    +0.059 C 
ATOM      5  C   UNL     1      -3.293  -1.721  25.481  0.00  0.00    +0.154 C 
ATOM      6  O   UNL     1      -3.960  -2.188  25.617  0.00  0.00    -0.223 OA
ATOM      7  C   UNL     1      -3.158  -1.050  25.944  0.00  0.00    +0.033 C 
ATOM      8  C   UNL     1      -2.492  -0.584  25.810  0.00  0.00    +0.003 C 
ATOM      9  C   UNL     1      -1.960  -0.787  25.213  0.00  0.00    +0.006 C 
ATOM     10  C   UNL     1      -1.825  -0.118  25.675  0.00  0.00    +0.000 C 
ATOM     11  C   UNL     1      -1.293  -0.321  25.078  0.00  0.00    +0.050 C 
ATOM     24  C   UNL     1      -0.761  -0.523  24.481  0.00  0.00    +0.063 A 
ATOM     25  C   UNL     1      -0.897  -1.194  24.018  0.00  0.00    +0.023 A 
ATOM     26  C   UNL     1      -1.563  -1.660  24.153  0.00  0.00    +0.034 C 
ATOM     27  C   UNL     1      -2.095  -1.458  24.750  0.00  0.00    +0.010 C 
ATOM     28  S   UNL     1      -0.280  -1.256  23.474  0.00  0.00    -0.054 S 
ATOM     29  C   UNL     1       0.236  -0.625  23.600  0.00  0.00    +0.185 A 
ATOM     30  N   UNL     1       0.929  -0.472  23.177  0.00  0.00    -0.154 NA
ATOM     31  C   UNL     1       1.391   0.183  23.366  0.00  0.00    +0.247 C 
ATOM     32  O   UNL     1       1.162   0.688  23.978  0.00  0.00    -0.273 OA
ATOM     37  N   UNL     1      -0.061  -0.172  24.222  0.00  0.00    -0.227 NA
ENDROOT
BRANCH  31  33
ATOM     33  C   UNL     1       2.083   0.335  22.944  0.00  0.00    +0.079 C 
ATOM     34  C   UNL     1       2.380   0.106  22.208  0.00  0.00    +0.009 C 
ATOM     35  C   UNL     1       3.062   0.551  22.346  0.00  0.00    +0.001 C 
ATOM     36  C   UNL     1       2.765   0.779  23.080  0.00  0.00    +0.009 C 
ENDBRANCH  31  33
BRANCH   2   3
ATOM      3  C   UNL     1      -2.420  -2.339  24.259  0.00  0.00    +0.184 C 
ATOM      4  O   UNL     1      -2.788  -3.017  23.965  0.00  0.00    -0.220 OA
ENDBRANCH   2   3
BRANCH  11  12
ATOM     12  C   UNL     1      -1.158   0.349  25.540  0.00  0.00    +0.093 C 
BRANCH  12  13
ATOM     13  C   UNL     1      -1.333   1.099  25.242  0.00  0.00    +0.242 C 
ATOM     14  O   UNL     1      -1.788   1.174  24.558  0.00  0.00    -0.273 OA
ATOM     15  N   UNL     1      -1.052   1.771  25.626  0.00  0.00    -0.204 NA
BRANCH  15  16
ATOM     16  C   UNL     1      -1.227   2.521  25.329  0.00  0.00    +0.132 C 
BRANCH  16  17
ATOM     17  C   UNL     1      -0.921   3.193  25.697  0.00  0.00    +0.096 C 
BRANCH  17  18
ATOM     18  N   UNL     1      -1.165   3.942  25.455  0.00  0.00    -0.267 NA
ATOM     19  C   UNL     1      -1.921   4.212  25.647  0.00  0.00    +0.105 C 
ATOM     20  C   UNL     1      -2.166   4.962  25.405  0.00  0.00    +0.159 C 
ATOM     21  O   UNL     1      -1.655   5.443  24.971  0.00  0.00    -0.351 OA
ATOM     22  C   UNL     1      -0.899   5.173  24.778  0.00  0.00    +0.159 C 
ATOM     23  C   UNL     1      -0.654   4.422  25.020  0.00  0.00    +0.105 C 
ENDBRANCH  17  18
ENDBRANCH  16  17
ENDBRANCH  15  16
ENDBRANCH  12  13
ENDBRANCH  11  12
TORSDOF 7
ENDMDL
