MODEL 1
REMARK VINA RESULT:     -11.6      0.000      0.000
REMARK  Name = 
REMARK  4 active torsions:
REMARK  status: ('A' for Active; 'I' for Inactive)
REMARK    1  A    between atoms: O_2  and  C_3
REMARK    2  A    between atoms: C_5  and  C_9
REMARK    3  A    between atoms: N_11  and  C_12
REMARK    4  A    between atoms: C_18  and  C_19
REMARK                            x       y       z     vdW  Elec       q    Type
REMARK                         _______ _______ _______ _____ _____    ______ ____
ROOT
ATOM     12  C   UNL     1      -4.370   1.376  24.537  0.00  0.00    +0.133 C 
ATOM     13  C   UNL     1      -5.070   1.603  24.908  0.00  0.00    +0.202 C 
ATOM     14  O   UNL     1      -5.693   1.105  25.118  0.00  0.00    -0.219 OA
ATOM     15  C   UNL     1      -5.039   2.419  25.031  0.00  0.00    +0.184 C 
ATOM     16  O   UNL     1      -5.626   2.878  25.387  0.00  0.00    -0.220 OA
ATOM     17  C   UNL     1      -4.320   2.695  24.737  0.00  0.00    +0.042 C 
ATOM     18  C   UNL     1      -3.905   2.049  24.431  0.00  0.00    +0.049 C 
ENDROOT
BRANCH  18  19
ATOM     19  C   UNL     1      -3.158   2.076  24.082  0.00  0.00    -0.002 A 
ATOM     20  C   UNL     1      -3.084   2.045  23.262  0.00  0.00    -0.001 A 
ATOM     21  C   UNL     1      -2.338   2.071  22.913  0.00  0.00    +0.020 A 
ATOM     22  C   UNL     1      -1.664   2.128  23.386  0.00  0.00    +0.099 A 
ATOM     23  N   UNL     1      -1.737   2.158  24.207  0.00  0.00    -0.243 NA
ATOM     24  C   UNL     1      -2.484   2.132  24.556  0.00  0.00    +0.095 A 
ENDBRANCH  18  19
BRANCH  12  11
ATOM      9  C   UNL     1      -4.205  -0.006  24.860  0.00  0.00    +0.265 C 
ATOM     10  O   UNL     1      -4.445   0.146  25.634  0.00  0.00    -0.268 OA
ATOM     11  N   UNL     1      -4.168   0.608  24.312  0.00  0.00    -0.200 NA
BRANCH   9   5
ATOM      3  C   UNL     1      -3.142  -1.908  24.741  0.00  0.00    +0.139 A 
ATOM      4  C   UNL     1      -3.344  -1.142  24.966  0.00  0.00    +0.041 A 
ATOM      5  C   UNL     1      -4.004  -0.774  24.635  0.00  0.00    +0.058 A 
ATOM      6  C   UNL     1      -4.461  -1.174  24.078  0.00  0.00    +0.005 A 
ATOM      7  C   UNL     1      -4.260  -1.941  23.852  0.00  0.00    +0.003 A 
ATOM      8  C   UNL     1      -3.600  -2.309  24.184  0.00  0.00    +0.037 A 
BRANCH   3   2
ATOM      1  C   UNL     1      -1.800  -2.386  24.622  0.00  0.00    +0.252 C 
ATOM      2  O   UNL     1      -2.482  -2.276  25.073  0.00  0.00    -0.471 OA
ENDBRANCH   3   2
ENDBRANCH   9   5
ENDBRANCH  12  11
TORSDOF 4
ENDMDL
MODEL 2
REMARK VINA RESULT:     -10.7      1.524      2.485
REMARK  Name = 
REMARK  4 active torsions:
REMARK  status: ('A' for Active; 'I' for Inactive)
REMARK    1  A    between atoms: O_2  and  C_3
REMARK    2  A    between atoms: C_5  and  C_9
REMARK    3  A    between atoms: N_11  and  C_12
REMARK    4  A    between atoms: C_18  and  C_19
REMARK                            x       y       z     vdW  Elec       q    Type
REMARK                         _______ _______ _______ _____ _____    ______ ____
ROOT
ATOM     12  C   UNL     1      -3.811   1.639  24.051  0.00  0.00    +0.133 C 
ATOM     13  C   UNL     1      -3.259   1.878  23.489  0.00  0.00    +0.202 C 
ATOM     14  O   UNL     1      -2.718   1.391  23.100  0.00  0.00    -0.219 OA
ATOM     15  C   UNL     1      -3.341   2.692  23.381  0.00  0.00    +0.184 C 
ATOM     16  O   UNL     1      -2.897   3.161  22.867  0.00  0.00    -0.220 OA
ATOM     17  C   UNL     1      -3.945   2.955  23.878  0.00  0.00    +0.042 C 
ATOM     18  C   UNL     1      -4.236   2.303  24.293  0.00  0.00    +0.049 C 
ENDROOT
BRANCH  18  19
ATOM     19  C   UNL     1      -4.844   2.316  24.850  0.00  0.00    -0.002 A 
ATOM     20  C   UNL     1      -5.574   1.978  24.673  0.00  0.00    -0.001 A 
ATOM     21  C   UNL     1      -6.182   1.992  25.230  0.00  0.00    +0.020 A 
ATOM     22  C   UNL     1      -6.059   2.344  25.966  0.00  0.00    +0.099 A 
ATOM     23  N   UNL     1      -5.328   2.682  26.144  0.00  0.00    -0.243 NA
ATOM     24  C   UNL     1      -4.720   2.669  25.586  0.00  0.00    +0.095 A 
ENDBRANCH  18  19
BRANCH  12  11
ATOM      9  C   UNL     1      -3.274   0.425  24.581  0.00  0.00    +0.265 C 
ATOM     10  O   UNL     1      -2.517   0.752  24.562  0.00  0.00    -0.268 OA
ATOM     11  N   UNL     1      -3.921   0.867  24.326  0.00  0.00    -0.200 NA
BRANCH   9   5
ATOM      3  C   UNL     1      -3.772  -1.699  24.619  0.00  0.00    +0.139 A 
ATOM      4  C   UNL     1      -3.663  -0.930  24.345  0.00  0.00    +0.041 A 
ATOM      5  C   UNL     1      -3.383  -0.345  24.856  0.00  0.00    +0.058 A 
ATOM      6  C   UNL     1      -3.213  -0.532  25.641  0.00  0.00    +0.005 A 
ATOM      7  C   UNL     1      -3.323  -1.301  25.915  0.00  0.00    +0.003 A 
ATOM      8  C   UNL     1      -3.602  -1.886  25.405  0.00  0.00    +0.037 A 
BRANCH   3   2
ATOM      1  C   UNL     1      -3.686  -3.022  24.086  0.00  0.00    +0.252 C 
ATOM      2  O   UNL     1      -4.052  -2.284  24.108  0.00  0.00    -0.471 OA
ENDBRANCH   3   2
ENDBRANCH   9   5
ENDBRANCH  12  11
TORSDOF 4
ENDMDL
MODEL 3
REMARK VINA RESULT:     -10.7      2.093      3.934
REMARK  Name = 
REMARK  4 active torsions:
REMARK  status: ('A' for Active; 'I' for Inactive)
REMARK    1  A    between atoms: O_2  and  C_3
REMARK    2  A    between atoms: C_5  and  C_9
REMARK    3  A    between atoms: N_11  and  C_12
REMARK    4  A    between atoms: C_18  and  C_19
REMARK                            x       y       z     vdW  Elec       q    Type
REMARK                         _______ _______ _______ _____ _____    ______ ____
ROOT
ATOM     12  C   UNL     1      -4.164   2.941  25.155  0.00  0.00    +0.133 C 
ATOM     13  C   UNL     1      -4.740   3.449  25.454  0.00  0.00    +0.202 C 
ATOM     14  O   UNL     1      -4.626   4.235  25.678  0.00  0.00    -0.219 OA
ATOM     15  C   UNL     1      -5.452   3.033  25.491  0.00  0.00    +0.184 C 
ATOM     16  O   UNL     1      -6.174   3.330  25.758  0.00  0.00    -0.220 OA
ATOM     17  C   UNL     1      -5.315   2.268  25.214  0.00  0.00    +0.042 C 
ATOM     18  C   UNL     1      -4.518   2.212  25.006  0.00  0.00    +0.049 C 
ENDROOT
BRANCH  18  19
ATOM     19  C   UNL     1      -4.144   1.542  24.702  0.00  0.00    -0.002 A 
ATOM     20  C   UNL     1      -4.024   0.882  25.182  0.00  0.00    -0.001 A 
ATOM     21  C   UNL     1      -3.650   0.213  24.878  0.00  0.00    +0.020 A 
ATOM     22  C   UNL     1      -3.395   0.204  24.094  0.00  0.00    +0.099 A 
ATOM     23  N   UNL     1      -3.514   0.864  23.613  0.00  0.00    -0.243 NA
ATOM     24  C   UNL     1      -3.889   1.533  23.917  0.00  0.00    +0.095 A 
ENDBRANCH  18  19
BRANCH  12  11
ATOM      9  C   UNL     1      -2.935   3.506  25.617  0.00  0.00    +0.265 C 
ATOM     10  O   UNL     1      -3.292   3.694  26.336  0.00  0.00    -0.268 OA
ATOM     11  N   UNL     1      -3.370   3.130  25.026  0.00  0.00    -0.200 NA
BRANCH   9   5
ATOM      3  C   UNL     1      -0.757   3.366  25.608  0.00  0.00    +0.139 A 
ATOM      4  C   UNL     1      -1.549   3.178  25.736  0.00  0.00    +0.041 A 
ATOM      5  C   UNL     1      -2.142   3.695  25.488  0.00  0.00    +0.058 A 
ATOM      6  C   UNL     1      -1.942   4.400  25.111  0.00  0.00    +0.005 A 
ATOM      7  C   UNL     1      -1.150   4.589  24.983  0.00  0.00    +0.003 A 
ATOM      8  C   UNL     1      -0.557   4.072  25.231  0.00  0.00    +0.037 A 
BRANCH   3   2
ATOM      1  C   UNL     1       0.079   2.233  25.364  0.00  0.00    +0.252 C 
ATOM      2  O   UNL     1      -0.164   2.849  25.856  0.00  0.00    -0.471 OA
ENDBRANCH   3   2
ENDBRANCH   9   5
ENDBRANCH  12  11
TORSDOF 4
ENDMDL
MODEL 4
REMARK VINA RESULT:     -10.6      1.689      3.303
REMARK  Name = 
REMARK  4 active torsions:
REMARK  status: ('A' for Active; 'I' for Inactive)
REMARK    1  A    between atoms: O_2  and  C_3
REMARK    2  A    between atoms: C_5  and  C_9
REMARK    3  A    between atoms: N_11  and  C_12
REMARK    4  A    between atoms: C_18  and  C_19
REMARK                            x       y       z     vdW  Elec       q    Type
REMARK                         _______ _______ _______ _____ _____    ______ ____
ROOT
ATOM     12  C   UNL     1      -3.794   1.086  24.906  0.00  0.00    +0.133 C 
ATOM     13  C   UNL     1      -4.263   1.763  24.872  0.00  0.00    +0.202 C 
ATOM     14  O   UNL     1      -3.993   2.542  24.899  0.00  0.00    -0.219 OA
ATOM     15  C   UNL     1      -5.050   1.525  24.809  0.00  0.00    +0.184 C 
ATOM     16  O   UNL     1      -5.706   2.024  24.760  0.00  0.00    -0.220 OA
ATOM     17  C   UNL     1      -5.068   0.700  24.802  0.00  0.00    +0.042 C 
ATOM     18  C   UNL     1      -4.291   0.428  24.862  0.00  0.00    +0.049 C 
ENDROOT
BRANCH  18  19
ATOM     19  C   UNL     1      -4.054  -0.362  24.876  0.00  0.00    -0.002 A 
ATOM     20  C   UNL     1      -4.081  -0.814  24.187  0.00  0.00    -0.001 A 
ATOM     21  C   UNL     1      -3.844  -1.603  24.202  0.00  0.00    +0.020 A 
ATOM     22  C   UNL     1      -3.580  -1.942  24.906  0.00  0.00    +0.099 A 
ATOM     23  N   UNL     1      -3.553  -1.490  25.596  0.00  0.00    -0.243 NA
ATOM     24  C   UNL     1      -3.790  -0.700  25.582  0.00  0.00    +0.095 A 
ENDBRANCH  18  19
BRANCH  12  11
ATOM      9  C   UNL     1      -2.507   1.498  24.443  0.00  0.00    +0.265 C 
ATOM     10  O   UNL     1      -2.863   1.946  23.850  0.00  0.00    -0.268 OA
ATOM     11  N   UNL     1      -2.971   1.068  24.971  0.00  0.00    -0.200 NA
BRANCH   9   5
ATOM      3  C   UNL     1      -0.413   1.053  24.016  0.00  0.00    +0.139 A 
ATOM      4  C   UNL     1      -1.235   1.070  23.951  0.00  0.00    +0.041 A 
ATOM      5  C   UNL     1      -1.684   1.480  24.508  0.00  0.00    +0.058 A 
ATOM      6  C   UNL     1      -1.311   1.873  25.130  0.00  0.00    +0.005 A 
ATOM      7  C   UNL     1      -0.489   1.855  25.195  0.00  0.00    +0.003 A 
ATOM      8  C   UNL     1      -0.040   1.445  24.638  0.00  0.00    +0.037 A 
BRANCH   3   2
ATOM      1  C   UNL     1       0.250  -0.143  23.598  0.00  0.00    +0.252 C 
ATOM      2  O   UNL     1       0.036   0.642  23.458  0.00  0.00    -0.471 OA
ENDBRANCH   3   2
ENDBRANCH   9   5
ENDBRANCH  12  11
TORSDOF 4
ENDMDL
MODEL 5
REMARK VINA RESULT:     -10.5      1.417      3.949
REMARK  Name = 
REMARK  4 active torsions:
REMARK  status: ('A' for Active; 'I' for Inactive)
REMARK    1  A    between atoms: O_2  and  C_3
REMARK    2  A    between atoms: C_5  and  C_9
REMARK    3  A    between atoms: N_11  and  C_12
REMARK    4  A    between atoms: C_18  and  C_19
REMARK                            x       y       z     vdW  Elec       q    Type
REMARK                         _______ _______ _______ _____ _____    ______ ____
ROOT
ATOM     12  C   UNL     1      -3.433  -1.093  24.629  0.00  0.00    +0.133 C 
ATOM     13  C   UNL     1      -3.968  -1.651  24.343  0.00  0.00    +0.202 C 
ATOM     14  O   UNL     1      -4.753  -1.509  24.133  0.00  0.00    -0.219 OA
ATOM     15  C   UNL     1      -3.581  -2.379  24.304  0.00  0.00    +0.184 C 
ATOM     16  O   UNL     1      -3.910  -3.091  24.048  0.00  0.00    -0.220 OA
ATOM     17  C   UNL     1      -2.806  -2.270  24.566  0.00  0.00    +0.042 C 
ATOM     18  C   UNL     1      -2.715  -1.474  24.767  0.00  0.00    +0.049 C 
ENDROOT
BRANCH  18  19
ATOM     19  C   UNL     1      -2.026  -1.124  25.055  0.00  0.00    -0.002 A 
ATOM     20  C   UNL     1      -1.964  -0.928  25.853  0.00  0.00    -0.001 A 
ATOM     21  C   UNL     1      -1.275  -0.578  26.140  0.00  0.00    +0.020 A 
ATOM     22  C   UNL     1      -0.647  -0.423  25.628  0.00  0.00    +0.099 A 
ATOM     23  N   UNL     1      -0.708  -0.619  24.829  0.00  0.00    -0.243 NA
ATOM     24  C   UNL     1      -1.397  -0.970  24.542  0.00  0.00    +0.095 A 
ENDBRANCH  18  19
BRANCH  12  11
ATOM      9  C   UNL     1      -3.887   0.171  24.142  0.00  0.00    +0.265 C 
ATOM     10  O   UNL     1      -4.030  -0.165  23.403  0.00  0.00    -0.268 OA
ATOM     11  N   UNL     1      -3.589  -0.292  24.755  0.00  0.00    -0.200 NA
BRANCH   9   5
ATOM      3  C   UNL     1      -4.803   1.998  24.906  0.00  0.00    +0.139 A 
ATOM      4  C   UNL     1      -4.648   1.199  24.780  0.00  0.00    +0.041 A 
ATOM      5  C   UNL     1      -4.043   0.972  24.268  0.00  0.00    +0.058 A 
ATOM      6  C   UNL     1      -3.594   1.545  23.881  0.00  0.00    +0.005 A 
ATOM      7  C   UNL     1      -3.749   2.345  24.007  0.00  0.00    +0.003 A 
ATOM      8  C   UNL     1      -4.354   2.572  24.519  0.00  0.00    +0.037 A 
BRANCH   3   2
ATOM      1  C   UNL     1      -5.417   2.987  25.736  0.00  0.00    +0.252 C 
ATOM      2  O   UNL     1      -5.408   2.226  25.419  0.00  0.00    -0.471 OA
ENDBRANCH   3   2
ENDBRANCH   9   5
ENDBRANCH  12  11
TORSDOF 4
ENDMDL
MODEL 6
REMARK VINA RESULT:     -10.4      1.888      2.757
REMARK  Name = 
REMARK  4 active torsions:
REMARK  status: ('A' for Active; 'I' for Inactive)
REMARK    1  A    between atoms: O_2  and  C_3
REMARK    2  A    between atoms: C_5  and  C_9
REMARK    3  A    between atoms: N_11  and  C_12
REMARK    4  A    between atoms: C_18  and  C_19
REMARK                            x       y       z     vdW  Elec       q    Type
REMARK                         _______ _______ _______ _____ _____    ______ ____
ROOT
ATOM     12  C   UNL     1      -2.038   1.873  24.873  0.00  0.00    +0.133 C 
ATOM     13  C   UNL     1      -1.221   1.894  24.767  0.00  0.00    +0.202 C 
ATOM     14  O   UNL     1      -0.704   1.255  24.836  0.00  0.00    -0.219 OA
ATOM     15  C   UNL     1      -1.009   2.669  24.578  0.00  0.00    +0.184 C 
ATOM     16  O   UNL     1      -0.244   2.940  24.425  0.00  0.00    -0.220 OA
ATOM     17  C   UNL     1      -1.696   3.126  24.567  0.00  0.00    +0.042 C 
ATOM     18  C   UNL     1      -2.332   2.634  24.750  0.00  0.00    +0.049 C 
ENDROOT
BRANCH  18  19
ATOM     19  C   UNL     1      -3.123   2.863  24.801  0.00  0.00    -0.002 A 
ATOM     20  C   UNL     1      -3.578   2.933  24.117  0.00  0.00    -0.001 A 
ATOM     21  C   UNL     1      -4.368   3.162  24.168  0.00  0.00    +0.020 A 
ATOM     22  C   UNL     1      -4.704   3.322  24.904  0.00  0.00    +0.099 A 
ATOM     23  N   UNL     1      -4.250   3.252  25.589  0.00  0.00    -0.243 NA
ATOM     24  C   UNL     1      -3.459   3.023  25.538  0.00  0.00    +0.095 A 
ENDBRANCH  18  19
BRANCH  12  11
ATOM      9  C   UNL     1      -2.403   0.513  24.630  0.00  0.00    +0.265 C 
ATOM     10  O   UNL     1      -1.878   0.485  23.995  0.00  0.00    -0.268 OA
ATOM     11  N   UNL     1      -2.484   1.206  25.069  0.00  0.00    -0.200 NA
BRANCH   9   5
ATOM      3  C   UNL     1      -3.798  -1.157  24.462  0.00  0.00    +0.139 A 
ATOM      4  C   UNL     1      -3.353  -0.491  24.266  0.00  0.00    +0.041 A 
ATOM      5  C   UNL     1      -2.849  -0.153  24.825  0.00  0.00    +0.058 A 
ATOM      6  C   UNL     1      -2.792  -0.482  25.579  0.00  0.00    +0.005 A 
ATOM      7  C   UNL     1      -3.237  -1.147  25.774  0.00  0.00    +0.003 A 
ATOM      8  C   UNL     1      -3.741  -1.485  25.216  0.00  0.00    +0.037 A 
BRANCH   3   2
ATOM      1  C   UNL     1      -4.309  -2.313  23.793  0.00  0.00    +0.252 C 
ATOM      2  O   UNL     1      -4.303  -1.495  23.902  0.00  0.00    -0.471 OA
ENDBRANCH   3   2
ENDBRANCH   9   5
ENDBRANCH  12  11
TORSDOF 4
ENDMDL
