MODEL 1
REMARK VINA RESULT:     -11.7      0.000      0.000
REMARK  Name = 
REMARK  6 active torsions:
REMARK  status: ('A' for Active; 'I' for Inactive)
REMARK    1  A    between atoms: C_8  and  C_10
REMARK    2  A    between atoms: C_10  and  C_11
REMARK    3  A    between atoms: C_13  and  C_14
REMARK    4  A    between atoms: C_14  and  N_15
REMARK    5  A    between atoms: N_15  and  S_16
REMARK    6  A    between atoms: S_16  and  C_19
REMARK                            x       y       z     vdW  Elec       q    Type
REMARK                         _______ _______ _______ _____ _____    ______ ____
ROOT
ATOM     11  C   UNL     1      -4.524   3.016  25.274  0.00  0.00    +0.157 C 
ATOM     12  O   UNL     1      -4.209   2.266  25.139  0.00  0.00    -0.351 OA
ATOM     13  C   UNL     1      -4.835   1.731  25.094  0.00  0.00    +0.167 C 
ATOM     26  C   UNL     1      -5.537   2.150  25.201  0.00  0.00    +0.213 C 
ATOM     27  O   UNL     1      -6.298   1.830  25.198  0.00  0.00    -0.218 OA
ATOM     28  C   UNL     1      -5.346   2.944  25.312  0.00  0.00    +0.212 C 
ATOM     29  O   UNL     1      -5.881   3.559  25.439  0.00  0.00    -0.218 OA
ENDROOT
BRANCH  11  10
ATOM     10  C   UNL     1      -4.095   3.715  25.356  0.00  0.00    +0.117 C 
BRANCH  10   8
ATOM      1  C   UNL     1      -0.650   5.132  24.705  0.00  0.00    +0.000 C 
ATOM      2  C   UNL     1      -1.343   4.781  24.986  0.00  0.00    +0.003 C 
ATOM      3  C   UNL     1      -2.018   4.765  24.513  0.00  0.00    +0.022 C 
ATOM      4  C   UNL     1      -2.710   4.415  24.794  0.00  0.00    +0.093 C 
ATOM      5  N   UNL     1      -2.727   4.081  25.548  0.00  0.00    -0.279 N 
ATOM      6  C   UNL     1      -2.051   4.097  26.021  0.00  0.00    +0.093 C 
ATOM      7  C   UNL     1      -1.359   4.447  25.740  0.00  0.00    +0.022 C 
ATOM      8  C   UNL     1      -3.419   3.731  25.828  0.00  0.00    +0.228 C 
ATOM      9  O   UNL     1      -3.436   3.397  26.583  0.00  0.00    -0.275 OA
ENDBRANCH  10   8
ENDBRANCH  11  10
BRANCH  13  14
ATOM     14  C   UNL     1      -4.770   0.918  24.965  0.00  0.00    +0.148 C 
BRANCH  14  15
ATOM     15  N   UNL     1      -4.027   0.574  24.864  0.00  0.00    -0.075 NA
BRANCH  15  16
ATOM     16  S   UNL     1      -3.961  -0.238  24.738  0.00  0.00    +0.077 S 
ATOM     17  O   UNL     1      -4.083  -0.373  25.543  0.00  0.00    -0.152 OA
ATOM     18  O   UNL     1      -3.839  -0.103  23.933  0.00  0.00    -0.152 OA
BRANCH  16  19
ATOM     19  C   UNL     1      -3.896  -1.052  24.612  0.00  0.00    +0.124 A 
ATOM     20  C   UNL     1      -3.446  -1.513  25.127  0.00  0.00    +0.021 A 
ATOM     21  C   UNL     1      -3.381  -2.326  25.001  0.00  0.00    +0.013 A 
ATOM     22  C   UNL     1      -3.764  -2.677  24.360  0.00  0.00    +0.058 A 
ATOM     23 CL   UNL     1      -3.699  -3.490  24.235  0.00  0.00    -0.082 Cl
ATOM     24  C   UNL     1      -4.214  -2.215  23.845  0.00  0.00    +0.013 A 
ATOM     25  C   UNL     1      -4.280  -1.401  23.971  0.00  0.00    +0.021 A 
ENDBRANCH  16  19
ENDBRANCH  15  16
ENDBRANCH  14  15
ENDBRANCH  13  14
TORSDOF 6
ENDMDL
MODEL 2
REMARK VINA RESULT:     -10.9      2.153      5.423
REMARK  Name = 
REMARK  6 active torsions:
REMARK  status: ('A' for Active; 'I' for Inactive)
REMARK    1  A    between atoms: C_8  and  C_10
REMARK    2  A    between atoms: C_10  and  C_11
REMARK    3  A    between atoms: C_13  and  C_14
REMARK    4  A    between atoms: C_14  and  N_15
REMARK    5  A    between atoms: N_15  and  S_16
REMARK    6  A    between atoms: S_16  and  C_19
REMARK                            x       y       z     vdW  Elec       q    Type
REMARK                         _______ _______ _______ _____ _____    ______ ____
ROOT
ATOM     11  C   UNL     1      -4.750   0.995  24.865  0.00  0.00    +0.157 C 
ATOM     12  O   UNL     1      -4.065   1.456  24.866  0.00  0.00    -0.351 OA
ATOM     13  C   UNL     1      -4.288   2.242  24.972  0.00  0.00    +0.167 C 
ATOM     26  C   UNL     1      -5.110   2.269  25.037  0.00  0.00    +0.213 C 
ATOM     27  O   UNL     1      -5.566   2.948  25.149  0.00  0.00    -0.218 OA
ATOM     28  C   UNL     1      -5.396   1.498  24.971  0.00  0.00    +0.212 C 
ATOM     29  O   UNL     1      -6.187   1.270  25.005  0.00  0.00    -0.218 OA
ENDROOT
BRANCH  11  10
ATOM     10  C   UNL     1      -4.783   0.176  24.775  0.00  0.00    +0.117 C 
BRANCH  10   8
ATOM      1  C   UNL     1      -3.441  -3.272  23.997  0.00  0.00    +0.000 C 
ATOM      2  C   UNL     1      -3.646  -2.530  24.296  0.00  0.00    +0.003 C 
ATOM      3  C   UNL     1      -4.168  -2.048  23.879  0.00  0.00    +0.022 C 
ATOM      4  C   UNL     1      -4.373  -1.306  24.177  0.00  0.00    +0.093 C 
ATOM      5  N   UNL     1      -4.057  -1.048  24.894  0.00  0.00    -0.279 N 
ATOM      6  C   UNL     1      -3.534  -1.531  25.312  0.00  0.00    +0.093 C 
ATOM      7  C   UNL     1      -3.329  -2.273  25.013  0.00  0.00    +0.022 C 
ATOM      8  C   UNL     1      -4.261  -0.307  25.192  0.00  0.00    +0.228 C 
ATOM      9  O   UNL     1      -3.944  -0.049  25.909  0.00  0.00    -0.275 OA
ENDBRANCH  10   8
ENDBRANCH  11  10
BRANCH  13  14
ATOM     14  C   UNL     1      -3.777   2.890  25.007  0.00  0.00    +0.148 C 
BRANCH  14  15
ATOM     15  N   UNL     1      -3.003   2.792  25.278  0.00  0.00    -0.075 NA
BRANCH  15  16
ATOM     16  S   UNL     1      -2.450   3.394  25.174  0.00  0.00    +0.077 S 
ATOM     17  O   UNL     1      -2.555   3.625  25.959  0.00  0.00    -0.152 OA
ATOM     18  O   UNL     1      -2.346   3.164  24.389  0.00  0.00    -0.152 OA
BRANCH  16  19
ATOM     19  C   UNL     1      -1.896   3.998  25.070  0.00  0.00    +0.124 A 
ATOM     20  C   UNL     1      -1.135   3.817  24.808  0.00  0.00    +0.021 A 
ATOM     21  C   UNL     1      -0.582   4.421  24.705  0.00  0.00    +0.013 A 
ATOM     22  C   UNL     1      -0.789   5.203  24.864  0.00  0.00    +0.058 A 
ATOM     23 CL   UNL     1      -0.235   5.806  24.760  0.00  0.00    -0.082 Cl
ATOM     24  C   UNL     1      -1.550   5.383  25.126  0.00  0.00    +0.013 A 
ATOM     25  C   UNL     1      -2.104   4.780  25.230  0.00  0.00    +0.021 A 
ENDBRANCH  16  19
ENDBRANCH  15  16
ENDBRANCH  14  15
ENDBRANCH  13  14
TORSDOF 6
ENDMDL
MODEL 3
REMARK VINA RESULT:     -10.2      2.421      3.374
REMARK  Name = 
REMARK  6 active torsions:
REMARK  status: ('A' for Active; 'I' for Inactive)
REMARK    1  A    between atoms: C_8  and  C_10
REMARK    2  A    between atoms: C_10  and  C_11
REMARK    3  A    between atoms: C_13  and  C_14
REMARK    4  A    between atoms: C_14  and  N_15
REMARK    5  A    between atoms: N_15  and  S_16
REMARK    6  A    between atoms: S_16  and  C_19
REMARK                            x       y       z     vdW  Elec       q    Type
REMARK                         _______ _______ _______ _____ _____    ______ ____
ROOT
ATOM     11  C   UNL     1      -0.115   1.688  24.678  0.00  0.00    +0.157 C 
ATOM     12  O   UNL     1      -0.748   1.166  24.764  0.00  0.00    -0.351 OA
ATOM     13  C   UNL     1      -0.568   0.476  24.351  0.00  0.00    +0.167 C 
ATOM     26  C   UNL     1       0.176   0.571  24.008  0.00  0.00    +0.213 C 
ATOM     27  O   UNL     1       0.571   0.013  23.545  0.00  0.00    -0.218 OA
ATOM     28  C   UNL     1       0.457   1.319  24.210  0.00  0.00    +0.212 C 
ATOM     29  O   UNL     1       1.181   1.643  23.985  0.00  0.00    -0.218 OA
ENDROOT
BRANCH  11  10
ATOM     10  C   UNL     1      -0.062   2.445  25.001  0.00  0.00    +0.117 C 
BRANCH  10   8
ATOM      1  C   UNL     1      -1.810   5.797  25.045  0.00  0.00    +0.000 C 
ATOM      2  C   UNL     1      -1.524   5.030  25.154  0.00  0.00    +0.003 C 
ATOM      3  C   UNL     1      -0.919   4.744  24.674  0.00  0.00    +0.022 C 
ATOM      4  C   UNL     1      -0.633   3.977  24.783  0.00  0.00    +0.093 C 
ATOM      5  N   UNL     1      -0.954   3.497  25.372  0.00  0.00    -0.279 N 
ATOM      6  C   UNL     1      -1.560   3.784  25.853  0.00  0.00    +0.093 C 
ATOM      7  C   UNL     1      -1.846   4.551  25.744  0.00  0.00    +0.022 C 
ATOM      8  C   UNL     1      -0.668   2.732  25.481  0.00  0.00    +0.228 C 
ATOM      9  O   UNL     1      -0.989   2.252  26.071  0.00  0.00    -0.275 OA
ENDBRANCH  10   8
ENDBRANCH  11  10
BRANCH  13  14
ATOM     14  C   UNL     1      -1.049  -0.192  24.290  0.00  0.00    +0.148 C 
BRANCH  14  15
ATOM     15  N   UNL     1      -1.709  -0.272  24.780  0.00  0.00    -0.075 NA
BRANCH  15  16
ATOM     16  S   UNL     1      -2.290  -0.830  24.602  0.00  0.00    +0.077 S 
ATOM     17  O   UNL     1      -2.757  -0.236  24.270  0.00  0.00    -0.152 OA
ATOM     18  O   UNL     1      -1.823  -1.423  24.934  0.00  0.00    -0.152 OA
BRANCH  16  19
ATOM     19  C   UNL     1      -2.872  -1.387  24.423  0.00  0.00    +0.124 A 
ATOM     20  C   UNL     1      -3.579  -1.147  24.074  0.00  0.00    +0.021 A 
ATOM     21  C   UNL     1      -4.161  -1.704  23.896  0.00  0.00    +0.013 A 
ATOM     22  C   UNL     1      -4.035  -2.502  24.067  0.00  0.00    +0.058 A 
ATOM     23 CL   UNL     1      -4.617  -3.058  23.888  0.00  0.00    -0.082 Cl
ATOM     24  C   UNL     1      -3.327  -2.742  24.416  0.00  0.00    +0.013 A 
ATOM     25  C   UNL     1      -2.745  -2.184  24.595  0.00  0.00    +0.021 A 
ENDBRANCH  16  19
ENDBRANCH  15  16
ENDBRANCH  14  15
ENDBRANCH  13  14
TORSDOF 6
ENDMDL
MODEL 4
REMARK VINA RESULT:     -10.2      3.180      6.350
REMARK  Name = 
REMARK  6 active torsions:
REMARK  status: ('A' for Active; 'I' for Inactive)
REMARK    1  A    between atoms: C_8  and  C_10
REMARK    2  A    between atoms: C_10  and  C_11
REMARK    3  A    between atoms: C_13  and  C_14
REMARK    4  A    between atoms: C_14  and  N_15
REMARK    5  A    between atoms: N_15  and  S_16
REMARK    6  A    between atoms: S_16  and  C_19
REMARK                            x       y       z     vdW  Elec       q    Type
REMARK                         _______ _______ _______ _____ _____    ______ ____
ROOT
ATOM     11  C   UNL     1      -0.557  -0.437  24.484  0.00  0.00    +0.157 C 
ATOM     12  O   UNL     1      -0.821   0.301  24.742  0.00  0.00    -0.351 OA
ATOM     13  C   UNL     1      -0.332   0.876  24.409  0.00  0.00    +0.167 C 
ATOM     26  C   UNL     1       0.234   0.494  23.946  0.00  0.00    +0.213 C 
ATOM     27  O   UNL     1       0.833   0.860  23.513  0.00  0.00    -0.218 OA
ATOM     28  C   UNL     1       0.095  -0.317  23.992  0.00  0.00    +0.212 C 
ATOM     29  O   UNL     1       0.531  -0.906  23.614  0.00  0.00    -0.218 OA
ENDROOT
BRANCH  11  10
ATOM     10  C   UNL     1      -0.887  -1.166  24.683  0.00  0.00    +0.117 C 
BRANCH  10   8
ATOM      1  C   UNL     1      -4.142  -3.064  24.371  0.00  0.00    +0.000 C 
ATOM      2  C   UNL     1      -3.491  -2.598  24.574  0.00  0.00    +0.003 C 
ATOM      3  C   UNL     1      -2.837  -2.564  24.075  0.00  0.00    +0.022 C 
ATOM      4  C   UNL     1      -2.187  -2.098  24.278  0.00  0.00    +0.093 C 
ATOM      5  N   UNL     1      -2.192  -1.666  24.980  0.00  0.00    -0.279 N 
ATOM      6  C   UNL     1      -2.848  -1.700  25.481  0.00  0.00    +0.093 C 
ATOM      7  C   UNL     1      -3.497  -2.166  25.278  0.00  0.00    +0.022 C 
ATOM      8  C   UNL     1      -1.542  -1.201  25.183  0.00  0.00    +0.228 C 
ATOM      9  O   UNL     1      -1.548  -0.768  25.886  0.00  0.00    -0.275 OA
ENDBRANCH  10   8
ENDBRANCH  11  10
BRANCH  13  14
ATOM     14  C   UNL     1      -0.398   1.692  24.520  0.00  0.00    +0.148 C 
BRANCH  14  15
ATOM     15  N   UNL     1      -0.974   1.994  25.028  0.00  0.00    -0.075 NA
BRANCH  15  16
ATOM     16  S   UNL     1      -1.115   2.806  25.056  0.00  0.00    +0.077 S 
ATOM     17  O   UNL     1      -0.550   2.883  25.653  0.00  0.00    -0.152 OA
ATOM     18  O   UNL     1      -1.679   2.728  24.459  0.00  0.00    -0.152 OA
BRANCH  16  19
ATOM     19  C   UNL     1      -1.256   3.619  25.084  0.00  0.00    +0.124 A 
ATOM     20  C   UNL     1      -0.705   4.143  24.764  0.00  0.00    +0.021 A 
ATOM     21  C   UNL     1      -0.846   4.956  24.792  0.00  0.00    +0.013 A 
ATOM     22  C   UNL     1      -1.536   5.244  25.140  0.00  0.00    +0.058 A 
ATOM     23 CL   UNL     1      -1.676   6.056  25.167  0.00  0.00    -0.082 Cl
ATOM     24  C   UNL     1      -2.087   4.719  25.459  0.00  0.00    +0.013 A 
ATOM     25  C   UNL     1      -1.947   3.906  25.431  0.00  0.00    +0.021 A 
ENDBRANCH  16  19
ENDBRANCH  15  16
ENDBRANCH  14  15
ENDBRANCH  13  14
TORSDOF 6
ENDMDL
MODEL 5
REMARK VINA RESULT:      -8.9      2.098      3.144
REMARK  Name = 
REMARK  6 active torsions:
REMARK  status: ('A' for Active; 'I' for Inactive)
REMARK    1  A    between atoms: C_8  and  C_10
REMARK    2  A    between atoms: C_10  and  C_11
REMARK    3  A    between atoms: C_13  and  C_14
REMARK    4  A    between atoms: C_14  and  N_15
REMARK    5  A    between atoms: N_15  and  S_16
REMARK    6  A    between atoms: S_16  and  C_19
REMARK                            x       y       z     vdW  Elec       q    Type
REMARK                         _______ _______ _______ _____ _____    ______ ____
ROOT
ATOM     11  C   UNL     1      -1.282   2.612  24.626  0.00  0.00    +0.157 C 
ATOM     12  O   UNL     1      -1.550   1.846  24.774  0.00  0.00    -0.351 OA
ATOM     13  C   UNL     1      -0.937   1.323  24.599  0.00  0.00    +0.167 C 
ATOM     26  C   UNL     1      -0.290   1.766  24.342  0.00  0.00    +0.213 C 
ATOM     27  O   UNL     1       0.442   1.464  24.109  0.00  0.00    -0.218 OA
ATOM     28  C   UNL     1      -0.503   2.562  24.359  0.00  0.00    +0.212 C 
ATOM     29  O   UNL     1      -0.022   3.197  24.146  0.00  0.00    -0.218 OA
ENDROOT
BRANCH  11  10
ATOM     10  C   UNL     1      -1.716   3.306  24.727  0.00  0.00    +0.117 C 
BRANCH  10   8
ATOM      1  C   UNL     1      -5.382   3.995  25.345  0.00  0.00    +0.000 C 
ATOM      2  C   UNL     1      -4.569   3.855  25.366  0.00  0.00    +0.003 C 
ATOM      3  C   UNL     1      -4.155   3.725  24.665  0.00  0.00    +0.022 C 
ATOM      4  C   UNL     1      -3.342   3.586  24.685  0.00  0.00    +0.093 C 
ATOM      5  N   UNL     1      -2.943   3.575  25.407  0.00  0.00    -0.279 N 
ATOM      6  C   UNL     1      -3.358   3.704  26.109  0.00  0.00    +0.093 C 
ATOM      7  C   UNL     1      -4.171   3.844  26.089  0.00  0.00    +0.022 C 
ATOM      8  C   UNL     1      -2.131   3.435  25.428  0.00  0.00    +0.228 C 
ATOM      9  O   UNL     1      -1.732   3.425  26.151  0.00  0.00    -0.275 OA
ENDBRANCH  10   8
ENDBRANCH  11  10
BRANCH  13  14
ATOM     14  C   UNL     1      -0.966   0.501  24.668  0.00  0.00    +0.148 C 
BRANCH  14  15
ATOM     15  N   UNL     1      -1.416   0.153  25.266  0.00  0.00    -0.075 NA
BRANCH  15  16
ATOM     16  S   UNL     1      -1.834  -0.542  25.116  0.00  0.00    +0.077 S 
ATOM     17  O   UNL     1      -2.530  -0.178  25.370  0.00  0.00    -0.152 OA
ATOM     18  O   UNL     1      -1.139  -0.905  24.862  0.00  0.00    -0.152 OA
BRANCH  16  19
ATOM     19  C   UNL     1      -2.253  -1.237  24.966  0.00  0.00    +0.124 A 
ATOM     20  C   UNL     1      -3.060  -1.276  25.135  0.00  0.00    +0.021 A 
ATOM     21  C   UNL     1      -3.479  -1.972  24.985  0.00  0.00    +0.013 A 
ATOM     22  C   UNL     1      -3.091  -2.627  24.667  0.00  0.00    +0.058 A 
ATOM     23 CL   UNL     1      -3.510  -3.321  24.517  0.00  0.00    -0.082 Cl
ATOM     24  C   UNL     1      -2.284  -2.587  24.498  0.00  0.00    +0.013 A 
ATOM     25  C   UNL     1      -1.865  -1.892  24.648  0.00  0.00    +0.021 A 
ENDBRANCH  16  19
ENDBRANCH  15  16
ENDBRANCH  14  15
ENDBRANCH  13  14
TORSDOF 6
ENDMDL
MODEL 6
REMARK VINA RESULT:      -8.7      3.078      4.450
REMARK  Name = 
REMARK  6 active torsions:
REMARK  status: ('A' for Active; 'I' for Inactive)
REMARK    1  A    between atoms: C_8  and  C_10
REMARK    2  A    between atoms: C_10  and  C_11
REMARK    3  A    between atoms: C_13  and  C_14
REMARK    4  A    between atoms: C_14  and  N_15
REMARK    5  A    between atoms: N_15  and  S_16
REMARK    6  A    between atoms: S_16  and  C_19
REMARK                            x       y       z     vdW  Elec       q    Type
REMARK                         _______ _______ _______ _____ _____    ______ ____
ROOT
ATOM     11  C   UNL     1      -2.563   3.764  25.101  0.00  0.00    +0.157 C 
ATOM     12  O   UNL     1      -2.126   3.104  24.872  0.00  0.00    -0.351 OA
ATOM     13  C   UNL     1      -1.330   3.317  24.859  0.00  0.00    +0.167 C 
ATOM     26  C   UNL     1      -1.274   4.110  25.081  0.00  0.00    +0.213 C 
ATOM     27  O   UNL     1      -0.578   4.549  25.142  0.00  0.00    -0.218 OA
ATOM     28  C   UNL     1      -2.037   4.387  25.231  0.00  0.00    +0.212 C 
ATOM     29  O   UNL     1      -2.238   5.150  25.468  0.00  0.00    -0.218 OA
ENDROOT
BRANCH  11  10
ATOM     10  C   UNL     1      -3.383   3.797  25.187  0.00  0.00    +0.117 C 
BRANCH  10   8
ATOM      1  C   UNL     1      -6.506   1.797  25.921  0.00  0.00    +0.000 C 
ATOM      2  C   UNL     1      -5.846   2.186  25.613  0.00  0.00    +0.003 C 
ATOM      3  C   UNL     1      -5.362   2.632  26.109  0.00  0.00    +0.022 C 
ATOM      4  C   UNL     1      -4.702   3.020  25.802  0.00  0.00    +0.093 C 
ATOM      5  N   UNL     1      -4.527   2.963  24.998  0.00  0.00    -0.279 N 
ATOM      6  C   UNL     1      -5.013   2.517  24.501  0.00  0.00    +0.093 C 
ATOM      7  C   UNL     1      -5.672   2.128  24.809  0.00  0.00    +0.022 C 
ATOM      8  C   UNL     1      -3.868   3.351  24.691  0.00  0.00    +0.228 C 
ATOM      9  O   UNL     1      -3.694   3.294  23.886  0.00  0.00    -0.275 OA
ENDBRANCH  10   8
ENDBRANCH  11  10
BRANCH  13  14
ATOM     14  C   UNL     1      -0.698   2.824  24.659  0.00  0.00    +0.148 C 
BRANCH  14  15
ATOM     15  N   UNL     1      -0.799   2.005  24.655  0.00  0.00    -0.075 NA
BRANCH  15  16
ATOM     16  S   UNL     1      -0.260   1.525  24.257  0.00  0.00    +0.077 S 
ATOM     17  O   UNL     1      -0.767   1.496  23.606  0.00  0.00    -0.152 OA
ATOM     18  O   UNL     1       0.246   1.554  24.907  0.00  0.00    -0.152 OA
BRANCH  16  19
ATOM     19  C   UNL     1       0.279   1.044  23.858  0.00  0.00    +0.124 A 
ATOM     20  C   UNL     1       1.045   1.314  23.716  0.00  0.00    +0.021 A 
ATOM     21  C   UNL     1       1.584   0.833  23.317  0.00  0.00    +0.013 A 
ATOM     22  C   UNL     1       1.357   0.082  23.060  0.00  0.00    +0.058 A 
ATOM     23 CL   UNL     1       1.897  -0.398  22.662  0.00  0.00    -0.082 Cl
ATOM     24  C   UNL     1       0.590  -0.187  23.203  0.00  0.00    +0.013 A 
ATOM     25  C   UNL     1       0.051   0.294  23.602  0.00  0.00    +0.021 A 
ENDBRANCH  16  19
ENDBRANCH  15  16
ENDBRANCH  14  15
ENDBRANCH  13  14
TORSDOF 6
ENDMDL
MODEL 7
REMARK VINA RESULT:      -8.5      3.160      4.813
REMARK  Name = 
REMARK  6 active torsions:
REMARK  status: ('A' for Active; 'I' for Inactive)
REMARK    1  A    between atoms: C_8  and  C_10
REMARK    2  A    between atoms: C_10  and  C_11
REMARK    3  A    between atoms: C_13  and  C_14
REMARK    4  A    between atoms: C_14  and  N_15
REMARK    5  A    between atoms: N_15  and  S_16
REMARK    6  A    between atoms: S_16  and  C_19
REMARK                            x       y       z     vdW  Elec       q    Type
REMARK                         _______ _______ _______ _____ _____    ______ ____
ROOT
ATOM     11  C   UNL     1      -1.799  -0.911  24.670  0.00  0.00    +0.157 C 
ATOM     12  O   UNL     1      -2.303  -0.260  24.718  0.00  0.00    -0.351 OA
ATOM     13  C   UNL     1      -3.035  -0.524  24.991  0.00  0.00    +0.167 C 
ATOM     26  C   UNL     1      -2.984  -1.339  25.111  0.00  0.00    +0.213 C 
ATOM     27  O   UNL     1      -3.591  -1.828  25.382  0.00  0.00    -0.218 OA
ATOM     28  C   UNL     1      -2.220  -1.578  24.913  0.00  0.00    +0.212 C 
ATOM     29  O   UNL     1      -1.929  -2.348  24.950  0.00  0.00    -0.218 OA
ENDROOT
BRANCH  11  10
ATOM     10  C   UNL     1      -1.012  -0.898  24.422  0.00  0.00    +0.117 C 
BRANCH  10   8
ATOM      1  C   UNL     1       1.975   0.314  22.447  0.00  0.00    +0.000 C 
ATOM      2  C   UNL     1       1.337   0.185  22.956  0.00  0.00    +0.003 C 
ATOM      3  C   UNL     1       0.898  -0.510  22.897  0.00  0.00    +0.022 C 
ATOM      4  C   UNL     1       0.261  -0.640  23.406  0.00  0.00    +0.093 C 
ATOM      5  N   UNL     1       0.064  -0.074  23.972  0.00  0.00    -0.279 N 
ATOM      6  C   UNL     1       0.504   0.623  24.030  0.00  0.00    +0.093 C 
ATOM      7  C   UNL     1       1.140   0.752  23.522  0.00  0.00    +0.022 C 
ATOM      8  C   UNL     1      -0.572  -0.203  24.480  0.00  0.00    +0.228 C 
ATOM      9  O   UNL     1      -0.770   0.364  25.047  0.00  0.00    -0.275 OA
ENDBRANCH  10   8
ENDBRANCH  11  10
BRANCH  13  14
ATOM     14  C   UNL     1      -3.702  -0.055  25.121  0.00  0.00    +0.148 C 
BRANCH  14  15
ATOM     15  N   UNL     1      -3.949   0.480  24.543  0.00  0.00    -0.075 NA
BRANCH  15  16
ATOM     16  S   UNL     1      -4.322   1.182  24.764  0.00  0.00    +0.077 S 
ATOM     17  O   UNL     1      -4.771   0.768  25.319  0.00  0.00    -0.152 OA
ATOM     18  O   UNL     1      -3.873   1.595  24.209  0.00  0.00    -0.152 OA
BRANCH  16  19
ATOM     19  C   UNL     1      -4.696   1.884  24.985  0.00  0.00    +0.124 A 
ATOM     20  C   UNL     1      -5.494   1.877  25.193  0.00  0.00    +0.021 A 
ATOM     21  C   UNL     1      -5.868   2.579  25.414  0.00  0.00    +0.013 A 
ATOM     22  C   UNL     1      -5.444   3.287  25.426  0.00  0.00    +0.058 A 
ATOM     23 CL   UNL     1      -5.818   3.988  25.647  0.00  0.00    -0.082 Cl
ATOM     24  C   UNL     1      -4.645   3.293  25.218  0.00  0.00    +0.013 A 
ATOM     25  C   UNL     1      -4.271   2.591  24.997  0.00  0.00    +0.021 A 
ENDBRANCH  16  19
ENDBRANCH  15  16
ENDBRANCH  14  15
ENDBRANCH  13  14
TORSDOF 6
ENDMDL
MODEL 8
REMARK VINA RESULT:      -8.5      2.666      5.589
REMARK  Name = 
REMARK  6 active torsions:
REMARK  status: ('A' for Active; 'I' for Inactive)
REMARK    1  A    between atoms: C_8  and  C_10
REMARK    2  A    between atoms: C_10  and  C_11
REMARK    3  A    between atoms: C_13  and  C_14
REMARK    4  A    between atoms: C_14  and  N_15
REMARK    5  A    between atoms: N_15  and  S_16
REMARK    6  A    between atoms: S_16  and  C_19
REMARK                            x       y       z     vdW  Elec       q    Type
REMARK                         _______ _______ _______ _____ _____    ______ ____
ROOT
ATOM     11  C   UNL     1      -1.074   0.136  24.628  0.00  0.00    +0.157 C 
ATOM     12  O   UNL     1      -1.664   0.701  24.744  0.00  0.00    -0.351 OA
ATOM     13  C   UNL     1      -1.349   1.440  24.560  0.00  0.00    +0.167 C 
ATOM     26  C   UNL     1      -0.564   1.333  24.330  0.00  0.00    +0.213 C 
ATOM     27  O   UNL     1      -0.041   1.928  24.099  0.00  0.00    -0.218 OA
ATOM     28  C   UNL     1      -0.394   0.527  24.372  0.00  0.00    +0.212 C 
ATOM     29  O   UNL     1       0.329   0.175  24.190  0.00  0.00    -0.218 OA
ENDROOT
BRANCH  11  10
ATOM     10  C   UNL     1      -1.150  -0.677  24.747  0.00  0.00    +0.117 C 
BRANCH  10   8
ATOM      1  C   UNL     1      -3.894  -3.250  24.365  0.00  0.00    +0.000 C 
ATOM      2  C   UNL     1      -3.345  -2.678  24.596  0.00  0.00    +0.003 C 
ATOM      3  C   UNL     1      -2.796  -2.390  24.053  0.00  0.00    +0.022 C 
ATOM      4  C   UNL     1      -2.247  -1.819  24.284  0.00  0.00    +0.093 C 
ATOM      5  N   UNL     1      -2.248  -1.536  25.059  0.00  0.00    -0.279 N 
ATOM      6  C   UNL     1      -2.798  -1.824  25.603  0.00  0.00    +0.093 C 
ATOM      7  C   UNL     1      -3.346  -2.395  25.372  0.00  0.00    +0.022 C 
ATOM      8  C   UNL     1      -1.700  -0.965  25.290  0.00  0.00    +0.228 C 
ATOM      9  O   UNL     1      -1.701  -0.682  26.065  0.00  0.00    -0.275 OA
ENDBRANCH  10   8
ENDBRANCH  11  10
BRANCH  13  14
ATOM     14  C   UNL     1      -1.749   2.161  24.599  0.00  0.00    +0.148 C 
BRANCH  14  15
ATOM     15  N   UNL     1      -2.404   2.296  24.116  0.00  0.00    -0.075 NA
BRANCH  15  16
ATOM     16  S   UNL     1      -3.082   2.647  24.427  0.00  0.00    +0.077 S 
ATOM     17  O   UNL     1      -3.552   2.137  23.979  0.00  0.00    -0.152 OA
ATOM     18  O   UNL     1      -2.613   3.157  24.875  0.00  0.00    -0.152 OA
BRANCH  16  19
ATOM     19  C   UNL     1      -3.762   2.998  24.739  0.00  0.00    +0.124 A 
ATOM     20  C   UNL     1      -4.449   2.552  24.834  0.00  0.00    +0.021 A 
ATOM     21  C   UNL     1      -5.128   2.902  25.146  0.00  0.00    +0.013 A 
ATOM     22  C   UNL     1      -5.119   3.698  25.363  0.00  0.00    +0.058 A 
ATOM     23 CL   UNL     1      -5.798   4.048  25.674  0.00  0.00    -0.082 Cl
ATOM     24  C   UNL     1      -4.431   4.144  25.268  0.00  0.00    +0.013 A 
ATOM     25  C   UNL     1      -3.752   3.793  24.956  0.00  0.00    +0.021 A 
ENDBRANCH  16  19
ENDBRANCH  15  16
ENDBRANCH  14  15
ENDBRANCH  13  14
TORSDOF 6
ENDMDL
MODEL 9
REMARK VINA RESULT:      -8.5      3.950      5.402
REMARK  Name = 
REMARK  6 active torsions:
REMARK  status: ('A' for Active; 'I' for Inactive)
REMARK    1  A    between atoms: C_8  and  C_10
REMARK    2  A    between atoms: C_10  and  C_11
REMARK    3  A    between atoms: C_13  and  C_14
REMARK    4  A    between atoms: C_14  and  N_15
REMARK    5  A    between atoms: N_15  and  S_16
REMARK    6  A    between atoms: S_16  and  C_19
REMARK                            x       y       z     vdW  Elec       q    Type
REMARK                         _______ _______ _______ _____ _____    ______ ____
ROOT
ATOM     11  C   UNL     1      -2.113  -0.242  24.810  0.00  0.00    +0.157 C 
ATOM     12  O   UNL     1      -1.496  -0.040  24.301  0.00  0.00    -0.351 OA
ATOM     13  C   UNL     1      -0.840  -0.496  24.503  0.00  0.00    +0.167 C 
ATOM     26  C   UNL     1      -1.051  -0.981  25.136  0.00  0.00    +0.213 C 
ATOM     27  O   UNL     1      -0.559  -1.527  25.513  0.00  0.00    -0.218 OA
ATOM     28  C   UNL     1      -1.837  -0.824  25.327  0.00  0.00    +0.212 C 
ATOM     29  O   UNL     1      -2.272  -1.185  25.927  0.00  0.00    -0.218 OA
ENDROOT
BRANCH  11  10
ATOM     10  C   UNL     1      -2.872   0.080  24.804  0.00  0.00    +0.117 C 
BRANCH  10   8
ATOM      1  C   UNL     1      -6.013   2.180  24.965  0.00  0.00    +0.000 C 
ATOM      2  C   UNL     1      -5.252   1.859  24.935  0.00  0.00    +0.003 C 
ATOM      3  C   UNL     1      -5.151   1.042  24.894  0.00  0.00    +0.022 C 
ATOM      4  C   UNL     1      -4.392   0.722  24.864  0.00  0.00    +0.093 C 
ATOM      5  N   UNL     1      -3.733   1.218  24.876  0.00  0.00    -0.279 N 
ATOM      6  C   UNL     1      -3.835   2.037  24.918  0.00  0.00    +0.093 C 
ATOM      7  C   UNL     1      -4.594   2.357  24.947  0.00  0.00    +0.022 C 
ATOM      8  C   UNL     1      -2.974   0.898  24.846  0.00  0.00    +0.228 C 
ATOM      9  O   UNL     1      -2.315   1.395  24.858  0.00  0.00    -0.275 OA
ENDBRANCH  10   8
ENDBRANCH  11  10
BRANCH  13  14
ATOM     14  C   UNL     1      -0.101  -0.472  24.135  0.00  0.00    +0.148 C 
BRANCH  14  15
ATOM     15  N   UNL     1       0.057   0.103  23.564  0.00  0.00    -0.075 NA
BRANCH  15  16
ATOM     16  S   UNL     1       0.827   0.210  23.289  0.00  0.00    +0.077 S 
ATOM     17  O   UNL     1       0.874   0.925  23.699  0.00  0.00    -0.152 OA
ATOM     18  O   UNL     1       0.780  -0.504  22.879  0.00  0.00    -0.152 OA
BRANCH  16  19
ATOM     19  C   UNL     1       1.598   0.318  23.014  0.00  0.00    +0.124 A 
ATOM     20  C   UNL     1       1.876  -0.133  22.382  0.00  0.00    +0.021 A 
ATOM     21  C   UNL     1       2.647  -0.025  22.107  0.00  0.00    +0.013 A 
ATOM     22  C   UNL     1       3.139   0.533  22.463  0.00  0.00    +0.058 A 
ATOM     23 CL   UNL     1       3.909   0.641  22.188  0.00  0.00    -0.082 Cl
ATOM     24  C   UNL     1       2.859   0.985  23.095  0.00  0.00    +0.013 A 
ATOM     25  C   UNL     1       2.088   0.877  23.370  0.00  0.00    +0.021 A 
ENDBRANCH  16  19
ENDBRANCH  15  16
ENDBRANCH  14  15
ENDBRANCH  13  14
TORSDOF 6
ENDMDL
MODEL 10
REMARK VINA RESULT:      -8.0      3.683      4.923
REMARK  Name = 
REMARK  6 active torsions:
REMARK  status: ('A' for Active; 'I' for Inactive)
REMARK    1  A    between atoms: C_8  and  C_10
REMARK    2  A    between atoms: C_10  and  C_11
REMARK    3  A    between atoms: C_13  and  C_14
REMARK    4  A    between atoms: C_14  and  N_15
REMARK    5  A    between atoms: N_15  and  S_16
REMARK    6  A    between atoms: S_16  and  C_19
REMARK                            x       y       z     vdW  Elec       q    Type
REMARK                         _______ _______ _______ _____ _____    ______ ____
ROOT
ATOM     11  C   UNL     1      -0.071   1.947  24.815  0.00  0.00    +0.157 C 
ATOM     12  O   UNL     1      -0.877   1.865  24.662  0.00  0.00    -0.351 OA
ATOM     13  C   UNL     1      -1.291   2.194  25.295  0.00  0.00    +0.167 C 
ATOM     26  C   UNL     1      -0.741   2.480  25.839  0.00  0.00    +0.213 C 
ATOM     27  O   UNL     1      -0.915   2.853  26.554  0.00  0.00    -0.218 OA
ATOM     28  C   UNL     1       0.013   2.327  25.543  0.00  0.00    +0.212 C 
ATOM     29  O   UNL     1       0.726   2.521  25.909  0.00  0.00    -0.218 OA
ENDROOT
BRANCH  11  10
ATOM     10  C   UNL     1       0.544   1.694  24.326  0.00  0.00    +0.117 C 
BRANCH  10   8
ATOM      1  C   UNL     1       2.983  -0.089  22.053  0.00  0.00    +0.000 C 
ATOM      2  C   UNL     1       2.355   0.180  22.518  0.00  0.00    +0.003 C 
ATOM      3  C   UNL     1       2.424   0.889  22.933  0.00  0.00    +0.022 C 
ATOM      4  C   UNL     1       1.797   1.157  23.397  0.00  0.00    +0.093 C 
ATOM      5  N   UNL     1       1.102   0.717  23.447  0.00  0.00    -0.279 N 
ATOM      6  C   UNL     1       1.033   0.007  23.031  0.00  0.00    +0.093 C 
ATOM      7  C   UNL     1       1.660  -0.261  22.566  0.00  0.00    +0.022 C 
ATOM      8  C   UNL     1       0.476   0.985  23.911  0.00  0.00    +0.228 C 
ATOM      9  O   UNL     1      -0.221   0.544  23.960  0.00  0.00    -0.275 OA
ENDBRANCH  10   8
ENDBRANCH  11  10
BRANCH  13  14
ATOM     14  C   UNL     1      -2.112   2.230  25.370  0.00  0.00    +0.148 C 
BRANCH  14  15
ATOM     15  N   UNL     1      -2.592   2.174  24.701  0.00  0.00    -0.075 NA
BRANCH  15  16
ATOM     16  S   UNL     1      -3.411   2.124  24.782  0.00  0.00    +0.077 S 
ATOM     17  O   UNL     1      -3.483   2.907  24.532  0.00  0.00    -0.152 OA
ATOM     18  O   UNL     1      -3.338   1.341  25.032  0.00  0.00    -0.152 OA
BRANCH  16  19
ATOM     19  C   UNL     1      -4.231   2.075  24.863  0.00  0.00    +0.124 A 
ATOM     20  C   UNL     1      -4.618   1.364  24.705  0.00  0.00    +0.021 A 
ATOM     21  C   UNL     1      -5.438   1.315  24.786  0.00  0.00    +0.013 A 
ATOM     22  C   UNL     1      -5.870   1.976  25.026  0.00  0.00    +0.058 A 
ATOM     23 CL   UNL     1      -6.689   1.926  25.107  0.00  0.00    -0.082 Cl
ATOM     24  C   UNL     1      -5.481   2.686  25.184  0.00  0.00    +0.013 A 
ATOM     25  C   UNL     1      -4.661   2.736  25.103  0.00  0.00    +0.021 A 
ENDBRANCH  16  19
ENDBRANCH  15  16
ENDBRANCH  14  15
ENDBRANCH  13  14
TORSDOF 6
ENDMDL
