MODEL 1
REMARK VINA RESULT:     -11.9      0.000      0.000
REMARK  Name = 
REMARK  9 active torsions:
REMARK  status: ('A' for Active; 'I' for Inactive)
REMARK    1  A    between atoms: C_2  and  C_4
REMARK    2  A    between atoms: C_6  and  C_7
REMARK    3  A    between atoms: C_7  and  C_8
REMARK    4  A    between atoms: C_21  and  C_22
REMARK    5  A    between atoms: C_22  and  N_23
REMARK    6  A    between atoms: C_24  and  C_26
REMARK    7  A    between atoms: C_26  and  C_27
REMARK    8  A    between atoms: C_27  and  C_30
REMARK    9  A    between atoms: C_30  and  C_31
REMARK                            x       y       z     vdW  Elec       q    Type
REMARK                         _______ _______ _______ _____ _____    ______ ____
ROOT
ATOM      4  C   UNL     1      -3.386   1.697  23.759  0.00  0.00    +0.006 C 
ATOM      5  C   UNL     1      -3.865   1.025  23.771  0.00  0.00    +0.005 C 
ATOM      6  C   UNL     1      -4.416   0.924  24.376  0.00  0.00    +0.026 C 
ATOM     18  C   UNL     1      -4.489   1.494  24.969  0.00  0.00    -0.048 C 
ATOM     19  C   UNL     1      -5.040   1.392  25.574  0.00  0.00    +0.026 C 
ATOM     20  C   UNL     1      -4.009   2.165  24.955  0.00  0.00    -0.033 C 
ATOM     21  C   UNL     1      -3.458   2.266  24.350  0.00  0.00    +0.043 C 
ENDROOT
BRANCH   4   2
ATOM      1  C   UNL     1      -2.115   1.394  23.178  0.00  0.00    +0.000 C 
ATOM      2  C   UNL     1      -2.834   1.798  23.153  0.00  0.00    +0.000 C 
ATOM      3  C   UNL     1      -3.001   2.304  22.523  0.00  0.00    +0.000 C 
ENDBRANCH   4   2
BRANCH   6   7
ATOM      7  C   UNL     1      -4.896   0.252  24.390  0.00  0.00    +0.070 C 
BRANCH   7   8
ATOM      8  C   UNL     1      -4.555  -0.498  24.416  0.00  0.00    +0.139 A 
ATOM      9  N   UNL     1      -4.594  -1.070  23.823  0.00  0.00    -0.229 NA
ATOM     10  C   UNL     1      -4.178  -1.734  24.081  0.00  0.00    +0.100 A 
ATOM     11  C   UNL     1      -3.882  -1.573  24.834  0.00  0.00    +0.096 A 
ATOM     12  N   UNL     1      -4.114  -0.809  25.042  0.00  0.00    -0.230 NA
ATOM     13  C   UNL     1      -3.439  -2.143  25.233  0.00  0.00    -0.003 A 
ATOM     14  C   UNL     1      -3.143  -1.982  25.986  0.00  0.00    +0.033 C 
ATOM     15  C   UNL     1      -3.291  -2.873  24.880  0.00  0.00    -0.003 A 
ATOM     16  C   UNL     1      -3.588  -3.034  24.127  0.00  0.00    +0.001 A 
ATOM     17  C   UNL     1      -4.031  -2.465  23.727  0.00  0.00    +0.021 A 
ENDBRANCH   7   8
ENDBRANCH   6   7
BRANCH  21  22
ATOM     22  C   UNL     1      -2.979   2.938  24.338  0.00  0.00    +0.119 C 
BRANCH  22  23
ATOM     23  N   UNL     1      -2.436   3.069  24.945  0.00  0.00    -0.205 NA
ATOM     24  C   UNL     1      -2.108   3.818  25.053  0.00  0.00    +0.241 C 
ATOM     25  O   UNL     1      -2.323   4.437  24.551  0.00  0.00    -0.273 OA
BRANCH  24  26
ATOM     26  C   UNL     1      -1.566   3.948  25.660  0.00  0.00    +0.087 C 
BRANCH  26  27
ATOM     27  C   UNL     1      -0.775   3.732  25.560  0.00  0.00    +0.019 C 
ATOM     28  C   UNL     1      -0.681   4.337  25.007  0.00  0.00    +0.001 C 
ATOM     29  C   UNL     1      -0.871   3.128  26.113  0.00  0.00    +0.001 C 
BRANCH  27  30
ATOM     30  C   UNL     1       0.014   3.517  25.460  0.00  0.00    +0.115 C 
BRANCH  30  31
ATOM     31  C   UNL     1       0.308   2.839  25.827  0.00  0.00    +0.365 C 
ATOM     32  O   UNL     1       0.415   2.147  25.391  0.00  0.00    -0.246 OA
ATOM     33  O   UNL     1       0.494   2.854  26.630  0.00  0.00    -0.246 OA
ENDBRANCH  30  31
ENDBRANCH  27  30
ENDBRANCH  26  27
ENDBRANCH  24  26
ENDBRANCH  22  23
ENDBRANCH  21  22
TORSDOF 9
ENDMDL
MODEL 2
REMARK VINA RESULT:     -11.5      1.219      2.018
REMARK  Name = 
REMARK  9 active torsions:
REMARK  status: ('A' for Active; 'I' for Inactive)
REMARK    1  A    between atoms: C_2  and  C_4
REMARK    2  A    between atoms: C_6  and  C_7
REMARK    3  A    between atoms: C_7  and  C_8
REMARK    4  A    between atoms: C_21  and  C_22
REMARK    5  A    between atoms: C_22  and  N_23
REMARK    6  A    between atoms: C_24  and  C_26
REMARK    7  A    between atoms: C_26  and  C_27
REMARK    8  A    between atoms: C_27  and  C_30
REMARK    9  A    between atoms: C_30  and  C_31
REMARK                            x       y       z     vdW  Elec       q    Type
REMARK                         _______ _______ _______ _____ _____    ______ ____
ROOT
ATOM      4  C   UNL     1      -4.595   1.330  24.693  0.00  0.00    +0.006 C 
ATOM      5  C   UNL     1      -4.501   0.635  24.259  0.00  0.00    +0.005 C 
ATOM      6  C   UNL     1      -3.875   0.562  23.727  0.00  0.00    +0.026 C 
ATOM     18  C   UNL     1      -3.343   1.186  23.628  0.00  0.00    -0.048 C 
ATOM     19  C   UNL     1      -2.717   1.113  23.096  0.00  0.00    +0.026 C 
ATOM     20  C   UNL     1      -3.437   1.880  24.062  0.00  0.00    -0.033 C 
ATOM     21  C   UNL     1      -4.064   1.953  24.595  0.00  0.00    +0.043 C 
ENDROOT
BRANCH   4   2
ATOM      1  C   UNL     1      -5.922   1.768  24.991  0.00  0.00    +0.000 C 
ATOM      2  C   UNL     1      -5.221   1.403  25.225  0.00  0.00    +0.000 C 
ATOM      3  C   UNL     1      -5.146   1.109  25.994  0.00  0.00    +0.000 C 
ENDBRANCH   4   2
BRANCH   6   7
ATOM      7  C   UNL     1      -3.781  -0.133  23.292  0.00  0.00    +0.070 C 
BRANCH   7   8
ATOM      8  C   UNL     1      -3.619  -0.843  23.680  0.00  0.00    +0.139 A 
ATOM      9  N   UNL     1      -4.134  -1.482  23.757  0.00  0.00    -0.229 NA
ATOM     10  C   UNL     1      -3.746  -2.072  24.182  0.00  0.00    +0.100 A 
ATOM     11  C   UNL     1      -2.991  -1.798  24.369  0.00  0.00    +0.096 A 
ATOM     12  N   UNL     1      -2.912  -1.038  24.058  0.00  0.00    -0.230 NA
ATOM     13  C   UNL     1      -2.473  -2.277  24.797  0.00  0.00    -0.003 A 
ATOM     14  C   UNL     1      -1.718  -2.003  24.984  0.00  0.00    +0.033 C 
ATOM     15  C   UNL     1      -2.710  -3.028  25.039  0.00  0.00    -0.003 A 
ATOM     16  C   UNL     1      -3.466  -3.302  24.853  0.00  0.00    +0.001 A 
ATOM     17  C   UNL     1      -3.984  -2.825  24.424  0.00  0.00    +0.021 A 
ENDBRANCH   7   8
ENDBRANCH   6   7
BRANCH  21  22
ATOM     22  C   UNL     1      -4.157   2.649  25.029  0.00  0.00    +0.119 C 
BRANCH  22  23
ATOM     23  N   UNL     1      -3.705   3.313  24.844  0.00  0.00    -0.205 NA
ATOM     24  C   UNL     1      -3.529   3.869  25.427  0.00  0.00    +0.241 C 
ATOM     25  O   UNL     1      -3.806   3.759  26.197  0.00  0.00    -0.273 OA
BRANCH  24  26
ATOM     26  C   UNL     1      -3.077   4.534  25.242  0.00  0.00    +0.087 C 
BRANCH  26  27
ATOM     27  C   UNL     1      -2.265   4.532  25.386  0.00  0.00    +0.019 C 
ATOM     28  C   UNL     1      -2.122   4.579  24.574  0.00  0.00    +0.001 C 
ATOM     29  C   UNL     1      -2.407   4.486  26.196  0.00  0.00    +0.001 C 
BRANCH  27  30
ATOM     30  C   UNL     1      -1.452   4.531  25.528  0.00  0.00    +0.115 C 
BRANCH  30  31
ATOM     31  C   UNL     1      -0.943   4.935  25.019  0.00  0.00    +0.365 C 
ATOM     32  O   UNL     1      -0.416   4.513  24.544  0.00  0.00    -0.246 OA
ATOM     33  O   UNL     1      -0.961   5.758  24.986  0.00  0.00    -0.246 OA
ENDBRANCH  30  31
ENDBRANCH  27  30
ENDBRANCH  26  27
ENDBRANCH  24  26
ENDBRANCH  22  23
ENDBRANCH  21  22
TORSDOF 9
ENDMDL
MODEL 3
REMARK VINA RESULT:     -11.3      2.698      4.398
REMARK  Name = 
REMARK  9 active torsions:
REMARK  status: ('A' for Active; 'I' for Inactive)
REMARK    1  A    between atoms: C_2  and  C_4
REMARK    2  A    between atoms: C_6  and  C_7
REMARK    3  A    between atoms: C_7  and  C_8
REMARK    4  A    between atoms: C_21  and  C_22
REMARK    5  A    between atoms: C_22  and  N_23
REMARK    6  A    between atoms: C_24  and  C_26
REMARK    7  A    between atoms: C_26  and  C_27
REMARK    8  A    between atoms: C_27  and  C_30
REMARK    9  A    between atoms: C_30  and  C_31
REMARK                            x       y       z     vdW  Elec       q    Type
REMARK                         _______ _______ _______ _____ _____    ______ ____
ROOT
ATOM      4  C   UNL     1      -1.908   0.570  24.291  0.00  0.00    +0.006 C 
ATOM      5  C   UNL     1      -2.680   0.844  24.186  0.00  0.00    +0.005 C 
ATOM      6  C   UNL     1      -2.869   1.297  23.524  0.00  0.00    +0.026 C 
ATOM     18  C   UNL     1      -2.287   1.477  22.966  0.00  0.00    -0.048 C 
ATOM     19  C   UNL     1      -2.476   1.930  22.303  0.00  0.00    +0.026 C 
ATOM     20  C   UNL     1      -1.516   1.202  23.072  0.00  0.00    -0.033 C 
ATOM     21  C   UNL     1      -1.327   0.749  23.735  0.00  0.00    +0.043 C 
ENDROOT
BRANCH   4   2
ATOM      1  C   UNL     1      -1.370   0.472  25.612  0.00  0.00    +0.000 C 
ATOM      2  C   UNL     1      -1.719   0.116  24.954  0.00  0.00    +0.000 C 
ATOM      3  C   UNL     1      -1.878  -0.694  24.959  0.00  0.00    +0.000 C 
ENDBRANCH   4   2
BRANCH   6   7
ATOM      7  C   UNL     1      -3.640   1.571  23.417  0.00  0.00    +0.070 C 
BRANCH   7   8
ATOM      8  C   UNL     1      -4.009   2.005  24.014  0.00  0.00    +0.139 A 
ATOM      9  N   UNL     1      -3.829   2.779  24.234  0.00  0.00    -0.229 NA
ATOM     10  C   UNL     1      -4.332   2.993  24.850  0.00  0.00    +0.100 A 
ATOM     11  C   UNL     1      -4.825   2.351  25.012  0.00  0.00    +0.096 A 
ATOM     12  N   UNL     1      -4.625   1.740  24.495  0.00  0.00    -0.230 NA
ATOM     13  C   UNL     1      -5.391   2.407  25.610  0.00  0.00    -0.003 A 
ATOM     14  C   UNL     1      -5.883   1.765  25.771  0.00  0.00    +0.033 C 
ATOM     15  C   UNL     1      -5.465   3.103  26.045  0.00  0.00    -0.003 A 
ATOM     16  C   UNL     1      -4.973   3.745  25.883  0.00  0.00    +0.001 A 
ATOM     17  C   UNL     1      -4.406   3.690  25.286  0.00  0.00    +0.021 A 
ENDBRANCH   7   8
ENDBRANCH   6   7
BRANCH  21  22
ATOM     22  C   UNL     1      -0.556   0.475  23.840  0.00  0.00    +0.119 C 
BRANCH  22  23
ATOM     23  N   UNL     1       0.047   0.741  23.344  0.00  0.00    -0.205 NA
ATOM     24  C   UNL     1       0.720   0.279  23.227  0.00  0.00    +0.241 C 
ATOM     25  O   UNL     1       0.790  -0.451  23.606  0.00  0.00    -0.273 OA
BRANCH  24  26
ATOM     26  C   UNL     1       1.323   0.546  22.731  0.00  0.00    +0.087 C 
BRANCH  26  27
ATOM     27  C   UNL     1       2.103   0.314  22.868  0.00  0.00    +0.019 C 
ATOM     28  C   UNL     1       2.016  -0.300  22.323  0.00  0.00    +0.001 C 
ATOM     29  C   UNL     1       2.190   0.926  23.413  0.00  0.00    +0.001 C 
BRANCH  27  30
ATOM     30  C   UNL     1       2.882   0.080  23.005  0.00  0.00    +0.115 C 
BRANCH  30  31
ATOM     31  C   UNL     1       3.506   0.524  22.698  0.00  0.00    +0.365 C 
ATOM     32  O   UNL     1       3.630   0.551  21.883  0.00  0.00    -0.246 OA
ATOM     33  O   UNL     1       4.005   0.940  23.206  0.00  0.00    -0.246 OA
ENDBRANCH  30  31
ENDBRANCH  27  30
ENDBRANCH  26  27
ENDBRANCH  24  26
ENDBRANCH  22  23
ENDBRANCH  21  22
TORSDOF 9
ENDMDL
MODEL 4
REMARK VINA RESULT:     -11.3      1.684      2.790
REMARK  Name = 
REMARK  9 active torsions:
REMARK  status: ('A' for Active; 'I' for Inactive)
REMARK    1  A    between atoms: C_2  and  C_4
REMARK    2  A    between atoms: C_6  and  C_7
REMARK    3  A    between atoms: C_7  and  C_8
REMARK    4  A    between atoms: C_21  and  C_22
REMARK    5  A    between atoms: C_22  and  N_23
REMARK    6  A    between atoms: C_24  and  C_26
REMARK    7  A    between atoms: C_26  and  C_27
REMARK    8  A    between atoms: C_27  and  C_30
REMARK    9  A    between atoms: C_30  and  C_31
REMARK                            x       y       z     vdW  Elec       q    Type
REMARK                         _______ _______ _______ _____ _____    ______ ____
ROOT
ATOM      4  C   UNL     1      -0.548   0.038  24.353  0.00  0.00    +0.006 C 
ATOM      5  C   UNL     1      -0.864  -0.719  24.445  0.00  0.00    +0.005 C 
ATOM      6  C   UNL     1      -1.146  -0.961  25.181  0.00  0.00    +0.026 C 
ATOM     18  C   UNL     1      -1.111  -0.447  25.826  0.00  0.00    -0.048 C 
ATOM     19  C   UNL     1      -1.393  -0.689  26.563  0.00  0.00    +0.026 C 
ATOM     20  C   UNL     1      -0.795   0.309  25.734  0.00  0.00    -0.033 C 
ATOM     21  C   UNL     1      -0.513   0.552  24.997  0.00  0.00    +0.043 C 
ENDROOT
BRANCH   4   2
ATOM      1  C   UNL     1      -0.761   0.691  23.100  0.00  0.00    +0.000 C 
ATOM      2  C   UNL     1      -0.266   0.281  23.617  0.00  0.00    +0.000 C 
ATOM      3  C   UNL     1       0.512   0.113  23.396  0.00  0.00    +0.000 C 
ENDBRANCH   4   2
BRANCH   6   7
ATOM      7  C   UNL     1      -1.462  -1.717  25.274  0.00  0.00    +0.070 C 
BRANCH   7   8
ATOM      8  C   UNL     1      -2.170  -1.917  24.900  0.00  0.00    +0.139 A 
ATOM      9  N   UNL     1      -2.353  -2.650  24.568  0.00  0.00    -0.229 NA
ATOM     10  C   UNL     1      -3.115  -2.605  24.256  0.00  0.00    +0.100 A 
ATOM     11  C   UNL     1      -3.403  -1.844  24.394  0.00  0.00    +0.096 A 
ATOM     12  N   UNL     1      -2.820  -1.419  24.792  0.00  0.00    -0.230 NA
ATOM     13  C   UNL     1      -4.160  -1.638  24.139  0.00  0.00    -0.003 A 
ATOM     14  C   UNL     1      -4.448  -0.878  24.277  0.00  0.00    +0.033 C 
ATOM     15  C   UNL     1      -4.629  -2.191  23.746  0.00  0.00    -0.003 A 
ATOM     16  C   UNL     1      -4.340  -2.952  23.608  0.00  0.00    +0.001 A 
ATOM     17  C   UNL     1      -3.584  -3.159  23.862  0.00  0.00    +0.021 A 
ENDBRANCH   7   8
ENDBRANCH   6   7
BRANCH  21  22
ATOM     22  C   UNL     1      -0.196   1.308  24.906  0.00  0.00    +0.119 C 
BRANCH  22  23
ATOM     23  N   UNL     1      -0.535   1.947  25.303  0.00  0.00    -0.205 NA
ATOM     24  C   UNL     1      -0.154   2.678  25.310  0.00  0.00    +0.241 C 
ATOM     25  O   UNL     1       0.568   2.771  24.919  0.00  0.00    -0.273 OA
BRANCH  24  26
ATOM     26  C   UNL     1      -0.492   3.317  25.707  0.00  0.00    +0.087 C 
BRANCH  26  27
ATOM     27  C   UNL     1      -1.012   3.821  25.310  0.00  0.00    +0.019 C 
ATOM     28  C   UNL     1      -0.390   4.089  24.838  0.00  0.00    +0.001 C 
ATOM     29  C   UNL     1      -1.633   3.553  25.782  0.00  0.00    +0.001 C 
BRANCH  27  30
ATOM     30  C   UNL     1      -1.530   4.324  24.912  0.00  0.00    +0.115 C 
BRANCH  30  31
ATOM     31  C   UNL     1      -1.785   5.022  25.271  0.00  0.00    +0.365 C 
ATOM     32  O   UNL     1      -2.443   5.013  25.768  0.00  0.00    -0.246 OA
ATOM     33  O   UNL     1      -1.381   5.728  25.133  0.00  0.00    -0.246 OA
ENDBRANCH  30  31
ENDBRANCH  27  30
ENDBRANCH  26  27
ENDBRANCH  24  26
ENDBRANCH  22  23
ENDBRANCH  21  22
TORSDOF 9
ENDMDL
MODEL 5
REMARK VINA RESULT:     -11.2      1.875      5.193
REMARK  Name = 
REMARK  9 active torsions:
REMARK  status: ('A' for Active; 'I' for Inactive)
REMARK    1  A    between atoms: C_2  and  C_4
REMARK    2  A    between atoms: C_6  and  C_7
REMARK    3  A    between atoms: C_7  and  C_8
REMARK    4  A    between atoms: C_21  and  C_22
REMARK    5  A    between atoms: C_22  and  N_23
REMARK    6  A    between atoms: C_24  and  C_26
REMARK    7  A    between atoms: C_26  and  C_27
REMARK    8  A    between atoms: C_27  and  C_30
REMARK    9  A    between atoms: C_30  and  C_31
REMARK                            x       y       z     vdW  Elec       q    Type
REMARK                         _______ _______ _______ _____ _____    ______ ____
ROOT
ATOM      4  C   UNL     1      -3.477   1.461  23.893  0.00  0.00    +0.006 C 
ATOM      5  C   UNL     1      -3.473   2.239  24.168  0.00  0.00    +0.005 C 
ATOM      6  C   UNL     1      -4.005   2.471  24.754  0.00  0.00    +0.026 C 
ATOM     18  C   UNL     1      -4.541   1.926  25.066  0.00  0.00    -0.048 C 
ATOM     19  C   UNL     1      -5.072   2.158  25.652  0.00  0.00    +0.026 C 
ATOM     20  C   UNL     1      -4.544   1.148  24.789  0.00  0.00    -0.033 C 
ATOM     21  C   UNL     1      -4.012   0.916  24.203  0.00  0.00    +0.043 C 
ENDROOT
BRANCH   4   2
ATOM      1  C   UNL     1      -2.216   0.906  23.514  0.00  0.00    +0.000 C 
ATOM      2  C   UNL     1      -2.945   1.229  23.306  0.00  0.00    +0.000 C 
ATOM      3  C   UNL     1      -3.143   1.320  22.510  0.00  0.00    +0.000 C 
ENDBRANCH   4   2
BRANCH   6   7
ATOM      7  C   UNL     1      -4.002   3.249  25.030  0.00  0.00    +0.070 C 
BRANCH   7   8
ATOM      8  C   UNL     1      -3.295   3.672  25.064  0.00  0.00    +0.139 A 
ATOM      9  N   UNL     1      -3.156   4.412  24.725  0.00  0.00    -0.229 NA
ATOM     10  C   UNL     1      -2.378   4.627  24.894  0.00  0.00    +0.100 A 
ATOM     11  C   UNL     1      -2.036   4.021  25.336  0.00  0.00    +0.096 A 
ATOM     12  N   UNL     1      -2.602   3.431  25.441  0.00  0.00    -0.230 NA
ATOM     13  C   UNL     1      -1.252   4.086  25.586  0.00  0.00    -0.003 A 
ATOM     14  C   UNL     1      -0.909   3.480  26.028  0.00  0.00    +0.033 C 
ATOM     15  C   UNL     1      -0.811   4.755  25.393  0.00  0.00    -0.003 A 
ATOM     16  C   UNL     1      -1.154   5.361  24.951  0.00  0.00    +0.001 A 
ATOM     17  C   UNL     1      -1.937   5.298  24.701  0.00  0.00    +0.021 A 
ENDBRANCH   7   8
ENDBRANCH   6   7
BRANCH  21  22
ATOM     22  C   UNL     1      -4.016   0.138  23.928  0.00  0.00    +0.119 C 
BRANCH  22  23
ATOM     23  N   UNL     1      -3.946  -0.488  24.461  0.00  0.00    -0.205 NA
ATOM     24  C   UNL     1      -4.124  -1.256  24.220  0.00  0.00    +0.241 C 
ATOM     25  O   UNL     1      -4.373  -1.399  23.446  0.00  0.00    -0.273 OA
BRANCH  24  26
ATOM     26  C   UNL     1      -4.054  -1.882  24.753  0.00  0.00    +0.087 C 
BRANCH  26  27
ATOM     27  C   UNL     1      -3.447  -2.433  24.664  0.00  0.00    +0.019 C 
ATOM     28  C   UNL     1      -3.122  -2.190  25.383  0.00  0.00    +0.001 C 
ATOM     29  C   UNL     1      -3.771  -2.676  23.946  0.00  0.00    +0.001 C 
BRANCH  27  30
ATOM     30  C   UNL     1      -2.839  -2.984  24.576  0.00  0.00    +0.115 C 
BRANCH  30  31
ATOM     31  C   UNL     1      -2.052  -2.738  24.606  0.00  0.00    +0.365 C 
ATOM     32  O   UNL     1      -1.626  -2.633  23.907  0.00  0.00    -0.246 OA
ATOM     33  O   UNL     1      -1.691  -2.598  25.334  0.00  0.00    -0.246 OA
ENDBRANCH  30  31
ENDBRANCH  27  30
ENDBRANCH  26  27
ENDBRANCH  24  26
ENDBRANCH  22  23
ENDBRANCH  21  22
TORSDOF 9
ENDMDL
MODEL 6
REMARK VINA RESULT:     -10.7      2.486      5.873
REMARK  Name = 
REMARK  9 active torsions:
REMARK  status: ('A' for Active; 'I' for Inactive)
REMARK    1  A    between atoms: C_2  and  C_4
REMARK    2  A    between atoms: C_6  and  C_7
REMARK    3  A    between atoms: C_7  and  C_8
REMARK    4  A    between atoms: C_21  and  C_22
REMARK    5  A    between atoms: C_22  and  N_23
REMARK    6  A    between atoms: C_24  and  C_26
REMARK    7  A    between atoms: C_26  and  C_27
REMARK    8  A    between atoms: C_27  and  C_30
REMARK    9  A    between atoms: C_30  and  C_31
REMARK                            x       y       z     vdW  Elec       q    Type
REMARK                         _______ _______ _______ _____ _____    ______ ____
ROOT
ATOM      4  C   UNL     1      -0.362   1.053  24.392  0.00  0.00    +0.006 C 
ATOM      5  C   UNL     1      -0.172   1.796  24.696  0.00  0.00    +0.005 C 
ATOM      6  C   UNL     1      -0.221   1.934  25.507  0.00  0.00    +0.026 C 
ATOM     18  C   UNL     1      -0.460   1.329  26.016  0.00  0.00    -0.048 C 
ATOM     19  C   UNL     1      -0.509   1.467  26.828  0.00  0.00    +0.026 C 
ATOM     20  C   UNL     1      -0.650   0.587  25.711  0.00  0.00    -0.033 C 
ATOM     21  C   UNL     1      -0.601   0.448  24.899  0.00  0.00    +0.043 C 
ENDROOT
BRANCH   4   2
ATOM      1  C   UNL     1       0.372   0.588  23.257  0.00  0.00    +0.000 C 
ATOM      2  C   UNL     1      -0.313   0.915  23.580  0.00  0.00    +0.000 C 
ATOM      3  C   UNL     1      -0.950   1.104  23.090  0.00  0.00    +0.000 C 
ENDBRANCH   4   2
BRANCH   6   7
ATOM      7  C   UNL     1      -0.031   2.677  25.812  0.00  0.00    +0.070 C 
BRANCH   7   8
ATOM      8  C   UNL     1      -0.495   3.332  25.623  0.00  0.00    +0.139 A 
ATOM      9  N   UNL     1      -0.253   3.988  25.185  0.00  0.00    -0.229 NA
ATOM     10  C   UNL     1      -0.891   4.507  25.130  0.00  0.00    +0.100 A 
ATOM     11  C   UNL     1      -1.528   4.173  25.533  0.00  0.00    +0.096 A 
ATOM     12  N   UNL     1      -1.284   3.447  25.838  0.00  0.00    -0.230 NA
ATOM     13  C   UNL     1      -2.249   4.573  25.571  0.00  0.00    -0.003 A 
ATOM     14  C   UNL     1      -2.886   4.239  25.974  0.00  0.00    +0.033 C 
ATOM     15  C   UNL     1      -2.332   5.307  25.205  0.00  0.00    -0.003 A 
ATOM     16  C   UNL     1      -1.695   5.642  24.801  0.00  0.00    +0.001 A 
ATOM     17  C   UNL     1      -0.975   5.242  24.763  0.00  0.00    +0.021 A 
ENDBRANCH   7   8
ENDBRANCH   6   7
BRANCH  21  22
ATOM     22  C   UNL     1      -0.791  -0.295  24.595  0.00  0.00    +0.119 C 
BRANCH  22  23
ATOM     23  N   UNL     1      -1.473  -0.682  24.851  0.00  0.00    -0.205 NA
ATOM     24  C   UNL     1      -1.547  -1.498  24.752  0.00  0.00    +0.241 C 
ATOM     25  O   UNL     1      -0.937  -1.926  24.397  0.00  0.00    -0.273 OA
BRANCH  24  26
ATOM     26  C   UNL     1      -2.229  -1.885  25.007  0.00  0.00    +0.087 C 
BRANCH  26  27
ATOM     27  C   UNL     1      -2.744  -2.220  24.456  0.00  0.00    +0.019 C 
ATOM     28  C   UNL     1      -3.262  -1.584  24.553  0.00  0.00    +0.001 C 
ATOM     29  C   UNL     1      -2.227  -2.854  24.358  0.00  0.00    +0.001 C 
BRANCH  27  30
ATOM     30  C   UNL     1      -3.259  -2.554  23.905  0.00  0.00    +0.115 C 
BRANCH  30  31
ATOM     31  C   UNL     1      -3.998  -2.831  24.145  0.00  0.00    +0.365 C 
ATOM     32  O   UNL     1      -4.050  -3.412  24.728  0.00  0.00    -0.246 OA
ATOM     33  O   UNL     1      -4.683  -2.527  23.803  0.00  0.00    -0.246 OA
ENDBRANCH  30  31
ENDBRANCH  27  30
ENDBRANCH  26  27
ENDBRANCH  24  26
ENDBRANCH  22  23
ENDBRANCH  21  22
TORSDOF 9
ENDMDL
MODEL 7
REMARK VINA RESULT:     -10.4      1.850      3.056
REMARK  Name = 
REMARK  9 active torsions:
REMARK  status: ('A' for Active; 'I' for Inactive)
REMARK    1  A    between atoms: C_2  and  C_4
REMARK    2  A    between atoms: C_6  and  C_7
REMARK    3  A    between atoms: C_7  and  C_8
REMARK    4  A    between atoms: C_21  and  C_22
REMARK    5  A    between atoms: C_22  and  N_23
REMARK    6  A    between atoms: C_24  and  C_26
REMARK    7  A    between atoms: C_26  and  C_27
REMARK    8  A    between atoms: C_27  and  C_30
REMARK    9  A    between atoms: C_30  and  C_31
REMARK                            x       y       z     vdW  Elec       q    Type
REMARK                         _______ _______ _______ _____ _____    ______ ____
ROOT
ATOM      4  C   UNL     1      -1.764   1.378  23.996  0.00  0.00    +0.006 C 
ATOM      5  C   UNL     1      -1.472   0.611  24.079  0.00  0.00    +0.005 C 
ATOM      6  C   UNL     1      -1.143   0.370  24.796  0.00  0.00    +0.026 C 
ATOM     18  C   UNL     1      -1.105   0.897  25.430  0.00  0.00    -0.048 C 
ATOM     19  C   UNL     1      -0.776   0.656  26.148  0.00  0.00    +0.026 C 
ATOM     20  C   UNL     1      -1.397   1.664  25.346  0.00  0.00    -0.033 C 
ATOM     21  C   UNL     1      -1.726   1.905  24.629  0.00  0.00    +0.043 C 
ENDROOT
BRANCH   4   2
ATOM      1  C   UNL     1      -1.644   2.061  22.746  0.00  0.00    +0.000 C 
ATOM      2  C   UNL     1      -2.093   1.619  23.278  0.00  0.00    +0.000 C 
ATOM      3  C   UNL     1      -2.871   1.417  23.093  0.00  0.00    +0.000 C 
ENDBRANCH   4   2
BRANCH   6   7
ATOM      7  C   UNL     1      -0.852  -0.397  24.880  0.00  0.00    +0.070 C 
BRANCH   7   8
ATOM      8  C   UNL     1      -1.358  -1.043  24.791  0.00  0.00    +0.139 A 
ATOM      9  N   UNL     1      -1.235  -1.691  24.296  0.00  0.00    -0.229 NA
ATOM     10  C   UNL     1      -1.876  -2.202  24.382  0.00  0.00    +0.100 A 
ATOM     11  C   UNL     1      -2.396  -1.871  24.930  0.00  0.00    +0.096 A 
ATOM     12  N   UNL     1      -2.076  -1.154  25.184  0.00  0.00    -0.230 NA
ATOM     13  C   UNL     1      -3.093  -2.265  25.128  0.00  0.00    -0.003 A 
ATOM     14  C   UNL     1      -3.613  -1.933  25.676  0.00  0.00    +0.033 C 
ATOM     15  C   UNL     1      -3.272  -2.989  24.777  0.00  0.00    -0.003 A 
ATOM     16  C   UNL     1      -2.752  -3.321  24.229  0.00  0.00    +0.001 A 
ATOM     17  C   UNL     1      -2.054  -2.928  24.031  0.00  0.00    +0.021 A 
ENDBRANCH   7   8
ENDBRANCH   6   7
BRANCH  21  22
ATOM     22  C   UNL     1      -2.017   2.672  24.546  0.00  0.00    +0.119 C 
BRANCH  22  23
ATOM     23  N   UNL     1      -2.633   2.934  25.029  0.00  0.00    -0.205 NA
ATOM     24  C   UNL     1      -2.800   3.739  25.085  0.00  0.00    +0.241 C 
ATOM     25  O   UNL     1      -2.351   4.284  24.657  0.00  0.00    -0.273 OA
BRANCH  24  26
ATOM     26  C   UNL     1      -3.416   4.001  25.568  0.00  0.00    +0.087 C 
BRANCH  26  27
ATOM     27  C   UNL     1      -4.199   3.863  25.348  0.00  0.00    +0.019 C 
ATOM     28  C   UNL     1      -4.114   4.388  24.717  0.00  0.00    +0.001 C 
ATOM     29  C   UNL     1      -4.284   3.338  25.978  0.00  0.00    +0.001 C 
BRANCH  27  30
ATOM     30  C   UNL     1      -4.982   3.725  25.127  0.00  0.00    +0.115 C 
BRANCH  30  31
ATOM     31  C   UNL     1      -5.589   3.814  25.679  0.00  0.00    +0.365 C 
ATOM     32  O   UNL     1      -5.850   3.162  26.112  0.00  0.00    -0.246 OA
ATOM     33  O   UNL     1      -5.933   4.553  25.797  0.00  0.00    -0.246 OA
ENDBRANCH  30  31
ENDBRANCH  27  30
ENDBRANCH  26  27
ENDBRANCH  24  26
ENDBRANCH  22  23
ENDBRANCH  21  22
TORSDOF 9
ENDMDL
