MODEL 1
REMARK VINA RESULT:      -9.9      0.000      0.000
REMARK  Name = 
REMARK  6 active torsions:
REMARK  status: ('A' for Active; 'I' for Inactive)
REMARK    1  A    between atoms: C_5  and  S_8
REMARK    2  A    between atoms: S_8  and  N_11
REMARK    3  A    between atoms: N_11  and  C_12
REMARK    4  A    between atoms: C_12  and  C_13
REMARK    5  A    between atoms: C_20  and  C_21
REMARK    6  A    between atoms: C_23  and  C_28
REMARK                            x       y       z     vdW  Elec       q    Type
REMARK                         _______ _______ _______ _____ _____    ______ ____
ROOT
ATOM     13  C   UNL     1       0.429   0.931  23.617  0.00  0.00    +0.077 C 
ATOM     14  C   UNL     1      -0.237   1.177  23.299  0.00  0.00    +0.018 C 
ATOM     15  C   UNL     1      -0.980   1.012  23.574  0.00  0.00    +0.010 C 
ATOM     16  C   UNL     1      -1.616   1.388  23.065  0.00  0.00    +0.018 C 
ATOM     17  C   UNL     1      -1.004   1.243  23.243  0.00  0.00    +0.072 C 
ATOM     18  N   UNL     1      -0.332   0.767  23.891  0.00  0.00    -0.272 NA
ATOM     19  C   UNL     1      -0.633   0.282  24.603  0.00  0.00    +0.078 C 
ATOM     20  C   UNL     1      -1.263   0.543  24.260  0.00  0.00    +0.056 C 
ENDROOT
BRANCH  20  21
ATOM     21  C   UNL     1      -2.046   0.412  24.487  0.00  0.00    +0.063 A 
ATOM     22  C   UNL     1      -2.390  -0.329  24.372  0.00  0.00    +0.034 A 
ATOM     23  C   UNL     1      -3.172  -0.459  24.599  0.00  0.00    +0.084 A 
ATOM     24  N   UNL     1      -3.610   0.151  24.941  0.00  0.00    -0.231 NA
ATOM     25  C   UNL     1      -3.265   0.891  25.056  0.00  0.00    +0.139 A 
ATOM     26  C   UNL     1      -3.702   1.502  25.398  0.00  0.00    +0.074 C 
ATOM     27  N   UNL     1      -2.482   1.022  24.829  0.00  0.00    -0.235 NA
BRANCH  23  28
ATOM     28  C   UNL     1      -3.517  -1.200  24.484  0.00  0.00    +0.024 A 
ATOM     29  C   UNL     1      -3.457  -1.777  25.070  0.00  0.00    +0.036 A 
ATOM     30 BR   UNL     1      -3.052  -1.615  25.770  0.00  0.00    -0.049 Br
ATOM     31  C   UNL     1      -3.802  -2.518  24.955  0.00  0.00    +0.007 A 
ATOM     32  C   UNL     1      -4.208  -2.680  24.255  0.00  0.00    +0.001 A 
ATOM     33  C   UNL     1      -4.268  -2.103  23.671  0.00  0.00    +0.000 A 
ATOM     34  C   UNL     1      -3.923  -1.361  23.784  0.00  0.00    +0.002 A 
ENDBRANCH  23  28
ENDBRANCH  20  21
BRANCH  13  12
ATOM     12  C   UNL     1       1.251   0.877  23.653  0.00  0.00    +0.131 C 
BRANCH  12  11
ATOM     11  N   UNL     1       1.682   0.689  22.976  0.00  0.00    -0.076 NA
BRANCH  11   8
ATOM      8  S   UNL     1       2.495   0.556  23.028  0.00  0.00    +0.077 S 
ATOM      9  O   UNL     1       2.407  -0.153  22.617  0.00  0.00    -0.152 OA
ATOM     10  O   UNL     1       2.583   1.266  23.439  0.00  0.00    -0.152 OA
BRANCH   8   5
ATOM      1  C   UNL     1       5.746   0.028  23.240  0.00  0.00    +0.031 C 
ATOM      2  C   UNL     1       4.933   0.161  23.187  0.00  0.00    -0.022 A 
ATOM      3  C   UNL     1       4.650   0.879  22.897  0.00  0.00    -0.003 A 
ATOM      4  C   UNL     1       3.837   1.011  22.844  0.00  0.00    +0.020 A 
ATOM      5  C   UNL     1       3.308   0.425  23.081  0.00  0.00    +0.124 A 
ATOM      6  C   UNL     1       3.591  -0.294  23.370  0.00  0.00    +0.020 A 
ATOM      7  C   UNL     1       4.403  -0.426  23.423  0.00  0.00    -0.003 A 
ENDBRANCH   8   5
ENDBRANCH  11   8
ENDBRANCH  12  11
ENDBRANCH  13  12
TORSDOF 6
ENDMDL
MODEL 2
REMARK VINA RESULT:      -9.0      1.351      2.706
REMARK  Name = 
REMARK  6 active torsions:
REMARK  status: ('A' for Active; 'I' for Inactive)
REMARK    1  A    between atoms: C_5  and  S_8
REMARK    2  A    between atoms: S_8  and  N_11
REMARK    3  A    between atoms: N_11  and  C_12
REMARK    4  A    between atoms: C_12  and  C_13
REMARK    5  A    between atoms: C_20  and  C_21
REMARK    6  A    between atoms: C_23  and  C_28
REMARK                            x       y       z     vdW  Elec       q    Type
REMARK                         _______ _______ _______ _____ _____    ______ ____
ROOT
ATOM     13  C   UNL     1       0.187   0.092  23.757  0.00  0.00    +0.077 C 
ATOM     14  C   UNL     1      -0.185   0.082  24.440  0.00  0.00    +0.018 C 
ATOM     15  C   UNL     1      -0.963   0.276  24.556  0.00  0.00    +0.010 C 
ATOM     16  C   UNL     1      -1.201   0.201  25.417  0.00  0.00    +0.018 C 
ATOM     17  C   UNL     1      -0.793   0.172  24.908  0.00  0.00    +0.072 C 
ATOM     18  N   UNL     1      -0.604   0.288  23.883  0.00  0.00    -0.272 NA
ATOM     19  C   UNL     1      -1.263   0.561  23.314  0.00  0.00    +0.078 C 
ATOM     20  C   UNL     1      -1.592   0.539  24.003  0.00  0.00    +0.056 C 
ENDROOT
BRANCH  20  21
ATOM     21  C   UNL     1      -2.375   0.723  24.189  0.00  0.00    +0.063 A 
ATOM     22  C   UNL     1      -2.588   1.505  24.345  0.00  0.00    +0.034 A 
ATOM     23  C   UNL     1      -3.371   1.688  24.531  0.00  0.00    +0.084 A 
ATOM     24  N   UNL     1      -3.940   1.091  24.560  0.00  0.00    -0.231 NA
ATOM     25  C   UNL     1      -3.725   0.310  24.404  0.00  0.00    +0.139 A 
ATOM     26  C   UNL     1      -4.294  -0.287  24.433  0.00  0.00    +0.074 C 
ATOM     27  N   UNL     1      -2.942   0.126  24.218  0.00  0.00    -0.235 NA
BRANCH  23  28
ATOM     28  C   UNL     1      -3.585   2.470  24.688  0.00  0.00    +0.024 A 
ATOM     29  C   UNL     1      -3.809   2.967  24.068  0.00  0.00    +0.036 A 
ATOM     30 BR   UNL     1      -3.817   2.684  23.294  0.00  0.00    -0.049 Br
ATOM     31  C   UNL     1      -4.023   3.748  24.224  0.00  0.00    +0.007 A 
ATOM     32  C   UNL     1      -4.015   4.031  25.000  0.00  0.00    +0.001 A 
ATOM     33  C   UNL     1      -3.792   3.534  25.618  0.00  0.00    +0.000 A 
ATOM     34  C   UNL     1      -3.577   2.752  25.462  0.00  0.00    +0.002 A 
ENDBRANCH  23  28
ENDBRANCH  20  21
BRANCH  13  12
ATOM     12  C   UNL     1       0.852  -0.012  23.281  0.00  0.00    +0.131 C 
BRANCH  12  11
ATOM     11  N   UNL     1       1.341   0.629  23.108  0.00  0.00    -0.076 NA
BRANCH  11   8
ATOM      8  S   UNL     1       2.159   0.528  23.078  0.00  0.00    +0.077 S 
ATOM      9  O   UNL     1       2.059  -0.151  22.621  0.00  0.00    -0.152 OA
ATOM     10  O   UNL     1       2.259   1.208  23.535  0.00  0.00    -0.152 OA
BRANCH   8   5
ATOM      1  C   UNL     1       5.432   0.128  22.961  0.00  0.00    +0.031 C 
ATOM      2  C   UNL     1       4.614   0.228  22.991  0.00  0.00    -0.022 A 
ATOM      3  C   UNL     1       4.134  -0.381  23.271  0.00  0.00    -0.003 A 
ATOM      4  C   UNL     1       3.315  -0.281  23.300  0.00  0.00    +0.020 A 
ATOM      5  C   UNL     1       2.977   0.428  23.049  0.00  0.00    +0.124 A 
ATOM      6  C   UNL     1       3.458   1.038  22.769  0.00  0.00    +0.020 A 
ATOM      7  C   UNL     1       4.276   0.937  22.740  0.00  0.00    -0.003 A 
ENDBRANCH   8   5
ENDBRANCH  11   8
ENDBRANCH  12  11
ENDBRANCH  13  12
TORSDOF 6
ENDMDL
MODEL 3
REMARK VINA RESULT:      -8.4      3.156      5.211
REMARK  Name = 
REMARK  6 active torsions:
REMARK  status: ('A' for Active; 'I' for Inactive)
REMARK    1  A    between atoms: C_5  and  S_8
REMARK    2  A    between atoms: S_8  and  N_11
REMARK    3  A    between atoms: N_11  and  C_12
REMARK    4  A    between atoms: C_12  and  C_13
REMARK    5  A    between atoms: C_20  and  C_21
REMARK    6  A    between atoms: C_23  and  C_28
REMARK                            x       y       z     vdW  Elec       q    Type
REMARK                         _______ _______ _______ _____ _____    ______ ____
ROOT
ATOM     13  C   UNL     1      -0.523   0.481  24.990  0.00  0.00    +0.077 C 
ATOM     14  C   UNL     1      -0.377   1.052  25.497  0.00  0.00    +0.018 C 
ATOM     15  C   UNL     1      -0.719   1.786  25.493  0.00  0.00    +0.010 C 
ATOM     16  C   UNL     1      -0.415   2.300  26.162  0.00  0.00    +0.018 C 
ATOM     17  C   UNL     1      -0.457   1.758  25.800  0.00  0.00    +0.072 C 
ATOM     18  N   UNL     1      -0.868   1.231  24.992  0.00  0.00    -0.272 NA
ATOM     19  C   UNL     1      -1.489   1.619  24.447  0.00  0.00    +0.078 C 
ATOM     20  C   UNL     1      -1.316   2.153  24.965  0.00  0.00    +0.056 C 
ENDROOT
BRANCH  20  21
ATOM     21  C   UNL     1      -1.626   2.917  25.017  0.00  0.00    +0.063 A 
ATOM     22  C   UNL     1      -2.428   3.025  25.180  0.00  0.00    +0.034 A 
ATOM     23  C   UNL     1      -2.738   3.788  25.232  0.00  0.00    +0.084 A 
ATOM     24  N   UNL     1      -2.247   4.442  25.121  0.00  0.00    -0.231 NA
ATOM     25  C   UNL     1      -1.446   4.332  24.959  0.00  0.00    +0.139 A 
ATOM     26  C   UNL     1      -0.954   4.986  24.849  0.00  0.00    +0.074 C 
ATOM     27  N   UNL     1      -1.135   3.569  24.907  0.00  0.00    -0.235 NA
BRANCH  23  28
ATOM     28  C   UNL     1      -3.540   3.897  25.394  0.00  0.00    +0.024 A 
ATOM     29  C   UNL     1      -4.088   3.901  24.777  0.00  0.00    +0.036 A 
ATOM     30 BR   UNL     1      -3.835   3.795  23.999  0.00  0.00    -0.049 Br
ATOM     31  C   UNL     1      -4.889   4.010  24.939  0.00  0.00    +0.007 A 
ATOM     32  C   UNL     1      -5.142   4.117  25.717  0.00  0.00    +0.001 A 
ATOM     33  C   UNL     1      -4.594   4.113  26.333  0.00  0.00    +0.000 A 
ATOM     34  C   UNL     1      -3.792   4.003  26.172  0.00  0.00    +0.002 A 
ENDBRANCH  23  28
ENDBRANCH  20  21
BRANCH  13  12
ATOM     12  C   UNL     1      -0.418  -0.279  24.687  0.00  0.00    +0.131 C 
BRANCH  12  11
ATOM     11  N   UNL     1      -0.583  -0.937  25.156  0.00  0.00    -0.076 NA
BRANCH  11   8
ATOM      8  S   UNL     1      -1.220  -1.427  24.969  0.00  0.00    +0.077 S 
ATOM      9  O   UNL     1      -0.983  -1.436  24.179  0.00  0.00    -0.152 OA
ATOM     10  O   UNL     1      -1.457  -1.418  25.759  0.00  0.00    -0.152 OA
BRANCH   8   5
ATOM      1  C   UNL     1      -3.769  -3.387  24.227  0.00  0.00    +0.031 C 
ATOM      2  C   UNL     1      -3.131  -2.897  24.412  0.00  0.00    -0.022 A 
ATOM      3  C   UNL     1      -2.383  -3.060  24.107  0.00  0.00    -0.003 A 
ATOM      4  C   UNL     1      -1.745  -2.570  24.292  0.00  0.00    +0.020 A 
ATOM      5  C   UNL     1      -1.856  -1.917  24.783  0.00  0.00    +0.124 A 
ATOM      6  C   UNL     1      -2.606  -1.754  25.089  0.00  0.00    +0.020 A 
ATOM      7  C   UNL     1      -3.242  -2.244  24.903  0.00  0.00    -0.003 A 
ENDBRANCH   8   5
ENDBRANCH  11   8
ENDBRANCH  12  11
ENDBRANCH  13  12
TORSDOF 6
ENDMDL
