MODEL 1
REMARK VINA RESULT:      -8.0      0.000      0.000
REMARK  Name = 
REMARK  6 active torsions:
REMARK  status: ('A' for Active; 'I' for Inactive)
REMARK    1  A    between atoms: S_2  and  N_5
REMARK    2  A    between atoms: N_5  and  C_6
REMARK    3  A    between atoms: C_6  and  C_7
REMARK    4  A    between atoms: C_10  and  N_11
REMARK    5  A    between atoms: N_11  and  C_12
REMARK    6  A    between atoms: C_12  and  C_13
REMARK                            x       y       z     vdW  Elec       q    Type
REMARK                         _______ _______ _______ _____ _____    ______ ____
ROOT
ATOM      7  C   UNL     1      -2.996   2.089  24.764  0.00  0.00    +0.166 C 
ATOM      8  O   UNL     1      -3.766   2.020  25.051  0.00  0.00    -0.350 OA
ATOM      9  C   UNL     1      -4.011   1.241  24.938  0.00  0.00    +0.162 C 
ATOM     10  C   UNL     1      -3.392   0.828  24.580  0.00  0.00    +0.135 C 
ATOM     19  C   UNL     1      -2.765   1.352  24.473  0.00  0.00    +0.199 C 
ATOM     20  O   UNL     1      -2.035   1.172  24.135  0.00  0.00    -0.219 OA
ENDROOT
BRANCH   7   6
ATOM      6  C   UNL     1      -2.537   2.775  24.767  0.00  0.00    +0.147 C 
BRANCH   6   5
ATOM      5  N   UNL     1      -2.716   3.388  25.288  0.00  0.00    -0.079 NA
BRANCH   5   2
ATOM      1  C   UNL     1      -1.765   4.735  25.333  0.00  0.00    +0.197 C 
ATOM      2  S   UNL     1      -2.240   4.063  25.311  0.00  0.00    +0.059 S 
ATOM      3  O   UNL     1      -2.636   4.365  24.653  0.00  0.00    -0.156 OA
ATOM      4  O   UNL     1      -1.844   3.761  25.968  0.00  0.00    -0.156 OA
ENDBRANCH   5   2
ENDBRANCH   6   5
ENDBRANCH   7   6
BRANCH  10  11
ATOM     11  N   UNL     1      -3.400   0.031  24.368  0.00  0.00    -0.209 NA
BRANCH  11  12
ATOM     12  C   UNL     1      -3.929  -0.488  24.732  0.00  0.00    +0.115 C 
BRANCH  12  13
ATOM     13  C   UNL     1      -3.876  -1.299  24.589  0.00  0.00    -0.002 A 
ATOM     14  C   UNL     1      -4.227  -1.622  23.915  0.00  0.00    +0.018 A 
ATOM     15  C   UNL     1      -4.174  -2.432  23.771  0.00  0.00    +0.099 A 
ATOM     16  N   UNL     1      -3.769  -2.920  24.300  0.00  0.00    -0.242 NA
ATOM     17  C   UNL     1      -3.418  -2.596  24.973  0.00  0.00    +0.099 A 
ATOM     18  C   UNL     1      -3.472  -1.786  25.117  0.00  0.00    +0.018 A 
ENDBRANCH  12  13
ENDBRANCH  11  12
ENDBRANCH  10  11
TORSDOF 6
ENDMDL
MODEL 2
REMARK VINA RESULT:      -7.4      2.150      5.232
REMARK  Name = 
REMARK  6 active torsions:
REMARK  status: ('A' for Active; 'I' for Inactive)
REMARK    1  A    between atoms: S_2  and  N_5
REMARK    2  A    between atoms: N_5  and  C_6
REMARK    3  A    between atoms: C_6  and  C_7
REMARK    4  A    between atoms: C_10  and  N_11
REMARK    5  A    between atoms: N_11  and  C_12
REMARK    6  A    between atoms: C_12  and  C_13
REMARK                            x       y       z     vdW  Elec       q    Type
REMARK                         _______ _______ _______ _____ _____    ______ ____
ROOT
ATOM      7  C   UNL     1      -2.319   0.025  24.877  0.00  0.00    +0.166 C 
ATOM      8  O   UNL     1      -1.659   0.056  25.371  0.00  0.00    -0.350 OA
ATOM      9  C   UNL     1      -1.427   0.844  25.437  0.00  0.00    +0.162 C 
ATOM     10  C   UNL     1      -1.943   1.301  24.983  0.00  0.00    +0.135 C 
ATOM     19  C   UNL     1      -2.494   0.795  24.637  0.00  0.00    +0.199 C 
ATOM     20  O   UNL     1      -3.112   1.019  24.139  0.00  0.00    -0.219 OA
ENDROOT
BRANCH   7   6
ATOM      6  C   UNL     1      -2.731  -0.656  24.660  0.00  0.00    +0.147 C 
BRANCH   6   5
ATOM      5  N   UNL     1      -2.600  -1.363  25.064  0.00  0.00    -0.079 NA
BRANCH   5   2
ATOM      1  C   UNL     1      -3.472  -2.708  24.674  0.00  0.00    +0.197 C 
ATOM      2  S   UNL     1      -3.037  -2.036  24.868  0.00  0.00    +0.059 S 
ATOM      3  O   UNL     1      -3.577  -1.860  25.467  0.00  0.00    -0.156 OA
ATOM      4  O   UNL     1      -2.497  -2.213  24.270  0.00  0.00    -0.156 OA
ENDBRANCH   5   2
ENDBRANCH   6   5
ENDBRANCH   7   6
BRANCH  10  11
ATOM     11  N   UNL     1      -1.912   2.121  24.892  0.00  0.00    -0.209 NA
BRANCH  11  12
ATOM     12  C   UNL     1      -1.480   2.580  25.425  0.00  0.00    +0.115 C 
BRANCH  12  13
ATOM     13  C   UNL     1      -1.462   3.400  25.343  0.00  0.00    -0.002 A 
ATOM     14  C   UNL     1      -2.094   3.855  25.617  0.00  0.00    +0.018 A 
ATOM     15  C   UNL     1      -2.076   4.676  25.534  0.00  0.00    +0.099 A 
ATOM     16  N   UNL     1      -1.428   5.042  25.178  0.00  0.00    -0.242 NA
ATOM     17  C   UNL     1      -0.797   4.586  24.904  0.00  0.00    +0.099 A 
ATOM     18  C   UNL     1      -0.814   3.765  24.987  0.00  0.00    +0.018 A 
ENDBRANCH  12  13
ENDBRANCH  11  12
ENDBRANCH  10  11
TORSDOF 6
ENDMDL
MODEL 3
REMARK VINA RESULT:      -6.7      2.973      4.147
REMARK  Name = 
REMARK  6 active torsions:
REMARK  status: ('A' for Active; 'I' for Inactive)
REMARK    1  A    between atoms: S_2  and  N_5
REMARK    2  A    between atoms: N_5  and  C_6
REMARK    3  A    between atoms: C_6  and  C_7
REMARK    4  A    between atoms: C_10  and  N_11
REMARK    5  A    between atoms: N_11  and  C_12
REMARK    6  A    between atoms: C_12  and  C_13
REMARK                            x       y       z     vdW  Elec       q    Type
REMARK                         _______ _______ _______ _____ _____    ______ ____
ROOT
ATOM      7  C   UNL     1      -1.385   1.124  24.042  0.00  0.00    +0.166 C 
ATOM      8  O   UNL     1      -1.788   1.342  23.357  0.00  0.00    -0.350 OA
ATOM      9  C   UNL     1      -2.509   1.674  23.581  0.00  0.00    +0.162 C 
ATOM     10  C   UNL     1      -2.551   1.661  24.404  0.00  0.00    +0.135 C 
ATOM     19  C   UNL     1      -1.857   1.321  24.690  0.00  0.00    +0.199 C 
ATOM     20  O   UNL     1      -1.667   1.199  25.483  0.00  0.00    -0.219 OA
ENDROOT
BRANCH   7   6
ATOM      6  C   UNL     1      -0.640   0.770  24.075  0.00  0.00    +0.147 C 
BRANCH   6   5
ATOM      5  N   UNL     1      -0.285   0.494  23.384  0.00  0.00    -0.079 NA
BRANCH   5   2
ATOM      1  C   UNL     1       1.203  -0.217  23.450  0.00  0.00    +0.197 C 
ATOM      2  S   UNL     1       0.460   0.138  23.417  0.00  0.00    +0.059 S 
ATOM      3  O   UNL     1       0.103  -0.604  23.470  0.00  0.00    -0.156 OA
ATOM      4  O   UNL     1       0.817   0.879  23.364  0.00  0.00    -0.156 OA
ENDBRANCH   5   2
ENDBRANCH   6   5
ENDBRANCH   7   6
BRANCH  10  11
ATOM     11  N   UNL     1      -3.179   1.940  24.862  0.00  0.00    -0.209 NA
BRANCH  11  12
ATOM     12  C   UNL     1      -3.873   2.199  24.498  0.00  0.00    +0.115 C 
BRANCH  12  13
ATOM     13  C   UNL     1      -4.501   2.475  24.956  0.00  0.00    -0.002 A 
ATOM     14  C   UNL     1      -4.541   3.273  25.163  0.00  0.00    +0.018 A 
ATOM     15  C   UNL     1      -5.169   3.548  25.621  0.00  0.00    +0.099 A 
ATOM     16  N   UNL     1      -5.757   3.026  25.872  0.00  0.00    -0.242 NA
ATOM     17  C   UNL     1      -5.716   2.229  25.664  0.00  0.00    +0.099 A 
ATOM     18  C   UNL     1      -5.088   1.953  25.206  0.00  0.00    +0.018 A 
ENDBRANCH  12  13
ENDBRANCH  11  12
ENDBRANCH  10  11
TORSDOF 6
ENDMDL
MODEL 4
REMARK VINA RESULT:      -6.5      2.581      4.646
REMARK  Name = 
REMARK  6 active torsions:
REMARK  status: ('A' for Active; 'I' for Inactive)
REMARK    1  A    between atoms: S_2  and  N_5
REMARK    2  A    between atoms: N_5  and  C_6
REMARK    3  A    between atoms: C_6  and  C_7
REMARK    4  A    between atoms: C_10  and  N_11
REMARK    5  A    between atoms: N_11  and  C_12
REMARK    6  A    between atoms: C_12  and  C_13
REMARK                            x       y       z     vdW  Elec       q    Type
REMARK                         _______ _______ _______ _____ _____    ______ ____
ROOT
ATOM      7  C   UNL     1      -2.886  -0.452  24.614  0.00  0.00    +0.166 C 
ATOM      8  O   UNL     1      -2.716   0.075  24.002  0.00  0.00    -0.350 OA
ATOM      9  C   UNL     1      -3.238   0.711  24.061  0.00  0.00    +0.162 C 
ATOM     10  C   UNL     1      -3.730   0.578  24.709  0.00  0.00    +0.135 C 
ATOM     19  C   UNL     1      -3.514  -0.140  25.051  0.00  0.00    +0.199 C 
ATOM     20  O   UNL     1      -3.862  -0.487  25.713  0.00  0.00    -0.219 OA
ENDROOT
BRANCH   7   6
ATOM      6  C   UNL     1      -2.498  -1.164  24.763  0.00  0.00    +0.147 C 
BRANCH   6   5
ATOM      5  N   UNL     1      -1.731  -1.281  24.485  0.00  0.00    -0.079 NA
BRANCH   5   2
ATOM      1  C   UNL     1      -0.890  -2.630  24.929  0.00  0.00    +0.197 C 
ATOM      2  S   UNL     1      -1.310  -1.956  24.707  0.00  0.00    +0.059 S 
ATOM      3  O   UNL     1      -0.817  -1.493  25.180  0.00  0.00    -0.156 OA
ATOM      4  O   UNL     1      -1.803  -2.419  24.235  0.00  0.00    -0.156 OA
ENDBRANCH   5   2
ENDBRANCH   6   5
ENDBRANCH   7   6
BRANCH  10  11
ATOM     11  N   UNL     1      -4.335   1.077  24.969  0.00  0.00    -0.209 NA
BRANCH  11  12
ATOM     12  C   UNL     1      -4.451   1.808  24.605  0.00  0.00    +0.115 C 
BRANCH  12  13
ATOM     13  C   UNL     1      -4.879   2.397  24.993  0.00  0.00    -0.002 A 
ATOM     14  C   UNL     1      -4.525   3.126  25.151  0.00  0.00    +0.018 A 
ATOM     15  C   UNL     1      -4.953   3.716  25.539  0.00  0.00    +0.099 A 
ATOM     16  N   UNL     1      -5.734   3.577  25.768  0.00  0.00    -0.242 NA
ATOM     17  C   UNL     1      -6.086   2.848  25.609  0.00  0.00    +0.099 A 
ATOM     18  C   UNL     1      -5.659   2.259  25.221  0.00  0.00    +0.018 A 
ENDBRANCH  12  13
ENDBRANCH  11  12
ENDBRANCH  10  11
TORSDOF 6
ENDMDL
