MODEL 1
REMARK VINA RESULT:     -15.8      0.000      0.000
REMARK  Name = 
REMARK  3 active torsions:
REMARK  status: ('A' for Active; 'I' for Inactive)
REMARK    1  A    between atoms: O_2  and  C_3
REMARK    2  A    between atoms: C_6  and  C_9
REMARK    3  A    between atoms: N_21  and  C_22
REMARK                            x       y       z     vdW  Elec       q    Type
REMARK                         _______ _______ _______ _____ _____    ______ ____
ROOT
ATOM      9  C   UNL     1      -3.592   0.161  24.259  0.00  0.00    +0.056 A 
ATOM     10  C   UNL     1      -4.304  -0.228  24.109  0.00  0.00    +0.006 A 
ATOM     11  C   UNL     1      -4.341  -1.051  24.148  0.00  0.00    +0.013 A 
ATOM     12  C   UNL     1      -3.666  -1.486  24.337  0.00  0.00    +0.041 A 
ATOM     13  C   UNL     1      -3.385  -2.353  24.455  0.00  0.00    +0.058 C 
ATOM     14  C   UNL     1      -3.618  -3.014  24.437  0.00  0.00    +0.011 C 
ATOM     15  C   UNL     1      -2.917  -2.627  24.584  0.00  0.00    +0.043 C 
ATOM     16  C   UNL     1      -1.992  -2.348  24.792  0.00  0.00    +0.097 C 
ATOM     17  N   UNL     1      -2.077  -1.520  24.724  0.00  0.00    -0.262 N 
ATOM     18  C   UNL     1      -2.487  -2.099  24.658  0.00  0.00    +0.101 C 
ATOM     19  C   UNL     1      -1.867  -0.721  24.728  0.00  0.00    +0.323 C 
ATOM     20  O   UNL     1      -2.433  -0.145  24.558  0.00  0.00    -0.251 OA
ATOM     21  N   UNL     1      -1.093  -0.500  24.903  0.00  0.00    -0.190 NA
ATOM     28  C   UNL     1      -3.201  -1.718  24.463  0.00  0.00    +0.110 C 
ATOM     29  N   UNL     1      -2.953  -1.097  24.487  0.00  0.00    -0.299 N 
ATOM     30  C   UNL     1      -2.916  -0.274  24.448  0.00  0.00    +0.261 A 
ATOM     31  O   UNL     1      -2.353   0.320  24.550  0.00  0.00    -0.267 OA
ENDROOT
BRANCH   9   6
ATOM      3  C   UNL     1      -3.484   2.630  24.145  0.00  0.00    +0.139 A 
ATOM      4  C   UNL     1      -3.316   2.179  23.475  0.00  0.00    +0.037 A 
ATOM      5  C   UNL     1      -3.352   1.355  23.513  0.00  0.00    +0.003 A 
ATOM      6  C   UNL     1      -3.556   0.984  24.221  0.00  0.00    +0.005 A 
ATOM      7  C   UNL     1      -3.724   1.436  24.890  0.00  0.00    +0.003 A 
ATOM      8  C   UNL     1      -3.688   2.259  24.852  0.00  0.00    +0.037 A 
BRANCH   3   2
ATOM      1  C   UNL     1      -3.562   3.903  24.788  0.00  0.00    +0.252 C 
ATOM      2  O   UNL     1      -3.448   3.454  24.106  0.00  0.00    -0.471 OA
ENDBRANCH   3   2
ENDBRANCH   9   6
BRANCH  21  22
ATOM     22  C   UNL     1      -0.883   0.299  24.908  0.00  0.00    +0.097 C 
ATOM     23  C   UNL     1      -0.606   0.656  24.218  0.00  0.00    +0.022 C 
ATOM     24  C   UNL     1      -0.396   1.454  24.223  0.00  0.00    +0.002 C 
ATOM     25  C   UNL     1      -0.464   1.895  24.918  0.00  0.00    +0.000 C 
ATOM     26  C   UNL     1      -0.741   1.536  25.607  0.00  0.00    +0.002 C 
ATOM     27  C   UNL     1      -0.951   0.739  25.603  0.00  0.00    +0.022 C 
ENDBRANCH  21  22
TORSDOF 3
ENDMDL
MODEL 2
REMARK VINA RESULT:     -15.7      1.473      3.810
REMARK  Name = 
REMARK  3 active torsions:
REMARK  status: ('A' for Active; 'I' for Inactive)
REMARK    1  A    between atoms: O_2  and  C_3
REMARK    2  A    between atoms: C_6  and  C_9
REMARK    3  A    between atoms: N_21  and  C_22
REMARK                            x       y       z     vdW  Elec       q    Type
REMARK                         _______ _______ _______ _____ _____    ______ ____
ROOT
ATOM      9  C   UNL     1      -4.356   0.781  24.877  0.00  0.00    +0.056 A 
ATOM     10  C   UNL     1      -5.156   0.968  24.952  0.00  0.00    +0.006 A 
ATOM     11  C   UNL     1      -5.386   1.749  25.085  0.00  0.00    +0.013 A 
ATOM     12  C   UNL     1      -4.816   2.343  25.142  0.00  0.00    +0.041 A 
ATOM     13  C   UNL     1      -4.740   3.249  25.276  0.00  0.00    +0.058 C 
ATOM     14  C   UNL     1      -5.127   3.823  25.387  0.00  0.00    +0.011 C 
ATOM     15  C   UNL     1      -4.338   3.634  25.312  0.00  0.00    +0.043 C 
ATOM     16  C   UNL     1      -3.353   3.607  25.251  0.00  0.00    +0.097 C 
ATOM     17  N   UNL     1      -3.243   2.790  25.119  0.00  0.00    -0.262 N 
ATOM     18  C   UNL     1      -3.786   3.239  25.220  0.00  0.00    +0.101 C 
ATOM     19  C   UNL     1      -2.847   2.077  24.987  0.00  0.00    +0.323 C 
ATOM     20  O   UNL     1      -3.275   1.376  24.905  0.00  0.00    -0.251 OA
ATOM     21  N   UNL     1      -2.024   2.066  24.938  0.00  0.00    -0.190 NA
ATOM     28  C   UNL     1      -4.408   2.687  25.171  0.00  0.00    +0.110 C 
ATOM     29  N   UNL     1      -4.016   2.155  25.067  0.00  0.00    -0.299 N 
ATOM     30  C   UNL     1      -3.786   1.374  24.934  0.00  0.00    +0.261 A 
ATOM     31  O   UNL     1      -3.086   0.951  24.829  0.00  0.00    -0.267 OA
ENDROOT
BRANCH   9   6
ATOM      3  C   UNL     1      -3.669  -1.563  24.476  0.00  0.00    +0.139 A 
ATOM      4  C   UNL     1      -3.727  -1.277  25.248  0.00  0.00    +0.037 A 
ATOM      5  C   UNL     1      -3.956  -0.495  25.382  0.00  0.00    +0.003 A 
ATOM      6  C   UNL     1      -4.127  -0.000  24.744  0.00  0.00    +0.005 A 
ATOM      7  C   UNL     1      -4.069  -0.287  23.972  0.00  0.00    +0.003 A 
ATOM      8  C   UNL     1      -3.840  -1.068  23.839  0.00  0.00    +0.037 A 
BRANCH   3   2
ATOM      1  C   UNL     1      -3.315  -2.851  24.981  0.00  0.00    +0.252 C 
ATOM      2  O   UNL     1      -3.440  -2.345  24.343  0.00  0.00    -0.471 OA
ENDBRANCH   3   2
ENDBRANCH   9   6
BRANCH  21  22
ATOM     22  C   UNL     1      -1.628   1.354  24.806  0.00  0.00    +0.097 C 
ATOM     23  C   UNL     1      -1.468   1.108  24.035  0.00  0.00    +0.022 C 
ATOM     24  C   UNL     1      -1.072   0.396  23.904  0.00  0.00    +0.002 C 
ATOM     25  C   UNL     1      -0.836  -0.069  24.543  0.00  0.00    +0.000 C 
ATOM     26  C   UNL     1      -0.997   0.177  25.313  0.00  0.00    +0.002 C 
ATOM     27  C   UNL     1      -1.392   0.889  25.446  0.00  0.00    +0.022 C 
ENDBRANCH  21  22
TORSDOF 3
ENDMDL
MODEL 3
REMARK VINA RESULT:     -15.5      1.514      4.071
REMARK  Name = 
REMARK  3 active torsions:
REMARK  status: ('A' for Active; 'I' for Inactive)
REMARK    1  A    between atoms: O_2  and  C_3
REMARK    2  A    between atoms: C_6  and  C_9
REMARK    3  A    between atoms: N_21  and  C_22
REMARK                            x       y       z     vdW  Elec       q    Type
REMARK                         _______ _______ _______ _____ _____    ______ ____
ROOT
ATOM      9  C   UNL     1      -2.735   1.922  24.837  0.00  0.00    +0.056 A 
ATOM     10  C   UNL     1      -2.639   2.740  24.877  0.00  0.00    +0.006 A 
ATOM     11  C   UNL     1      -3.292   3.226  25.017  0.00  0.00    +0.013 A 
ATOM     12  C   UNL     1      -4.040   2.892  25.116  0.00  0.00    +0.041 A 
ATOM     13  C   UNL     1      -4.912   3.132  25.275  0.00  0.00    +0.058 C 
ATOM     14  C   UNL     1      -5.318   3.695  25.380  0.00  0.00    +0.011 C 
ATOM     15  C   UNL     1      -5.409   2.886  25.340  0.00  0.00    +0.043 C 
ATOM     16  C   UNL     1      -5.717   1.948  25.327  0.00  0.00    +0.097 C 
ATOM     17  N   UNL     1      -4.990   1.563  25.182  0.00  0.00    -0.262 N 
ATOM     18  C   UNL     1      -5.226   2.230  25.266  0.00  0.00    +0.101 C 
ATOM     19  C   UNL     1      -4.458   0.945  25.053  0.00  0.00    +0.323 C 
ATOM     20  O   UNL     1      -3.658   1.108  24.933  0.00  0.00    -0.251 OA
ATOM     21  N   UNL     1      -4.727   0.166  25.045  0.00  0.00    -0.190 NA
ATOM     28  C   UNL     1      -4.500   2.626  25.174  0.00  0.00    +0.110 C 
ATOM     29  N   UNL     1      -4.135   2.073  25.077  0.00  0.00    -0.299 N 
ATOM     30  C   UNL     1      -3.483   1.588  24.937  0.00  0.00    +0.261 A 
ATOM     31  O   UNL     1      -3.324   0.783  24.857  0.00  0.00    -0.267 OA
ENDROOT
BRANCH   9   6
ATOM      3  C   UNL     1      -0.777   0.468  24.416  0.00  0.00    +0.139 A 
ATOM      4  C   UNL     1      -0.990   0.658  25.190  0.00  0.00    +0.037 A 
ATOM      5  C   UNL     1      -1.643   1.143  25.331  0.00  0.00    +0.003 A 
ATOM      6  C   UNL     1      -2.082   1.437  24.698  0.00  0.00    +0.005 A 
ATOM      7  C   UNL     1      -1.868   1.247  23.924  0.00  0.00    +0.003 A 
ATOM      8  C   UNL     1      -1.216   0.763  23.783  0.00  0.00    +0.037 A 
BRANCH   3   2
ATOM      1  C   UNL     1       0.169  -0.101  23.510  0.00  0.00    +0.252 C 
ATOM      2  O   UNL     1      -0.123  -0.017  24.276  0.00  0.00    -0.471 OA
ENDBRANCH   3   2
ENDBRANCH   9   6
BRANCH  21  22
ATOM     22  C   UNL     1      -4.195  -0.453  24.916  0.00  0.00    +0.097 C 
ATOM     23  C   UNL     1      -3.804  -0.800  25.554  0.00  0.00    +0.022 C 
ATOM     24  C   UNL     1      -3.273  -1.418  25.425  0.00  0.00    +0.002 C 
ATOM     25  C   UNL     1      -3.133  -1.688  24.657  0.00  0.00    +0.000 C 
ATOM     26  C   UNL     1      -3.524  -1.341  24.020  0.00  0.00    +0.002 C 
ATOM     27  C   UNL     1      -4.055  -0.723  24.148  0.00  0.00    +0.022 C 
ENDBRANCH  21  22
TORSDOF 3
ENDMDL
MODEL 4
REMARK VINA RESULT:     -15.3      0.823      2.501
REMARK  Name = 
REMARK  3 active torsions:
REMARK  status: ('A' for Active; 'I' for Inactive)
REMARK    1  A    between atoms: O_2  and  C_3
REMARK    2  A    between atoms: C_6  and  C_9
REMARK    3  A    between atoms: N_21  and  C_22
REMARK                            x       y       z     vdW  Elec       q    Type
REMARK                         _______ _______ _______ _____ _____    ______ ____
ROOT
ATOM      9  C   UNL     1      -1.660  -0.535  24.833  0.00  0.00    +0.056 A 
ATOM     10  C   UNL     1      -1.330  -1.273  24.997  0.00  0.00    +0.006 A 
ATOM     11  C   UNL     1      -1.781  -1.957  24.903  0.00  0.00    +0.013 A 
ATOM     12  C   UNL     1      -2.563  -1.903  24.646  0.00  0.00    +0.041 A 
ATOM     13  C   UNL     1      -3.288  -2.432  24.451  0.00  0.00    +0.058 C 
ATOM     14  C   UNL     1      -3.492  -3.104  24.437  0.00  0.00    +0.011 C 
ATOM     15  C   UNL     1      -3.815  -2.374  24.276  0.00  0.00    +0.043 C 
ATOM     16  C   UNL     1      -4.375  -1.597  24.035  0.00  0.00    +0.097 C 
ATOM     17  N   UNL     1      -3.825  -0.981  24.165  0.00  0.00    -0.262 N 
ATOM     18  C   UNL     1      -3.843  -1.692  24.214  0.00  0.00    +0.101 C 
ATOM     19  C   UNL     1      -3.524  -0.214  24.204  0.00  0.00    +0.323 C 
ATOM     20  O   UNL     1      -2.745  -0.089  24.447  0.00  0.00    -0.251 OA
ATOM     21  N   UNL     1      -4.001   0.427  24.000  0.00  0.00    -0.190 NA
ATOM     28  C   UNL     1      -3.062  -1.812  24.477  0.00  0.00    +0.110 C 
ATOM     29  N   UNL     1      -2.893  -1.165  24.482  0.00  0.00    -0.299 N 
ATOM     30  C   UNL     1      -2.442  -0.481  24.575  0.00  0.00    +0.261 A 
ATOM     31  O   UNL     1      -2.536   0.333  24.482  0.00  0.00    -0.267 OA
ENDROOT
BRANCH   9   6
ATOM      3  C   UNL     1      -0.305   1.516  25.116  0.00  0.00    +0.139 A 
ATOM      4  C   UNL     1      -0.308   1.122  24.391  0.00  0.00    +0.037 A 
ATOM      5  C   UNL     1      -0.761   0.437  24.297  0.00  0.00    +0.003 A 
ATOM      6  C   UNL     1      -1.208   0.149  24.927  0.00  0.00    +0.005 A 
ATOM      7  C   UNL     1      -1.204   0.544  25.651  0.00  0.00    +0.003 A 
ATOM      8  C   UNL     1      -0.752   1.228  25.746  0.00  0.00    +0.037 A 
BRANCH   3   2
ATOM      1  C   UNL     1       0.109   2.625  25.916  0.00  0.00    +0.252 C 
ATOM      2  O   UNL     1       0.148   2.201  25.210  0.00  0.00    -0.471 OA
ENDBRANCH   3   2
ENDBRANCH   9   6
BRANCH  21  22
ATOM     22  C   UNL     1      -3.699   1.194  24.039  0.00  0.00    +0.097 C 
ATOM     23  C   UNL     1      -3.321   1.523  23.382  0.00  0.00    +0.022 C 
ATOM     24  C   UNL     1      -3.020   2.290  23.422  0.00  0.00    +0.002 C 
ATOM     25  C   UNL     1      -3.096   2.729  24.117  0.00  0.00    +0.000 C 
ATOM     26  C   UNL     1      -3.473   2.400  24.772  0.00  0.00    +0.002 C 
ATOM     27  C   UNL     1      -3.775   1.633  24.734  0.00  0.00    +0.022 C 
ENDBRANCH  21  22
TORSDOF 3
ENDMDL
MODEL 5
REMARK VINA RESULT:     -15.1      2.138      3.762
REMARK  Name = 
REMARK  3 active torsions:
REMARK  status: ('A' for Active; 'I' for Inactive)
REMARK    1  A    between atoms: O_2  and  C_3
REMARK    2  A    between atoms: C_6  and  C_9
REMARK    3  A    between atoms: N_21  and  C_22
REMARK                            x       y       z     vdW  Elec       q    Type
REMARK                         _______ _______ _______ _____ _____    ______ ____
ROOT
ATOM      9  C   UNL     1      -3.245   1.226  24.568  0.00  0.00    +0.056 A 
ATOM     10  C   UNL     1      -3.781   0.622  24.402  0.00  0.00    +0.006 A 
ATOM     11  C   UNL     1      -4.586   0.733  24.544  0.00  0.00    +0.013 A 
ATOM     12  C   UNL     1      -4.855   1.450  24.851  0.00  0.00    +0.041 A 
ATOM     13  C   UNL     1      -5.631   1.870  25.108  0.00  0.00    +0.058 C 
ATOM     14  C   UNL     1      -6.324   1.767  25.153  0.00  0.00    +0.011 C 
ATOM     15  C   UNL     1      -5.792   2.362  25.316  0.00  0.00    +0.043 C 
ATOM     16  C   UNL     1      -5.314   3.187  25.574  0.00  0.00    +0.097 C 
ATOM     17  N   UNL     1      -4.531   2.959  25.391  0.00  0.00    -0.262 N 
ATOM     18  C   UNL     1      -5.184   2.675  25.362  0.00  0.00    +0.101 C 
ATOM     19  C   UNL     1      -3.712   3.015  25.312  0.00  0.00    +0.323 C 
ATOM     20  O   UNL     1      -3.281   2.377  25.014  0.00  0.00    -0.251 OA
ATOM     21  N   UNL     1      -3.323   3.709  25.531  0.00  0.00    -0.190 NA
ATOM     28  C   UNL     1      -4.976   1.931  25.051  0.00  0.00    +0.110 C 
ATOM     29  N   UNL     1      -4.319   2.055  25.018  0.00  0.00    -0.299 N 
ATOM     30  C   UNL     1      -3.514   1.943  24.876  0.00  0.00    +0.261 A 
ATOM     31  O   UNL     1      -2.813   2.370  24.954  0.00  0.00    -0.267 OA
ENDROOT
BRANCH   9   6
ATOM      3  C   UNL     1      -0.831   0.889  24.141  0.00  0.00    +0.139 A 
ATOM      4  C   UNL     1      -1.153   0.681  24.872  0.00  0.00    +0.037 A 
ATOM      5  C   UNL     1      -1.959   0.794  25.014  0.00  0.00    +0.003 A 
ATOM      6  C   UNL     1      -2.441   1.114  24.427  0.00  0.00    +0.005 A 
ATOM      7  C   UNL     1      -2.118   1.322  23.696  0.00  0.00    +0.003 A 
ATOM      8  C   UNL     1      -1.313   1.209  23.554  0.00  0.00    +0.037 A 
BRANCH   3   2
ATOM      1  C   UNL     1       0.228   0.123  23.567  0.00  0.00    +0.252 C 
ATOM      2  O   UNL     1      -0.026   0.777  23.999  0.00  0.00    -0.471 OA
ENDBRANCH   3   2
ENDBRANCH   9   6
BRANCH  21  22
ATOM     22  C   UNL     1      -2.503   3.765  25.452  0.00  0.00    +0.097 C 
ATOM     23  C   UNL     1      -2.012   3.516  26.066  0.00  0.00    +0.022 C 
ATOM     24  C   UNL     1      -1.193   3.573  25.987  0.00  0.00    +0.002 C 
ATOM     25  C   UNL     1      -0.865   3.878  25.293  0.00  0.00    +0.000 C 
ATOM     26  C   UNL     1      -1.357   4.126  24.680  0.00  0.00    +0.002 C 
ATOM     27  C   UNL     1      -2.176   4.070  24.758  0.00  0.00    +0.022 C 
ENDBRANCH  21  22
TORSDOF 3
ENDMDL
