MODEL 1
REMARK VINA RESULT:     -13.1      0.000      0.000
REMARK  Name = 
REMARK  6 active torsions:
REMARK  status: ('A' for Active; 'I' for Inactive)
REMARK    1  A    between atoms: O_2  and  C_3
REMARK    2  A    between atoms: C_6  and  C_9
REMARK    3  A    between atoms: C_18  and  C_20
REMARK    4  A    between atoms: C_28  and  C_29
REMARK    5  A    between atoms: C_29  and  C_30
REMARK    6  A    between atoms: N_32  and  C_33
REMARK                            x       y       z     vdW  Elec       q    Type
REMARK                         _______ _______ _______ _____ _____    ______ ____
ROOT
ATOM      9  C   UNL     1      -0.057   0.957  23.601  0.00  0.00    +0.271 C 
ATOM     10  O   UNL     1      -0.262   1.755  23.632  0.00  0.00    -0.268 OA
ATOM     11  N   UNL     1      -0.613   0.381  23.800  0.00  0.00    -0.151 NA
ATOM     12  C   UNL     1      -1.374   0.604  24.031  0.00  0.00    +0.185 A 
ATOM     13  N   UNL     1      -1.984   0.092  24.245  0.00  0.00    -0.227 NA
ATOM     14  C   UNL     1      -2.645   0.549  24.433  0.00  0.00    +0.063 A 
ATOM     15  C   UNL     1      -2.442   1.342  24.336  0.00  0.00    +0.023 A 
ATOM     16  C   UNL     1      -3.000   1.932  24.487  0.00  0.00    +0.034 C 
ATOM     17  C   UNL     1      -3.759   1.728  24.735  0.00  0.00    +0.010 C 
ATOM     18  C   UNL     1      -4.316   2.317  24.885  0.00  0.00    +0.059 C 
ATOM     19  C   UNL     1      -3.672   2.782  24.663  0.00  0.00    +0.005 C 
ATOM     22  C   UNL     1      -5.076   2.113  25.134  0.00  0.00    +0.154 C 
ATOM     23  O   UNL     1      -5.633   2.703  25.285  0.00  0.00    -0.223 OA
ATOM     24  C   UNL     1      -5.279   1.320  25.231  0.00  0.00    +0.033 C 
ATOM     25  C   UNL     1      -4.721   0.729  25.080  0.00  0.00    +0.003 C 
ATOM     26  C   UNL     1      -3.962   0.934  24.832  0.00  0.00    +0.006 C 
ATOM     27  C   UNL     1      -4.165   0.140  24.930  0.00  0.00    +0.000 C 
ATOM     28  C   UNL     1      -3.405   0.344  24.682  0.00  0.00    +0.050 C 
ATOM     38  S   UNL     1      -1.656   1.376  24.087  0.00  0.00    -0.054 S 
ENDROOT
BRANCH   9   6
ATOM      3  C   UNL     1       2.224   0.289  22.910  0.00  0.00    +0.139 A 
ATOM      4  C   UNL     1       2.113   0.963  23.373  0.00  0.00    +0.037 A 
ATOM      5  C   UNL     1       1.353   1.185  23.603  0.00  0.00    +0.008 A 
ATOM      6  C   UNL     1       0.703   0.734  23.371  0.00  0.00    +0.056 A 
ATOM      7  C   UNL     1       0.813   0.060  22.908  0.00  0.00    +0.008 A 
ATOM      8  C   UNL     1       1.573  -0.162  22.678  0.00  0.00    +0.037 A 
BRANCH   3   2
ATOM      1  C   UNL     1       3.602   0.611  22.718  0.00  0.00    +0.252 C 
ATOM      2  O   UNL     1       2.984   0.066  22.680  0.00  0.00    -0.471 OA
ENDBRANCH   3   2
ENDBRANCH   9   6
BRANCH  18  20
ATOM     20  C   UNL     1      -4.650   3.068  24.959  0.00  0.00    +0.184 C 
ATOM     21  O   UNL     1      -4.193   3.739  24.813  0.00  0.00    -0.220 OA
ENDBRANCH  18  20
BRANCH  28  29
ATOM     29  C   UNL     1      -3.608  -0.449  24.779  0.00  0.00    +0.093 C 
BRANCH  29  30
ATOM     30  C   UNL     1      -3.446  -0.832  25.492  0.00  0.00    +0.242 C 
ATOM     31  O   UNL     1      -3.286  -0.390  26.170  0.00  0.00    -0.273 OA
ATOM     32  N   UNL     1      -3.444  -1.656  25.527  0.00  0.00    -0.207 NA
BRANCH  32  33
ATOM     33  C   UNL     1      -3.605  -2.097  24.848  0.00  0.00    +0.095 C 
ATOM     34  C   UNL     1      -4.341  -2.181  24.487  0.00  0.00    +0.022 C 
ATOM     35  C   UNL     1      -4.247  -2.668  23.827  0.00  0.00    +0.002 C 
ATOM     36  C   UNL     1      -3.452  -2.885  23.780  0.00  0.00    +0.002 C 
ATOM     37  C   UNL     1      -3.055  -2.532  24.412  0.00  0.00    +0.022 C 
ENDBRANCH  32  33
ENDBRANCH  29  30
ENDBRANCH  28  29
TORSDOF 6
ENDMDL
MODEL 2
REMARK VINA RESULT:     -12.0      1.471      3.435
REMARK  Name = 
REMARK  6 active torsions:
REMARK  status: ('A' for Active; 'I' for Inactive)
REMARK    1  A    between atoms: O_2  and  C_3
REMARK    2  A    between atoms: C_6  and  C_9
REMARK    3  A    between atoms: C_18  and  C_20
REMARK    4  A    between atoms: C_28  and  C_29
REMARK    5  A    between atoms: C_29  and  C_30
REMARK    6  A    between atoms: N_32  and  C_33
REMARK                            x       y       z     vdW  Elec       q    Type
REMARK                         _______ _______ _______ _____ _____    ______ ____
ROOT
ATOM      9  C   UNL     1       0.931   0.183  23.336  0.00  0.00    +0.271 C 
ATOM     10  O   UNL     1       0.655  -0.592  23.389  0.00  0.00    -0.268 OA
ATOM     11  N   UNL     1       0.436   0.811  23.538  0.00  0.00    -0.151 NA
ATOM     12  C   UNL     1      -0.335   0.664  23.792  0.00  0.00    +0.185 A 
ATOM     13  N   UNL     1      -0.889   1.234  24.011  0.00  0.00    -0.227 NA
ATOM     14  C   UNL     1      -1.584   0.844  24.227  0.00  0.00    +0.063 A 
ATOM     15  C   UNL     1      -1.457   0.033  24.141  0.00  0.00    +0.023 A 
ATOM     16  C   UNL     1      -2.062  -0.499  24.319  0.00  0.00    +0.034 C 
ATOM     17  C   UNL     1      -2.793  -0.222  24.582  0.00  0.00    +0.010 C 
ATOM     18  C   UNL     1      -3.397  -0.754  24.759  0.00  0.00    +0.059 C 
ATOM     19  C   UNL     1      -2.805  -1.280  24.530  0.00  0.00    +0.005 C 
ATOM     22  C   UNL     1      -4.128  -0.476  25.023  0.00  0.00    +0.154 C 
ATOM     23  O   UNL     1      -4.733  -1.009  25.201  0.00  0.00    -0.223 OA
ATOM     24  C   UNL     1      -4.254   0.334  25.109  0.00  0.00    +0.033 C 
ATOM     25  C   UNL     1      -3.649   0.868  24.931  0.00  0.00    +0.003 C 
ATOM     26  C   UNL     1      -2.919   0.589  24.668  0.00  0.00    +0.006 C 
ATOM     27  C   UNL     1      -3.045   1.400  24.753  0.00  0.00    +0.000 C 
ATOM     28  C   UNL     1      -2.315   1.122  24.490  0.00  0.00    +0.050 C 
ATOM     38  S   UNL     1      -0.685  -0.078  23.872  0.00  0.00    -0.054 S 
ENDROOT
BRANCH   9   6
ATOM      3  C   UNL     1       3.244   0.625  22.572  0.00  0.00    +0.139 A 
ATOM      4  C   UNL     1       2.920   1.069  23.187  0.00  0.00    +0.037 A 
ATOM      5  C   UNL     1       2.149   0.922  23.441  0.00  0.00    +0.008 A 
ATOM      6  C   UNL     1       1.702   0.330  23.082  0.00  0.00    +0.056 A 
ATOM      7  C   UNL     1       2.025  -0.115  22.467  0.00  0.00    +0.008 A 
ATOM      8  C   UNL     1       2.796   0.032  22.213  0.00  0.00    +0.037 A 
BRANCH   3   2
ATOM      1  C   UNL     1       4.652   0.591  22.808  0.00  0.00    +0.252 C 
ATOM      2  O   UNL     1       4.015   0.772  22.318  0.00  0.00    -0.471 OA
ENDBRANCH   3   2
ENDBRANCH   9   6
BRANCH  18  20
ATOM     20  C   UNL     1      -3.796  -1.470  24.858  0.00  0.00    +0.184 C 
ATOM     21  O   UNL     1      -3.400  -2.183  24.738  0.00  0.00    -0.220 OA
ENDBRANCH  18  20
BRANCH  28  29
ATOM     29  C   UNL     1      -2.441   1.932  24.576  0.00  0.00    +0.093 C 
BRANCH  29  30
ATOM     30  C   UNL     1      -2.660   2.387  23.923  0.00  0.00    +0.242 C 
ATOM     31  O   UNL     1      -2.891   2.018  23.222  0.00  0.00    -0.273 OA
ATOM     32  N   UNL     1      -2.649   3.211  23.971  0.00  0.00    -0.207 NA
BRANCH  32  33
ATOM     33  C   UNL     1      -2.418   3.579  24.673  0.00  0.00    +0.095 C 
ATOM     34  C   UNL     1      -1.652   3.807  24.872  0.00  0.00    +0.022 C 
ATOM     35  C   UNL     1      -1.675   4.153  25.621  0.00  0.00    +0.002 C 
ATOM     36  C   UNL     1      -2.456   4.139  25.885  0.00  0.00    +0.002 C 
ATOM     37  C   UNL     1      -2.916   3.784  25.299  0.00  0.00    +0.022 C 
ENDBRANCH  32  33
ENDBRANCH  29  30
ENDBRANCH  28  29
TORSDOF 6
ENDMDL
MODEL 3
REMARK VINA RESULT:     -11.5      1.724      3.586
REMARK  Name = 
REMARK  6 active torsions:
REMARK  status: ('A' for Active; 'I' for Inactive)
REMARK    1  A    between atoms: O_2  and  C_3
REMARK    2  A    between atoms: C_6  and  C_9
REMARK    3  A    between atoms: C_18  and  C_20
REMARK    4  A    between atoms: C_28  and  C_29
REMARK    5  A    between atoms: C_29  and  C_30
REMARK    6  A    between atoms: N_32  and  C_33
REMARK                            x       y       z     vdW  Elec       q    Type
REMARK                         _______ _______ _______ _____ _____    ______ ____
ROOT
ATOM      9  C   UNL     1       1.047   0.489  23.227  0.00  0.00    +0.271 C 
ATOM     10  O   UNL     1       0.561  -0.152  23.043  0.00  0.00    -0.268 OA
ATOM     11  N   UNL     1       0.733   1.144  23.619  0.00  0.00    -0.151 NA
ATOM     12  C   UNL     1      -0.065   1.157  23.828  0.00  0.00    +0.185 A 
ATOM     13  N   UNL     1      -0.453   1.771  24.219  0.00  0.00    -0.227 NA
ATOM     14  C   UNL     1      -1.243   1.552  24.314  0.00  0.00    +0.063 A 
ATOM     15  C   UNL     1      -1.342   0.804  23.981  0.00  0.00    +0.023 A 
ATOM     16  C   UNL     1      -2.084   0.441  23.996  0.00  0.00    +0.034 C 
ATOM     17  C   UNL     1      -2.725   0.827  24.342  0.00  0.00    +0.010 C 
ATOM     18  C   UNL     1      -3.465   0.464  24.356  0.00  0.00    +0.059 C 
ATOM     19  C   UNL     1      -3.029  -0.117  23.967  0.00  0.00    +0.005 C 
ATOM     22  C   UNL     1      -4.108   0.850  24.702  0.00  0.00    +0.154 C 
ATOM     23  O   UNL     1      -4.849   0.487  24.716  0.00  0.00    -0.223 OA
ATOM     24  C   UNL     1      -4.008   1.598  25.035  0.00  0.00    +0.033 C 
ATOM     25  C   UNL     1      -3.267   1.961  25.021  0.00  0.00    +0.003 C 
ATOM     26  C   UNL     1      -2.626   1.575  24.675  0.00  0.00    +0.006 C 
ATOM     27  C   UNL     1      -2.527   2.323  25.007  0.00  0.00    +0.000 C 
ATOM     28  C   UNL     1      -1.885   1.938  24.661  0.00  0.00    +0.050 C 
ATOM     38  S   UNL     1      -0.614   0.560  23.681  0.00  0.00    -0.054 S 
ENDROOT
BRANCH   9   6
ATOM      3  C   UNL     1       3.442   0.450  22.603  0.00  0.00    +0.139 A 
ATOM      4  C   UNL     1       2.935  -0.145  22.337  0.00  0.00    +0.037 A 
ATOM      5  C   UNL     1       2.137  -0.132  22.545  0.00  0.00    +0.008 A 
ATOM      6  C   UNL     1       1.845   0.476  23.019  0.00  0.00    +0.056 A 
ATOM      7  C   UNL     1       2.350   1.071  23.286  0.00  0.00    +0.008 A 
ATOM      8  C   UNL     1       3.148   1.057  23.077  0.00  0.00    +0.037 A 
BRANCH   3   2
ATOM      1  C   UNL     1       4.816   0.350  22.978  0.00  0.00    +0.252 C 
ATOM      2  O   UNL     1       4.240   0.436  22.395  0.00  0.00    -0.471 OA
ENDBRANCH   3   2
ENDBRANCH   9   6
BRANCH  18  20
ATOM     20  C   UNL     1      -4.055  -0.100  24.235  0.00  0.00    +0.184 C 
ATOM     21  O   UNL     1      -3.870  -0.821  23.879  0.00  0.00    -0.220 OA
ENDBRANCH  18  20
BRANCH  28  29
ATOM     29  C   UNL     1      -1.786   2.685  24.994  0.00  0.00    +0.093 C 
BRANCH  29  30
ATOM     30  C   UNL     1      -1.461   2.762  25.749  0.00  0.00    +0.242 C 
ATOM     31  O   UNL     1      -1.387   2.099  26.234  0.00  0.00    -0.273 OA
ATOM     32  N   UNL     1      -1.210   3.501  26.017  0.00  0.00    -0.207 NA
BRANCH  32  33
ATOM     33  C   UNL     1      -1.284   4.163  25.530  0.00  0.00    +0.095 C 
ATOM     34  C   UNL     1      -1.944   4.654  25.477  0.00  0.00    +0.022 C 
ATOM     35  C   UNL     1      -1.778   5.244  24.925  0.00  0.00    +0.002 C 
ATOM     36  C   UNL     1      -1.015   5.118  24.637  0.00  0.00    +0.002 C 
ATOM     37  C   UNL     1      -0.710   4.450  25.011  0.00  0.00    +0.022 C 
ENDBRANCH  32  33
ENDBRANCH  29  30
ENDBRANCH  28  29
TORSDOF 6
ENDMDL
MODEL 4
REMARK VINA RESULT:     -11.4      2.306      4.562
REMARK  Name = 
REMARK  6 active torsions:
REMARK  status: ('A' for Active; 'I' for Inactive)
REMARK    1  A    between atoms: O_2  and  C_3
REMARK    2  A    between atoms: C_6  and  C_9
REMARK    3  A    between atoms: C_18  and  C_20
REMARK    4  A    between atoms: C_28  and  C_29
REMARK    5  A    between atoms: C_29  and  C_30
REMARK    6  A    between atoms: N_32  and  C_33
REMARK                            x       y       z     vdW  Elec       q    Type
REMARK                         _______ _______ _______ _____ _____    ______ ____
ROOT
ATOM      9  C   UNL     1      -2.362  -0.539  24.661  0.00  0.00    +0.271 C 
ATOM     10  O   UNL     1      -1.565  -0.324  24.658  0.00  0.00    -0.268 OA
ATOM     11  N   UNL     1      -2.944   0.041  24.734  0.00  0.00    -0.151 NA
ATOM     12  C   UNL     1      -2.730   0.835  24.803  0.00  0.00    +0.185 A 
ATOM     13  N   UNL     1      -3.249   1.471  24.878  0.00  0.00    -0.227 NA
ATOM     14  C   UNL     1      -2.799   2.161  24.930  0.00  0.00    +0.063 A 
ATOM     15  C   UNL     1      -2.003   1.950  24.887  0.00  0.00    +0.023 A 
ATOM     16  C   UNL     1      -1.420   2.533  24.925  0.00  0.00    +0.034 C 
ATOM     17  C   UNL     1      -1.632   3.325  25.006  0.00  0.00    +0.010 C 
ATOM     18  C   UNL     1      -1.049   3.907  25.044  0.00  0.00    +0.059 C 
ATOM     19  C   UNL     1      -0.577   3.235  24.966  0.00  0.00    +0.005 C 
ATOM     22  C   UNL     1      -1.262   4.700  25.126  0.00  0.00    +0.154 C 
ATOM     23  O   UNL     1      -0.678   5.283  25.164  0.00  0.00    -0.223 OA
ATOM     24  C   UNL     1      -2.058   4.911  25.169  0.00  0.00    +0.033 C 
ATOM     25  C   UNL     1      -2.642   4.329  25.131  0.00  0.00    +0.003 C 
ATOM     26  C   UNL     1      -2.429   3.536  25.050  0.00  0.00    +0.006 C 
ATOM     27  C   UNL     1      -3.225   3.747  25.093  0.00  0.00    +0.000 C 
ATOM     28  C   UNL     1      -3.013   2.955  25.012  0.00  0.00    +0.050 C 
ATOM     38  S   UNL     1      -1.960   1.130  24.808  0.00  0.00    -0.054 S 
ENDROOT
BRANCH   9   6
ATOM      3  C   UNL     1      -3.004  -2.920  24.455  0.00  0.00    +0.139 A 
ATOM      4  C   UNL     1      -2.208  -2.710  24.505  0.00  0.00    +0.037 A 
ATOM      5  C   UNL     1      -1.994  -1.916  24.574  0.00  0.00    +0.008 A 
ATOM      6  C   UNL     1      -2.576  -1.333  24.593  0.00  0.00    +0.056 A 
ATOM      7  C   UNL     1      -3.372  -1.542  24.542  0.00  0.00    +0.008 A 
ATOM      8  C   UNL     1      -3.586  -2.336  24.473  0.00  0.00    +0.037 A 
BRANCH   3   2
ATOM      1  C   UNL     1      -3.839  -3.932  23.890  0.00  0.00    +0.252 C 
ATOM      2  O   UNL     1      -3.218  -3.714  24.386  0.00  0.00    -0.471 OA
ENDBRANCH   3   2
ENDBRANCH   9   6
BRANCH  18  20
ATOM     20  C   UNL     1      -0.302   4.256  25.055  0.00  0.00    +0.184 C 
ATOM     21  O   UNL     1       0.375   3.785  25.023  0.00  0.00    -0.220 OA
ENDBRANCH  18  20
BRANCH  28  29
ATOM     29  C   UNL     1      -3.808   3.165  25.056  0.00  0.00    +0.093 C 
BRANCH  29  30
ATOM     30  C   UNL     1      -4.250   3.256  24.364  0.00  0.00    +0.242 C 
ATOM     31  O   UNL     1      -3.870   3.433  23.653  0.00  0.00    -0.273 OA
ATOM     32  N   UNL     1      -5.070   3.171  24.384  0.00  0.00    -0.207 NA
BRANCH  32  33
ATOM     33  C   UNL     1      -5.449   2.994  25.095  0.00  0.00    +0.095 C 
ATOM     34  C   UNL     1      -5.596   3.523  25.710  0.00  0.00    +0.022 C 
ATOM     35  C   UNL     1      -5.985   3.113  26.311  0.00  0.00    +0.002 C 
ATOM     36  C   UNL     1      -6.078   2.330  26.068  0.00  0.00    +0.002 C 
ATOM     37  C   UNL     1      -5.746   2.256  25.316  0.00  0.00    +0.022 C 
ENDBRANCH  32  33
ENDBRANCH  29  30
ENDBRANCH  28  29
TORSDOF 6
ENDMDL
MODEL 5
REMARK VINA RESULT:     -11.0      1.224      5.054
REMARK  Name = 
REMARK  6 active torsions:
REMARK  status: ('A' for Active; 'I' for Inactive)
REMARK    1  A    between atoms: O_2  and  C_3
REMARK    2  A    between atoms: C_6  and  C_9
REMARK    3  A    between atoms: C_18  and  C_20
REMARK    4  A    between atoms: C_28  and  C_29
REMARK    5  A    between atoms: C_29  and  C_30
REMARK    6  A    between atoms: N_32  and  C_33
REMARK                            x       y       z     vdW  Elec       q    Type
REMARK                         _______ _______ _______ _____ _____    ______ ____
ROOT
ATOM      9  C   UNL     1      -3.515   2.733  24.940  0.00  0.00    +0.271 C 
ATOM     10  O   UNL     1      -2.842   3.137  24.686  0.00  0.00    -0.268 OA
ATOM     11  N   UNL     1      -3.508   1.909  24.983  0.00  0.00    -0.151 NA
ATOM     12  C   UNL     1      -2.830   1.490  24.772  0.00  0.00    +0.185 A 
ATOM     13  N   UNL     1      -2.743   0.670  24.788  0.00  0.00    -0.227 NA
ATOM     14  C   UNL     1      -1.978   0.490  24.534  0.00  0.00    +0.063 A 
ATOM     15  C   UNL     1      -1.593   1.200  24.363  0.00  0.00    +0.023 A 
ATOM     16  C   UNL     1      -0.813   1.191  24.095  0.00  0.00    +0.034 C 
ATOM     17  C   UNL     1      -0.418   0.474  23.998  0.00  0.00    +0.010 C 
ATOM     18  C   UNL     1       0.362   0.466  23.731  0.00  0.00    +0.059 C 
ATOM     19  C   UNL     1       0.221   1.278  23.735  0.00  0.00    +0.005 C 
ATOM     22  C   UNL     1       0.758  -0.252  23.634  0.00  0.00    +0.154 C 
ATOM     23  O   UNL     1       1.538  -0.261  23.366  0.00  0.00    -0.223 OA
ATOM     24  C   UNL     1       0.373  -0.961  23.805  0.00  0.00    +0.033 C 
ATOM     25  C   UNL     1      -0.408  -0.953  24.073  0.00  0.00    +0.003 C 
ATOM     26  C   UNL     1      -0.802  -0.235  24.170  0.00  0.00    +0.006 C 
ATOM     27  C   UNL     1      -1.187  -0.945  24.341  0.00  0.00    +0.000 C 
ATOM     28  C   UNL     1      -1.582  -0.228  24.438  0.00  0.00    +0.050 C 
ATOM     38  S   UNL     1      -2.120   1.818  24.510  0.00  0.00    -0.054 S 
ENDROOT
BRANCH   9   6
ATOM      3  C   UNL     1      -5.551   3.990  25.571  0.00  0.00    +0.139 A 
ATOM      4  C   UNL     1      -4.829   4.382  25.503  0.00  0.00    +0.037 A 
ATOM      5  C   UNL     1      -4.150   3.963  25.293  0.00  0.00    +0.008 A 
ATOM      6  C   UNL     1      -4.194   3.152  25.150  0.00  0.00    +0.056 A 
ATOM      7  C   UNL     1      -4.916   2.760  25.218  0.00  0.00    +0.008 A 
ATOM      8  C   UNL     1      -5.594   3.179  25.429  0.00  0.00    +0.037 A 
BRANCH   3   2
ATOM      1  C   UNL     1      -6.312   5.199  25.560  0.00  0.00    +0.252 C 
ATOM      2  O   UNL     1      -6.230   4.409  25.782  0.00  0.00    -0.471 OA
ENDBRANCH   3   2
ENDBRANCH   9   6
BRANCH  18  20
ATOM     20  C   UNL     1       1.094   0.739  23.464  0.00  0.00    +0.184 C 
ATOM     21  O   UNL     1       1.373   1.475  23.709  0.00  0.00    -0.220 OA
ENDBRANCH  18  20
BRANCH  28  29
ATOM     29  C   UNL     1      -1.967  -0.936  24.609  0.00  0.00    +0.093 C 
BRANCH  29  30
ATOM     30  C   UNL     1      -2.040  -1.188  25.392  0.00  0.00    +0.242 C 
ATOM     31  O   UNL     1      -1.555  -0.864  25.975  0.00  0.00    -0.273 OA
ATOM     32  N   UNL     1      -2.597  -1.763  25.590  0.00  0.00    -0.207 NA
BRANCH  32  33
ATOM     33  C   UNL     1      -3.081  -2.086  25.006  0.00  0.00    +0.095 C 
ATOM     34  C   UNL     1      -2.908  -2.745  24.541  0.00  0.00    +0.022 C 
ATOM     35  C   UNL     1      -3.544  -2.872  24.032  0.00  0.00    +0.002 C 
ATOM     36  C   UNL     1      -4.112  -2.292  24.182  0.00  0.00    +0.002 C 
ATOM     37  C   UNL     1      -3.826  -1.806  24.784  0.00  0.00    +0.022 C 
ENDBRANCH  32  33
ENDBRANCH  29  30
ENDBRANCH  28  29
TORSDOF 6
ENDMDL
MODEL 6
REMARK VINA RESULT:     -10.6      1.765      5.621
REMARK  Name = 
REMARK  6 active torsions:
REMARK  status: ('A' for Active; 'I' for Inactive)
REMARK    1  A    between atoms: O_2  and  C_3
REMARK    2  A    between atoms: C_6  and  C_9
REMARK    3  A    between atoms: C_18  and  C_20
REMARK    4  A    between atoms: C_28  and  C_29
REMARK    5  A    between atoms: C_29  and  C_30
REMARK    6  A    between atoms: N_32  and  C_33
REMARK                            x       y       z     vdW  Elec       q    Type
REMARK                         _______ _______ _______ _____ _____    ______ ____
ROOT
ATOM      9  C   UNL     1      -4.880   1.936  25.208  0.00  0.00    +0.271 C 
ATOM     10  O   UNL     1      -5.369   1.282  25.091  0.00  0.00    -0.268 OA
ATOM     11  N   UNL     1      -4.060   1.847  25.177  0.00  0.00    -0.151 NA
ATOM     12  C   UNL     1      -3.731   1.105  25.030  0.00  0.00    +0.185 A 
ATOM     13  N   UNL     1      -2.925   0.934  24.983  0.00  0.00    -0.227 NA
ATOM     14  C   UNL     1      -2.845   0.127  24.828  0.00  0.00    +0.063 A 
ATOM     15  C   UNL     1      -3.602  -0.199  24.778  0.00  0.00    +0.023 A 
ATOM     16  C   UNL     1      -3.694  -1.005  24.625  0.00  0.00    +0.034 C 
ATOM     17  C   UNL     1      -3.031  -1.484  24.523  0.00  0.00    +0.010 C 
ATOM     18  C   UNL     1      -3.123  -2.289  24.370  0.00  0.00    +0.059 C 
ATOM     19  C   UNL     1      -3.914  -2.062  24.427  0.00  0.00    +0.005 C 
ATOM     22  C   UNL     1      -2.460  -2.769  24.267  0.00  0.00    +0.154 C 
ATOM     23  O   UNL     1      -2.552  -3.575  24.114  0.00  0.00    -0.223 OA
ATOM     24  C   UNL     1      -1.704  -2.443  24.317  0.00  0.00    +0.033 C 
ATOM     25  C   UNL     1      -1.611  -1.637  24.469  0.00  0.00    +0.003 C 
ATOM     26  C   UNL     1      -2.275  -1.158  24.572  0.00  0.00    +0.006 C 
ATOM     27  C   UNL     1      -1.518  -0.832  24.622  0.00  0.00    +0.000 C 
ATOM     28  C   UNL     1      -2.181  -0.353  24.725  0.00  0.00    +0.050 C 
ATOM     38  S   UNL     1      -4.149   0.406  24.903  0.00  0.00    -0.054 S 
ENDROOT
BRANCH   9   6
ATOM      3  C   UNL     1      -5.868   4.161  25.650  0.00  0.00    +0.139 A 
ATOM      4  C   UNL     1      -5.101   4.102  25.354  0.00  0.00    +0.037 A 
ATOM      5  C   UNL     1      -4.771   3.360  25.206  0.00  0.00    +0.008 A 
ATOM      6  C   UNL     1      -5.209   2.678  25.356  0.00  0.00    +0.056 A 
ATOM      7  C   UNL     1      -5.976   2.736  25.652  0.00  0.00    +0.008 A 
ATOM      8  C   UNL     1      -6.306   3.478  25.800  0.00  0.00    +0.037 A 
BRANCH   3   2
ATOM      1  C   UNL     1      -6.273   5.450  25.185  0.00  0.00    +0.252 C 
ATOM      2  O   UNL     1      -6.198   4.903  25.798  0.00  0.00    -0.471 OA
ENDBRANCH   3   2
ENDBRANCH   9   6
BRANCH  18  20
ATOM     20  C   UNL     1      -3.491  -3.016  24.237  0.00  0.00    +0.184 C 
ATOM     21  O   UNL     1      -4.275  -3.042  23.984  0.00  0.00    -0.220 OA
ENDBRANCH  18  20
BRANCH  28  29
ATOM     29  C   UNL     1      -1.426  -0.027  24.774  0.00  0.00    +0.093 C 
BRANCH  29  30
ATOM     30  C   UNL     1      -1.066   0.072  25.511  0.00  0.00    +0.242 C 
ATOM     31  O   UNL     1      -1.334  -0.360  26.161  0.00  0.00    -0.273 OA
ATOM     32  N   UNL     1      -0.440   0.602  25.597  0.00  0.00    -0.207 NA
BRANCH  32  33
ATOM     33  C   UNL     1      -0.173   1.033  24.946  0.00  0.00    +0.095 C 
ATOM     34  C   UNL     1       0.293   0.744  24.330  0.00  0.00    +0.022 C 
ATOM     35  C   UNL     1       0.428   1.362  23.801  0.00  0.00    +0.002 C 
ATOM     36  C   UNL     1       0.045   2.034  24.089  0.00  0.00    +0.002 C 
ATOM     37  C   UNL     1      -0.327   1.830  24.797  0.00  0.00    +0.022 C 
ENDBRANCH  32  33
ENDBRANCH  29  30
ENDBRANCH  28  29
TORSDOF 6
ENDMDL
MODEL 7
REMARK VINA RESULT:     -10.3      2.197      4.575
REMARK  Name = 
REMARK  6 active torsions:
REMARK  status: ('A' for Active; 'I' for Inactive)
REMARK    1  A    between atoms: O_2  and  C_3
REMARK    2  A    between atoms: C_6  and  C_9
REMARK    3  A    between atoms: C_18  and  C_20
REMARK    4  A    between atoms: C_28  and  C_29
REMARK    5  A    between atoms: C_29  and  C_30
REMARK    6  A    between atoms: N_32  and  C_33
REMARK                            x       y       z     vdW  Elec       q    Type
REMARK                         _______ _______ _______ _____ _____    ______ ____
ROOT
ATOM      9  C   UNL     1      -4.052  -0.758  24.613  0.00  0.00    +0.271 C 
ATOM     10  O   UNL     1      -4.828  -0.506  24.730  0.00  0.00    -0.268 OA
ATOM     11  N   UNL     1      -3.433  -0.215  24.648  0.00  0.00    -0.151 NA
ATOM     12  C   UNL     1      -3.590   0.581  24.799  0.00  0.00    +0.185 A 
ATOM     13  N   UNL     1      -3.029   1.184  24.849  0.00  0.00    -0.227 NA
ATOM     14  C   UNL     1      -3.427   1.889  25.009  0.00  0.00    +0.063 A 
ATOM     15  C   UNL     1      -4.234   1.721  25.056  0.00  0.00    +0.023 A 
ATOM     16  C   UNL     1      -4.772   2.326  25.212  0.00  0.00    +0.034 C 
ATOM     17  C   UNL     1      -4.506   3.099  25.319  0.00  0.00    +0.010 C 
ATOM     18  C   UNL     1      -5.044   3.703  25.474  0.00  0.00    +0.059 C 
ATOM     19  C   UNL     1      -5.561   3.064  25.413  0.00  0.00    +0.005 C 
ATOM     22  C   UNL     1      -4.777   4.477  25.582  0.00  0.00    +0.154 C 
ATOM     23  O   UNL     1      -5.316   5.083  25.737  0.00  0.00    -0.223 OA
ATOM     24  C   UNL     1      -3.971   4.645  25.534  0.00  0.00    +0.033 C 
ATOM     25  C   UNL     1      -3.431   4.040  25.378  0.00  0.00    +0.003 C 
ATOM     26  C   UNL     1      -3.699   3.267  25.271  0.00  0.00    +0.006 C 
ATOM     27  C   UNL     1      -2.893   3.435  25.223  0.00  0.00    +0.000 C 
ATOM     28  C   UNL     1      -3.160   2.663  25.116  0.00  0.00    +0.050 C 
ATOM     38  S   UNL     1      -4.334   0.912  24.927  0.00  0.00    -0.054 S 
ENDROOT
BRANCH   9   6
ATOM      3  C   UNL     1      -3.581  -3.145  24.158  0.00  0.00    +0.139 A 
ATOM      4  C   UNL     1      -4.085  -2.722  23.661  0.00  0.00    +0.037 A 
ATOM      5  C   UNL     1      -4.241  -1.926  23.812  0.00  0.00    +0.008 A 
ATOM      6  C   UNL     1      -3.895  -1.554  24.461  0.00  0.00    +0.056 A 
ATOM      7  C   UNL     1      -3.392  -1.977  24.959  0.00  0.00    +0.008 A 
ATOM      8  C   UNL     1      -3.235  -2.772  24.807  0.00  0.00    +0.037 A 
BRANCH   3   2
ATOM      1  C   UNL     1      -2.833  -4.149  23.471  0.00  0.00    +0.252 C 
ATOM      2  O   UNL     1      -3.424  -3.941  24.006  0.00  0.00    -0.471 OA
ENDBRANCH   3   2
ENDBRANCH   9   6
BRANCH  18  20
ATOM     20  C   UNL     1      -5.763   4.087  25.608  0.00  0.00    +0.184 C 
ATOM     21  O   UNL     1      -6.432   3.650  25.812  0.00  0.00    -0.220 OA
ENDBRANCH  18  20
BRANCH  28  29
ATOM     29  C   UNL     1      -2.355   2.831  25.068  0.00  0.00    +0.093 C 
BRANCH  29  30
ATOM     30  C   UNL     1      -1.998   2.937  24.331  0.00  0.00    +0.242 C 
ATOM     31  O   UNL     1      -2.464   3.067  23.663  0.00  0.00    -0.273 OA
ATOM     32  N   UNL     1      -1.176   2.913  24.263  0.00  0.00    -0.207 NA
BRANCH  32  33
ATOM     33  C   UNL     1      -0.711   2.783  24.933  0.00  0.00    +0.095 C 
ATOM     34  C   UNL     1      -0.476   3.354  25.478  0.00  0.00    +0.022 C 
ATOM     35  C   UNL     1      -0.019   2.983  26.056  0.00  0.00    +0.002 C 
ATOM     36  C   UNL     1       0.029   2.181  25.867  0.00  0.00    +0.002 C 
ATOM     37  C   UNL     1      -0.399   2.058  25.172  0.00  0.00    +0.022 C 
ENDBRANCH  32  33
ENDBRANCH  29  30
ENDBRANCH  28  29
TORSDOF 6
ENDMDL
