MODEL 1
REMARK VINA RESULT:     -10.7      0.000      0.000
REMARK  Name = 
REMARK  5 active torsions:
REMARK  status: ('A' for Active; 'I' for Inactive)
REMARK    1  A    between atoms: O_2  and  C_3
REMARK    2  A    between atoms: C_7  and  C_8
REMARK    3  A    between atoms: C_8  and  N_9
REMARK    4  A    between atoms: N_9  and  C_10
REMARK    5  A    between atoms: C_16  and  C_17
REMARK                            x       y       z     vdW  Elec       q    Type
REMARK                         _______ _______ _______ _____ _____    ______ ____
ROOT
ATOM     10  C   UNL     1      -4.285   1.372  24.644  0.00  0.00    +0.110 C 
ATOM     11  C   UNL     1      -4.915   1.596  25.125  0.00  0.00    +0.198 C 
ATOM     12  O   UNL     1      -5.488   1.094  25.442  0.00  0.00    -0.219 OA
ATOM     13  C   UNL     1      -4.873   2.413  25.235  0.00  0.00    +0.184 C 
ATOM     14  O   UNL     1      -5.397   2.870  25.681  0.00  0.00    -0.220 OA
ATOM     15  C   UNL     1      -4.217   2.693  24.821  0.00  0.00    +0.041 C 
ATOM     16  C   UNL     1      -3.853   2.049  24.456  0.00  0.00    +0.045 C 
ENDROOT
BRANCH  16  17
ATOM     17  C   UNL     1      -3.176   2.079  23.985  0.00  0.00    -0.002 A 
ATOM     18  C   UNL     1      -3.243   2.078  23.163  0.00  0.00    -0.001 A 
ATOM     19  C   UNL     1      -2.567   2.108  22.693  0.00  0.00    +0.020 A 
ATOM     20  C   UNL     1      -1.821   2.139  23.045  0.00  0.00    +0.099 A 
ATOM     21  N   UNL     1      -1.753   2.141  23.867  0.00  0.00    -0.243 NA
ATOM     22  C   UNL     1      -2.430   2.111  24.338  0.00  0.00    +0.095 A 
ENDBRANCH  16  17
BRANCH  10   9
ATOM      9  N   UNL     1      -4.115   0.604  24.393  0.00  0.00    -0.212 NA
BRANCH   9   8
ATOM      8  C   UNL     1      -4.250  -0.033  24.899  0.00  0.00    +0.115 C 
BRANCH   8   7
ATOM      3  C   UNL     1      -3.126  -1.901  24.787  0.00  0.00    +0.138 A 
ATOM      4  C   UNL     1      -3.565  -2.314  24.224  0.00  0.00    +0.037 A 
ATOM      5  C   UNL     1      -4.232  -1.966  23.886  0.00  0.00    +0.003 A 
ATOM      6  C   UNL     1      -4.460  -1.207  24.110  0.00  0.00    -0.003 A 
ATOM      7  C   UNL     1      -4.022  -0.794  24.674  0.00  0.00    -0.002 A 
ATOM     23  C   UNL     1      -3.354  -1.142  25.011  0.00  0.00    +0.034 A 
BRANCH   3   2
ATOM      1  C   UNL     1      -1.782  -2.371  24.670  0.00  0.00    +0.252 C 
ATOM      2  O   UNL     1      -2.458  -2.249  25.125  0.00  0.00    -0.471 OA
ENDBRANCH   3   2
ENDBRANCH   8   7
ENDBRANCH   9   8
ENDBRANCH  10   9
TORSDOF 5
ENDMDL
MODEL 2
REMARK VINA RESULT:     -10.1      1.520      2.523
REMARK  Name = 
REMARK  5 active torsions:
REMARK  status: ('A' for Active; 'I' for Inactive)
REMARK    1  A    between atoms: O_2  and  C_3
REMARK    2  A    between atoms: C_7  and  C_8
REMARK    3  A    between atoms: C_8  and  N_9
REMARK    4  A    between atoms: N_9  and  C_10
REMARK    5  A    between atoms: C_16  and  C_17
REMARK                            x       y       z     vdW  Elec       q    Type
REMARK                         _______ _______ _______ _____ _____    ______ ____
ROOT
ATOM     10  C   UNL     1      -3.743   1.680  24.192  0.00  0.00    +0.110 C 
ATOM     11  C   UNL     1      -3.221   1.872  23.584  0.00  0.00    +0.198 C 
ATOM     12  O   UNL     1      -2.632   1.383  23.277  0.00  0.00    -0.219 OA
ATOM     13  C   UNL     1      -3.392   2.640  23.334  0.00  0.00    +0.184 C 
ATOM     14  O   UNL     1      -3.003   3.053  22.735  0.00  0.00    -0.220 OA
ATOM     15  C   UNL     1      -4.020   2.922  23.789  0.00  0.00    +0.041 C 
ATOM     16  C   UNL     1      -4.237   2.328  24.320  0.00  0.00    +0.045 C 
ENDROOT
BRANCH  16  17
ATOM     17  C   UNL     1      -4.842   2.376  24.879  0.00  0.00    -0.002 A 
ATOM     18  C   UNL     1      -5.570   2.018  24.732  0.00  0.00    -0.001 A 
ATOM     19  C   UNL     1      -6.174   2.066  25.291  0.00  0.00    +0.020 A 
ATOM     20  C   UNL     1      -6.051   2.474  25.998  0.00  0.00    +0.099 A 
ATOM     21  N   UNL     1      -5.322   2.832  26.145  0.00  0.00    -0.243 NA
ATOM     22  C   UNL     1      -4.717   2.784  25.586  0.00  0.00    +0.095 A 
ENDBRANCH  16  17
BRANCH  10   9
ATOM      9  N   UNL     1      -3.768   0.964  24.602  0.00  0.00    -0.212 NA
BRANCH   9   8
ATOM      8  C   UNL     1      -3.296   0.333  24.359  0.00  0.00    +0.115 C 
BRANCH   8   7
ATOM      3  C   UNL     1      -3.771  -1.778  24.641  0.00  0.00    +0.138 A 
ATOM      4  C   UNL     1      -3.548  -1.885  25.428  0.00  0.00    +0.037 A 
ATOM      5  C   UNL     1      -3.240  -1.252  25.858  0.00  0.00    +0.003 A 
ATOM      6  C   UNL     1      -3.157  -0.513  25.502  0.00  0.00    -0.003 A 
ATOM      7  C   UNL     1      -3.380  -0.406  24.715  0.00  0.00    -0.002 A 
ATOM     23  C   UNL     1      -3.688  -1.040  24.285  0.00  0.00    +0.034 A 
BRANCH   3   2
ATOM      1  C   UNL     1      -3.652  -3.115  24.149  0.00  0.00    +0.252 C 
ATOM      2  O   UNL     1      -4.079  -2.412  24.211  0.00  0.00    -0.471 OA
ENDBRANCH   3   2
ENDBRANCH   8   7
ENDBRANCH   9   8
ENDBRANCH  10   9
TORSDOF 5
ENDMDL
MODEL 3
REMARK VINA RESULT:      -9.9      1.379      4.036
REMARK  Name = 
REMARK  5 active torsions:
REMARK  status: ('A' for Active; 'I' for Inactive)
REMARK    1  A    between atoms: O_2  and  C_3
REMARK    2  A    between atoms: C_7  and  C_8
REMARK    3  A    between atoms: C_8  and  N_9
REMARK    4  A    between atoms: N_9  and  C_10
REMARK    5  A    between atoms: C_16  and  C_17
REMARK                            x       y       z     vdW  Elec       q    Type
REMARK                         _______ _______ _______ _____ _____    ______ ____
ROOT
ATOM     10  C   UNL     1      -3.375  -1.107  24.438  0.00  0.00    +0.110 C 
ATOM     11  C   UNL     1      -3.932  -1.675  24.224  0.00  0.00    +0.198 C 
ATOM     12  O   UNL     1      -4.686  -1.529  23.925  0.00  0.00    -0.219 OA
ATOM     13  C   UNL     1      -3.602  -2.419  24.364  0.00  0.00    +0.184 C 
ATOM     14  O   UNL     1      -3.969  -3.146  24.227  0.00  0.00    -0.220 OA
ATOM     15  C   UNL     1      -2.841  -2.309  24.663  0.00  0.00    +0.041 C 
ATOM     16  C   UNL     1      -2.701  -1.497  24.709  0.00  0.00    +0.045 C 
ENDROOT
BRANCH  16  17
ATOM     17  C   UNL     1      -2.007  -1.140  24.979  0.00  0.00    -0.002 A 
ATOM     18  C   UNL     1      -1.923  -0.950  25.776  0.00  0.00    -0.001 A 
ATOM     19  C   UNL     1      -1.231  -0.593  26.046  0.00  0.00    +0.020 A 
ATOM     20  C   UNL     1      -0.620  -0.426  25.516  0.00  0.00    +0.099 A 
ATOM     21  N   UNL     1      -0.703  -0.617  24.718  0.00  0.00    -0.243 NA
ATOM     22  C   UNL     1      -1.397  -0.974  24.448  0.00  0.00    +0.095 A 
ENDBRANCH  16  17
BRANCH  10   9
ATOM      9  N   UNL     1      -3.474  -0.288  24.389  0.00  0.00    -0.212 NA
BRANCH   9   8
ATOM      8  C   UNL     1      -4.230   0.039  24.436  0.00  0.00    +0.115 C 
BRANCH   8   7
ATOM      3  C   UNL     1      -4.906   1.995  25.128  0.00  0.00    +0.138 A 
ATOM      4  C   UNL     1      -4.508   2.492  24.604  0.00  0.00    +0.037 A 
ATOM      5  C   UNL     1      -4.017   2.171  24.025  0.00  0.00    +0.003 A 
ATOM      6  C   UNL     1      -3.924   1.354  23.969  0.00  0.00    -0.003 A 
ATOM      7  C   UNL     1      -4.323   0.857  24.492  0.00  0.00    -0.002 A 
ATOM     23  C   UNL     1      -4.814   1.178  25.072  0.00  0.00    +0.034 A 
BRANCH   3   2
ATOM      1  C   UNL     1      -5.486   3.134  25.768  0.00  0.00    +0.252 C 
ATOM      2  O   UNL     1      -5.398   2.316  25.708  0.00  0.00    -0.471 OA
ENDBRANCH   3   2
ENDBRANCH   8   7
ENDBRANCH   9   8
ENDBRANCH  10   9
TORSDOF 5
ENDMDL
MODEL 4
REMARK VINA RESULT:      -9.9      1.599      3.589
REMARK  Name = 
REMARK  5 active torsions:
REMARK  status: ('A' for Active; 'I' for Inactive)
REMARK    1  A    between atoms: O_2  and  C_3
REMARK    2  A    between atoms: C_7  and  C_8
REMARK    3  A    between atoms: C_8  and  N_9
REMARK    4  A    between atoms: N_9  and  C_10
REMARK    5  A    between atoms: C_16  and  C_17
REMARK                            x       y       z     vdW  Elec       q    Type
REMARK                         _______ _______ _______ _____ _____    ______ ____
ROOT
ATOM     10  C   UNL     1      -4.186   1.508  24.779  0.00  0.00    +0.110 C 
ATOM     11  C   UNL     1      -4.753   2.104  24.826  0.00  0.00    +0.198 C 
ATOM     12  O   UNL     1      -4.612   2.915  24.765  0.00  0.00    -0.219 OA
ATOM     13  C   UNL     1      -5.487   1.748  24.947  0.00  0.00    +0.184 C 
ATOM     14  O   UNL     1      -6.210   2.140  25.026  0.00  0.00    -0.220 OA
ATOM     15  C   UNL     1      -5.374   0.931  24.973  0.00  0.00    +0.041 C 
ATOM     16  C   UNL     1      -4.568   0.782  24.870  0.00  0.00    +0.045 C 
ENDROOT
BRANCH  16  17
ATOM     17  C   UNL     1      -4.211   0.039  24.859  0.00  0.00    -0.002 A 
ATOM     18  C   UNL     1      -4.123  -0.367  24.147  0.00  0.00    -0.001 A 
ATOM     19  C   UNL     1      -3.766  -1.110  24.137  0.00  0.00    +0.020 A 
ATOM     20  C   UNL     1      -3.496  -1.448  24.839  0.00  0.00    +0.099 A 
ATOM     21  N   UNL     1      -3.584  -1.042  25.552  0.00  0.00    -0.243 NA
ATOM     22  C   UNL     1      -3.941  -0.298  25.563  0.00  0.00    +0.095 A 
ENDBRANCH  16  17
BRANCH  10   9
ATOM      9  N   UNL     1      -3.376   1.617  24.661  0.00  0.00    -0.212 NA
BRANCH   9   8
ATOM      8  C   UNL     1      -3.041   2.363  24.765  0.00  0.00    +0.115 C 
BRANCH   8   7
ATOM      3  C   UNL     1      -0.980   2.719  25.387  0.00  0.00    +0.138 A 
ATOM      4  C   UNL     1      -0.584   2.641  24.668  0.00  0.00    +0.037 A 
ATOM      5  C   UNL     1      -1.007   2.470  23.981  0.00  0.00    +0.003 A 
ATOM      6  C   UNL     1      -1.826   2.378  24.013  0.00  0.00    -0.003 A 
ATOM      7  C   UNL     1      -2.222   2.456  24.732  0.00  0.00    -0.002 A 
ATOM     23  C   UNL     1      -1.798   2.627  25.419  0.00  0.00    +0.034 A 
BRANCH   3   2
ATOM      1  C   UNL     1       0.121   2.458  26.260  0.00  0.00    +0.252 C 
ATOM      2  O   UNL     1      -0.556   2.890  26.074  0.00  0.00    -0.471 OA
ENDBRANCH   3   2
ENDBRANCH   8   7
ENDBRANCH   9   8
ENDBRANCH  10   9
TORSDOF 5
ENDMDL
