MODEL 1
REMARK VINA RESULT:     -12.6      0.000      0.000
REMARK  Name = 
REMARK  5 active torsions:
REMARK  status: ('A' for Active; 'I' for Inactive)
REMARK    1  A    between atoms: C_2  and  C_4
REMARK    2  A    between atoms: C_4  and  S_5
REMARK    3  A    between atoms: S_5  and  C_6
REMARK    4  A    between atoms: C_6  and  C_7
REMARK    5  A    between atoms: C_16  and  C_23
REMARK                            x       y       z     vdW  Elec       q    Type
REMARK                         _______ _______ _______ _____ _____    ______ ____
ROOT
ATOM      7  C   UNL     1      -3.294   2.788  24.392  0.00  0.00    +0.237 C 
ATOM      8  O   UNL     1      -3.981   2.475  24.727  0.00  0.00    -0.274 OA
ATOM      9  N   UNL     1      -2.714   2.282  24.092  0.00  0.00    -0.278 N 
ATOM     10  C   UNL     1      -1.999   2.044  23.731  0.00  0.00    +0.095 C 
ATOM     11  C   UNL     1      -2.115   1.063  23.767  0.00  0.00    +0.043 C 
ATOM     12  C   UNL     1      -2.058   0.252  23.720  0.00  0.00    +0.011 C 
ATOM     13  C   UNL     1      -2.516   0.727  23.959  0.00  0.00    +0.058 C 
ATOM     14  C   UNL     1      -2.390   1.673  23.917  0.00  0.00    +0.099 C 
ATOM     15  C   UNL     1      -3.336   0.796  24.368  0.00  0.00    +0.042 A 
ATOM     16  C   UNL     1      -3.946   0.325  24.662  0.00  0.00    +0.018 A 
ATOM     17  C   UNL     1      -4.611   0.677  25.000  0.00  0.00    +0.006 A 
ATOM     18  C   UNL     1      -4.666   1.499  25.046  0.00  0.00    +0.061 A 
ATOM     19  C   UNL     1      -4.055   1.969  24.753  0.00  0.00    +0.261 A 
ATOM     20  O   UNL     1      -4.334   2.729  24.909  0.00  0.00    -0.267 OA
ATOM     21  N   UNL     1      -3.390   1.618  24.414  0.00  0.00    -0.299 N 
ATOM     22  C   UNL     1      -2.970   1.145  24.194  0.00  0.00    +0.110 C 
ENDROOT
BRANCH  16  23
ATOM     23  C   UNL     1      -3.892  -0.497  24.616  0.00  0.00    +0.031 A 
ATOM     24  C   UNL     1      -4.171  -0.969  23.999  0.00  0.00    +0.007 A 
ATOM     25  C   UNL     1      -4.001  -1.754  24.181  0.00  0.00    +0.006 A 
ATOM     26  C   UNL     1      -3.616  -1.769  24.911  0.00  0.00    +0.029 A 
ATOM     27  S   UNL     1      -3.549  -0.992  25.180  0.00  0.00    -0.087 S 
ATOM     28  C   UNL     1      -3.377  -2.488  25.237  0.00  0.00    +0.006 A 
ATOM     29  C   UNL     1      -3.522  -3.193  24.833  0.00  0.00    +0.001 A 
ATOM     30  C   UNL     1      -3.906  -3.178  24.103  0.00  0.00    +0.000 A 
ATOM     31  C   UNL     1      -4.145  -2.459  23.777  0.00  0.00    +0.001 A 
ENDBRANCH  16  23
BRANCH   7   6
ATOM      6  C   UNL     1      -3.187   3.604  24.357  0.00  0.00    +0.143 C 
BRANCH   6   5
ATOM      5  S   UNL     1      -2.769   3.992  24.955  0.00  0.00    -0.119 S 
BRANCH   5   4
ATOM      4  C   UNL     1      -2.500   4.763  24.836  0.00  0.00    +0.172 C 
BRANCH   4   2
ATOM      1  O   UNL     1      -2.000   4.982  26.157  0.00  0.00    -0.245 OA
ATOM      2  C   UNL     1      -1.930   5.082  25.341  0.00  0.00    +0.376 C 
ATOM      3  O   UNL     1      -1.289   5.499  25.029  0.00  0.00    -0.245 OA
ENDBRANCH   4   2
ENDBRANCH   5   4
ENDBRANCH   6   5
ENDBRANCH   7   6
TORSDOF 5
ENDMDL
MODEL 2
REMARK VINA RESULT:     -11.8      2.099      5.266
REMARK  Name = 
REMARK  5 active torsions:
REMARK  status: ('A' for Active; 'I' for Inactive)
REMARK    1  A    between atoms: C_2  and  C_4
REMARK    2  A    between atoms: C_4  and  S_5
REMARK    3  A    between atoms: S_5  and  C_6
REMARK    4  A    between atoms: C_6  and  C_7
REMARK    5  A    between atoms: C_16  and  C_23
REMARK                            x       y       z     vdW  Elec       q    Type
REMARK                         _______ _______ _______ _____ _____    ______ ____
ROOT
ATOM      7  C   UNL     1      -3.059  -0.335  25.259  0.00  0.00    +0.237 C 
ATOM      8  O   UNL     1      -2.277  -0.224  25.501  0.00  0.00    -0.274 OA
ATOM      9  N   UNL     1      -3.492   0.301  24.960  0.00  0.00    -0.278 N 
ATOM     10  C   UNL     1      -4.139   0.720  24.638  0.00  0.00    +0.095 C 
ATOM     11  C   UNL     1      -3.734   1.618  24.564  0.00  0.00    +0.043 C 
ATOM     12  C   UNL     1      -3.552   2.402  24.440  0.00  0.00    +0.011 C 
ATOM     13  C   UNL     1      -3.232   1.828  24.686  0.00  0.00    +0.058 C 
ATOM     14  C   UNL     1      -3.638   0.966  24.752  0.00  0.00    +0.099 C 
ATOM     15  C   UNL     1      -2.429   1.542  25.029  0.00  0.00    +0.042 A 
ATOM     16  C   UNL     1      -1.678   1.822  25.220  0.00  0.00    +0.018 A 
ATOM     17  C   UNL     1      -1.114   1.309  25.535  0.00  0.00    +0.006 A 
ATOM     18  C   UNL     1      -1.302   0.515  25.659  0.00  0.00    +0.061 A 
ATOM     19  C   UNL     1      -2.053   0.235  25.468  0.00  0.00    +0.261 A 
ATOM     20  O   UNL     1      -1.997  -0.561  25.677  0.00  0.00    -0.267 OA
ATOM     21  N   UNL     1      -2.617   0.748  25.153  0.00  0.00    -0.299 N 
ATOM     22  C   UNL     1      -2.899   1.309  24.923  0.00  0.00    +0.110 C 
ENDROOT
BRANCH  16  23
ATOM     23  C   UNL     1      -1.490   2.616  25.096  0.00  0.00    +0.031 A 
ATOM     24  C   UNL     1      -1.744   3.253  25.555  0.00  0.00    +0.007 A 
ATOM     25  C   UNL     1      -1.427   3.942  25.234  0.00  0.00    +0.006 A 
ATOM     26  C   UNL     1      -0.975   3.732  24.576  0.00  0.00    +0.029 A 
ATOM     27  S   UNL     1      -1.015   2.913  24.491  0.00  0.00    -0.087 S 
ATOM     28  C   UNL     1      -0.587   4.314  24.139  0.00  0.00    +0.006 A 
ATOM     29  C   UNL     1      -0.650   5.107  24.360  0.00  0.00    +0.001 A 
ATOM     30  C   UNL     1      -1.101   5.317  25.018  0.00  0.00    +0.000 A 
ATOM     31  C   UNL     1      -1.490   4.735  25.455  0.00  0.00    +0.001 A 
ENDBRANCH  16  23
BRANCH   7   6
ATOM      6  C   UNL     1      -3.407  -1.080  25.317  0.00  0.00    +0.143 C 
BRANCH   6   5
ATOM      5  S   UNL     1      -3.301  -1.633  24.713  0.00  0.00    -0.119 S 
BRANCH   5   4
ATOM      4  C   UNL     1      -3.649  -2.379  24.771  0.00  0.00    +0.172 C 
BRANCH   4   2
ATOM      1  O   UNL     1      -4.384  -2.839  23.636  0.00  0.00    -0.245 OA
ATOM      2  C   UNL     1      -3.704  -2.861  24.104  0.00  0.00    +0.376 C 
ATOM      3  O   UNL     1      -3.081  -3.364  23.904  0.00  0.00    -0.245 OA
ENDBRANCH   4   2
ENDBRANCH   5   4
ENDBRANCH   6   5
ENDBRANCH   7   6
TORSDOF 5
ENDMDL
MODEL 3
REMARK VINA RESULT:     -11.0      2.649      4.181
REMARK  Name = 
REMARK  5 active torsions:
REMARK  status: ('A' for Active; 'I' for Inactive)
REMARK    1  A    between atoms: C_2  and  C_4
REMARK    2  A    between atoms: C_4  and  S_5
REMARK    3  A    between atoms: S_5  and  C_6
REMARK    4  A    between atoms: C_6  and  C_7
REMARK    5  A    between atoms: C_16  and  C_23
REMARK                            x       y       z     vdW  Elec       q    Type
REMARK                         _______ _______ _______ _____ _____    ______ ____
ROOT
ATOM      7  C   UNL     1      -0.453   0.633  24.142  0.00  0.00    +0.237 C 
ATOM      8  O   UNL     1      -0.684   1.382  23.880  0.00  0.00    -0.274 OA
ATOM      9  N   UNL     1      -0.989   0.156  24.549  0.00  0.00    -0.278 N 
ATOM     10  C   UNL     1      -1.285  -0.510  24.958  0.00  0.00    +0.095 C 
ATOM     11  C   UNL     1      -2.205  -0.198  25.139  0.00  0.00    +0.043 C 
ATOM     12  C   UNL     1      -2.981  -0.092  25.363  0.00  0.00    +0.011 C 
ATOM     13  C   UNL     1      -2.485   0.270  25.023  0.00  0.00    +0.058 C 
ATOM     14  C   UNL     1      -1.600  -0.046  24.856  0.00  0.00    +0.099 C 
ATOM     15  C   UNL     1      -2.341   1.075  24.603  0.00  0.00    +0.042 A 
ATOM     16  C   UNL     1      -2.728   1.779  24.417  0.00  0.00    +0.018 A 
ATOM     17  C   UNL     1      -2.330   2.372  24.005  0.00  0.00    +0.006 A 
ATOM     18  C   UNL     1      -1.544   2.261  23.780  0.00  0.00    +0.061 A 
ATOM     19  C   UNL     1      -1.156   1.557  23.966  0.00  0.00    +0.261 A 
ATOM     20  O   UNL     1      -0.407   1.683  23.644  0.00  0.00    -0.267 OA
ATOM     21  N   UNL     1      -1.555   0.964  24.378  0.00  0.00    -0.299 N 
ATOM     22  C   UNL     1      -2.045   0.640  24.699  0.00  0.00    +0.110 C 
ENDROOT
BRANCH  16  23
ATOM     23  C   UNL     1      -3.514   1.889  24.643  0.00  0.00    +0.031 A 
ATOM     24  C   UNL     1      -4.174   1.541  24.291  0.00  0.00    +0.007 A 
ATOM     25  C   UNL     1      -4.845   1.804  24.690  0.00  0.00    +0.006 A 
ATOM     26  C   UNL     1      -4.601   2.315  25.290  0.00  0.00    +0.029 A 
ATOM     27  S   UNL     1      -3.778   2.367  25.261  0.00  0.00    -0.087 S 
ATOM     28  C   UNL     1      -5.159   2.666  25.786  0.00  0.00    +0.006 A 
ATOM     29  C   UNL     1      -5.962   2.506  25.682  0.00  0.00    +0.001 A 
ATOM     30  C   UNL     1      -6.206   1.996  25.082  0.00  0.00    +0.000 A 
ATOM     31  C   UNL     1      -5.648   1.644  24.586  0.00  0.00    +0.001 A 
ENDBRANCH  16  23
BRANCH   7   6
ATOM      6  C   UNL     1       0.312   0.363  23.996  0.00  0.00    +0.143 C 
BRANCH   6   5
ATOM      5  S   UNL     1       0.540   0.163  23.229  0.00  0.00    -0.119 S 
BRANCH   5   4
ATOM      4  C   UNL     1       1.248  -0.242  23.101  0.00  0.00    +0.172 C 
BRANCH   4   2
ATOM      1  O   UNL     1       2.413   0.156  22.375  0.00  0.00    -0.245 OA
ATOM      2  C   UNL     1       1.648  -0.155  22.385  0.00  0.00    +0.376 C 
ATOM      3  O   UNL     1       1.285  -0.379  21.678  0.00  0.00    -0.245 OA
ENDBRANCH   4   2
ENDBRANCH   5   4
ENDBRANCH   6   5
ENDBRANCH   7   6
TORSDOF 5
ENDMDL
