MODEL 1
REMARK VINA RESULT:     -13.5      0.000      0.000
REMARK  Name = 
REMARK  2 active torsions:
REMARK  status: ('A' for Active; 'I' for Inactive)
REMARK    1  A    between atoms: C_7  and  C_9
REMARK    2  A    between atoms: C_14  and  C_16
REMARK                            x       y       z     vdW  Elec       q    Type
REMARK                         _______ _______ _______ _____ _____    ______ ____
ROOT
ATOM      9  C   UNL     1      -4.736   1.330  25.035  0.00  0.00    +0.098 C 
ATOM     10  C   UNL     1      -5.525   1.567  25.002  0.00  0.00    +0.032 C 
ATOM     11  C   UNL     1      -5.549   2.388  25.073  0.00  0.00    +0.094 C 
ATOM     12  N   UNL     1      -4.774   2.660  25.151  0.00  0.00    -0.276 N 
ATOM     13  C   UNL     1      -4.271   2.005  25.127  0.00  0.00    +0.103 C 
ATOM     14  C   UNL     1      -4.542   3.446  25.237  0.00  0.00    +0.249 C 
ATOM     15  O   UNL     1      -5.109   4.045  25.252  0.00  0.00    -0.270 OA
ENDROOT
BRANCH   9   7
ATOM      1 CL   UNL     1      -3.655  -2.726  24.029  0.00  0.00    -0.082 Cl
ATOM      2  C   UNL     1      -3.725  -2.019  24.446  0.00  0.00    +0.059 A 
ATOM      3  C   UNL     1      -4.134  -1.384  24.116  0.00  0.00    +0.034 A 
ATOM      4  C   UNL     1      -4.204  -0.675  24.533  0.00  0.00    +0.119 A 
ATOM      5  C   UNL     1      -3.864  -0.602  25.281  0.00  0.00    +0.164 A 
ATOM      6  O   UNL     1      -4.022   0.157  25.560  0.00  0.00    -0.438 OA
ATOM      7  C   UNL     1      -4.459   0.554  24.985  0.00  0.00    +0.207 A 
ATOM      8  N   UNL     1      -4.571   0.040  24.350  0.00  0.00    -0.212 NA
ATOM     22  C   UNL     1      -3.455  -1.238  25.612  0.00  0.00    +0.040 A 
ATOM     23  C   UNL     1      -3.385  -1.946  25.194  0.00  0.00    +0.015 A 
ENDBRANCH   9   7
BRANCH  14  16
ATOM     16  C   UNL     1      -3.741   3.635  25.309  0.00  0.00    +0.054 A 
ATOM     17  C   UNL     1      -3.273   3.711  24.633  0.00  0.00    +0.005 A 
ATOM     18  C   UNL     1      -2.473   3.900  24.706  0.00  0.00    +0.000 A 
ATOM     19  C   UNL     1      -2.142   4.013  25.452  0.00  0.00    +0.000 A 
ATOM     20  C   UNL     1      -2.610   3.938  26.128  0.00  0.00    +0.000 A 
ATOM     21  C   UNL     1      -3.411   3.749  26.056  0.00  0.00    +0.005 A 
ENDBRANCH  14  16
TORSDOF 2
ENDMDL
MODEL 2
REMARK VINA RESULT:     -12.1      2.823      5.348
REMARK  Name = 
REMARK  2 active torsions:
REMARK  status: ('A' for Active; 'I' for Inactive)
REMARK    1  A    between atoms: C_7  and  C_9
REMARK    2  A    between atoms: C_14  and  C_16
REMARK                            x       y       z     vdW  Elec       q    Type
REMARK                         _______ _______ _______ _____ _____    ______ ____
ROOT
ATOM      9  C   UNL     1      -1.111   1.149  24.863  0.00  0.00    +0.098 C 
ATOM     10  C   UNL     1      -0.378   0.813  24.691  0.00  0.00    +0.032 C 
ATOM     11  C   UNL     1      -0.480  -0.002  24.617  0.00  0.00    +0.094 C 
ATOM     12  N   UNL     1      -1.278  -0.170  24.743  0.00  0.00    -0.276 N 
ATOM     13  C   UNL     1      -1.667   0.541  24.895  0.00  0.00    +0.103 C 
ATOM     14  C   UNL     1      -1.625  -0.918  24.721  0.00  0.00    +0.249 C 
ATOM     15  O   UNL     1      -1.164  -1.583  24.561  0.00  0.00    -0.270 OA
ENDROOT
BRANCH   9   7
ATOM      1 CL   UNL     1      -1.199   5.460  25.053  0.00  0.00    -0.082 Cl
ATOM      2  C   UNL     1      -1.410   4.671  25.160  0.00  0.00    +0.059 A 
ATOM      3  C   UNL     1      -0.939   4.072  24.847  0.00  0.00    +0.034 A 
ATOM      4  C   UNL     1      -1.150   3.281  24.954  0.00  0.00    +0.119 A 
ATOM      5  C   UNL     1      -1.833   3.091  25.375  0.00  0.00    +0.164 A 
ATOM      6  O   UNL     1      -1.902   2.269  25.393  0.00  0.00    -0.438 OA
ATOM      7  C   UNL     1      -1.261   1.951  24.982  0.00  0.00    +0.207 A 
ATOM      8  N   UNL     1      -0.797   2.577  24.711  0.00  0.00    -0.212 NA
ATOM     22  C   UNL     1      -2.306   3.691  25.689  0.00  0.00    +0.040 A 
ATOM     23  C   UNL     1      -2.094   4.480  25.581  0.00  0.00    +0.015 A 
ENDBRANCH   9   7
BRANCH  14  16
ATOM     16  C   UNL     1      -2.435  -1.002  24.859  0.00  0.00    +0.054 A 
ATOM     17  C   UNL     1      -2.712  -1.126  25.627  0.00  0.00    +0.005 A 
ATOM     18  C   UNL     1      -3.521  -1.209  25.764  0.00  0.00    +0.000 A 
ATOM     19  C   UNL     1      -4.053  -1.169  25.136  0.00  0.00    +0.000 A 
ATOM     20  C   UNL     1      -3.776  -1.045  24.368  0.00  0.00    +0.000 A 
ATOM     21  C   UNL     1      -2.966  -0.961  24.230  0.00  0.00    +0.005 A 
ENDBRANCH  14  16
TORSDOF 2
ENDMDL
MODEL 3
REMARK VINA RESULT:     -12.0      2.145      4.570
REMARK  Name = 
REMARK  2 active torsions:
REMARK  status: ('A' for Active; 'I' for Inactive)
REMARK    1  A    between atoms: C_7  and  C_9
REMARK    2  A    between atoms: C_14  and  C_16
REMARK                            x       y       z     vdW  Elec       q    Type
REMARK                         _______ _______ _______ _____ _____    ______ ____
ROOT
ATOM      9  C   UNL     1      -3.793   2.328  24.893  0.00  0.00    +0.098 C 
ATOM     10  C   UNL     1      -4.579   2.574  24.848  0.00  0.00    +0.032 C 
ATOM     11  C   UNL     1      -5.057   1.902  24.812  0.00  0.00    +0.094 C 
ATOM     12  N   UNL     1      -4.565   1.240  24.834  0.00  0.00    -0.276 N 
ATOM     13  C   UNL     1      -3.785   1.503  24.885  0.00  0.00    +0.103 C 
ATOM     14  C   UNL     1      -4.810   0.453  24.810  0.00  0.00    +0.249 C 
ATOM     15  O   UNL     1      -5.614   0.272  24.760  0.00  0.00    -0.270 OA
ENDROOT
BRANCH   9   7
ATOM      1 CL   UNL     1      -0.887   5.515  25.048  0.00  0.00    -0.082 Cl
ATOM      2  C   UNL     1      -1.216   4.759  25.049  0.00  0.00    +0.059 A 
ATOM      3  C   UNL     1      -2.030   4.664  24.969  0.00  0.00    +0.034 A 
ATOM      4  C   UNL     1      -2.360   3.907  24.969  0.00  0.00    +0.119 A 
ATOM      5  C   UNL     1      -1.873   3.246  25.049  0.00  0.00    +0.164 A 
ATOM      6  O   UNL     1      -2.351   2.574  25.030  0.00  0.00    -0.438 OA
ATOM      7  C   UNL     1      -3.133   2.819  24.939  0.00  0.00    +0.207 A 
ATOM      8  N   UNL     1      -3.138   3.643  24.901  0.00  0.00    -0.212 NA
ATOM     22  C   UNL     1      -1.057   3.341  25.128  0.00  0.00    +0.040 A 
ATOM     23  C   UNL     1      -0.729   4.098  25.128  0.00  0.00    +0.015 A 
ENDBRANCH   9   7
BRANCH  14  16
ATOM     16  C   UNL     1      -4.252  -0.155  24.838  0.00  0.00    +0.054 A 
ATOM     17  C   UNL     1      -3.962  -0.480  24.137  0.00  0.00    +0.005 A 
ATOM     18  C   UNL     1      -3.404  -1.087  24.165  0.00  0.00    +0.000 A 
ATOM     19  C   UNL     1      -3.137  -1.370  24.892  0.00  0.00    +0.000 A 
ATOM     20  C   UNL     1      -3.428  -1.045  25.593  0.00  0.00    +0.000 A 
ATOM     21  C   UNL     1      -3.986  -0.437  25.566  0.00  0.00    +0.005 A 
ENDBRANCH  14  16
TORSDOF 2
ENDMDL
MODEL 4
REMARK VINA RESULT:     -11.9      1.297      1.893
REMARK  Name = 
REMARK  2 active torsions:
REMARK  status: ('A' for Active; 'I' for Inactive)
REMARK    1  A    between atoms: C_7  and  C_9
REMARK    2  A    between atoms: C_14  and  C_16
REMARK                            x       y       z     vdW  Elec       q    Type
REMARK                         _______ _______ _______ _____ _____    ______ ____
ROOT
ATOM      9  C   UNL     1      -3.270   0.948  23.841  0.00  0.00    +0.098 C 
ATOM     10  C   UNL     1      -2.882   1.307  23.208  0.00  0.00    +0.032 C 
ATOM     11  C   UNL     1      -3.069   2.110  23.216  0.00  0.00    +0.094 C 
ATOM     12  N   UNL     1      -3.573   2.248  23.854  0.00  0.00    -0.276 N 
ATOM     13  C   UNL     1      -3.697   1.530  24.241  0.00  0.00    +0.103 C 
ATOM     14  C   UNL     1      -3.896   2.976  24.069  0.00  0.00    +0.249 C 
ATOM     15  O   UNL     1      -3.721   3.651  23.628  0.00  0.00    -0.270 OA
ENDROOT
BRANCH   9   7
ATOM      1 CL   UNL     1      -3.814  -3.288  24.470  0.00  0.00    -0.082 Cl
ATOM      2  C   UNL     1      -3.486  -2.532  24.494  0.00  0.00    +0.059 A 
ATOM      3  C   UNL     1      -3.872  -1.903  24.126  0.00  0.00    +0.034 A 
ATOM      4  C   UNL     1      -3.544  -1.146  24.149  0.00  0.00    +0.119 A 
ATOM      5  C   UNL     1      -2.830  -1.019  24.542  0.00  0.00    +0.164 A 
ATOM      6  O   UNL     1      -2.640  -0.219  24.475  0.00  0.00    -0.438 OA
ATOM      7  C   UNL     1      -3.237   0.148  24.040  0.00  0.00    +0.207 A 
ATOM      8  N   UNL     1      -3.795  -0.425  23.840  0.00  0.00    -0.212 NA
ATOM     22  C   UNL     1      -2.443  -1.649  24.912  0.00  0.00    +0.040 A 
ATOM     23  C   UNL     1      -2.772  -2.405  24.887  0.00  0.00    +0.015 A 
ENDBRANCH   9   7
BRANCH  14  16
ATOM     16  C   UNL     1      -4.394   3.030  24.725  0.00  0.00    +0.054 A 
ATOM     17  C   UNL     1      -5.178   2.777  24.670  0.00  0.00    +0.005 A 
ATOM     18  C   UNL     1      -5.674   2.831  25.326  0.00  0.00    +0.000 A 
ATOM     19  C   UNL     1      -5.389   3.137  26.037  0.00  0.00    +0.000 A 
ATOM     20  C   UNL     1      -4.605   3.391  26.091  0.00  0.00    +0.000 A 
ATOM     21  C   UNL     1      -4.107   3.337  25.435  0.00  0.00    +0.005 A 
ENDBRANCH  14  16
TORSDOF 2
ENDMDL
