MODEL 1
REMARK VINA RESULT:     -13.4      0.000      0.000
REMARK  Name = 
REMARK  5 active torsions:
REMARK  status: ('A' for Active; 'I' for Inactive)
REMARK    1  A    between atoms: C_1  and  N_2
REMARK    2  A    between atoms: C_1  and  C_16
REMARK    3  A    between atoms: C_7  and  O_9
REMARK    4  A    between atoms: O_9  and  C_10
REMARK    5  A    between atoms: C_19  and  C_22
REMARK                            x       y       z     vdW  Elec       q    Type
REMARK                         _______ _______ _______ _____ _____    ______ ____
ROOT
ATOM      2  N   UNL     1      -3.764   2.834  24.651  0.00  0.00    -0.264 NA
ATOM      3  C   UNL     1      -4.298   3.030  25.248  0.00  0.00    +0.105 C 
ATOM      4  C   UNL     1      -4.181   3.520  25.902  0.00  0.00    +0.160 C 
ATOM      5  O   UNL     1      -3.502   3.933  26.121  0.00  0.00    -0.348 OA
ATOM      6  C   UNL     1      -2.771   3.960  25.739  0.00  0.00    +0.187 C 
ATOM      7  C   UNL     1      -2.539   3.580  25.045  0.00  0.00    +0.213 C 
ATOM      8  C   UNL     1      -2.981   3.078  24.560  0.00  0.00    +0.119 C 
ENDROOT
BRANCH   2   1
ATOM      1  C   UNL     1      -4.050   2.326  24.068  0.00  0.00    +0.099 C 
BRANCH   1  16
ATOM     16  C   UNL     1      -3.992   1.509  24.166  0.00  0.00    -0.006 A 
ATOM     17  C   UNL     1      -4.489   1.121  24.697  0.00  0.00    -0.003 A 
ATOM     18  C   UNL     1      -4.431   0.304  24.796  0.00  0.00    -0.000 A 
ATOM     19  C   UNL     1      -3.874  -0.124  24.364  0.00  0.00    -0.000 A 
ATOM     20  C   UNL     1      -3.377   0.264  23.833  0.00  0.00    -0.000 A 
ATOM     21  C   UNL     1      -3.435   1.081  23.734  0.00  0.00    -0.003 A 
BRANCH  19  22
ATOM     22  C   UNL     1      -3.816  -0.941  24.462  0.00  0.00    -0.000 A 
ATOM     23  C   UNL     1      -3.418  -1.251  25.116  0.00  0.00    -0.000 A 
ATOM     24  C   UNL     1      -3.360  -2.068  25.214  0.00  0.00    +0.000 A 
ATOM     25  C   UNL     1      -3.699  -2.575  24.660  0.00  0.00    +0.000 A 
ATOM     26  C   UNL     1      -4.098  -2.266  24.006  0.00  0.00    +0.000 A 
ATOM     27  C   UNL     1      -4.155  -1.450  23.908  0.00  0.00    -0.000 A 
ENDBRANCH  19  22
ENDBRANCH   1  16
ENDBRANCH   2   1
BRANCH   7   9
ATOM      9  O   UNL     1      -1.762   3.719  24.803  0.00  0.00    -0.459 OA
BRANCH   9  10
ATOM     10  C   UNL     1      -1.155   3.222  25.058  0.00  0.00    +0.245 A 
ATOM     11  C   UNL     1      -0.695   2.816  24.506  0.00  0.00    +0.156 A 
ATOM     12  N   UNL     1      -0.088   2.320  24.761  0.00  0.00    -0.236 NA
ATOM     13  C   UNL     1       0.059   2.229  25.568  0.00  0.00    +0.120 A 
ATOM     14  C   UNL     1      -0.401   2.635  26.119  0.00  0.00    +0.123 A 
ATOM     15  N   UNL     1      -1.008   3.132  25.864  0.00  0.00    -0.207 NA
ENDBRANCH   9  10
ENDBRANCH   7   9
TORSDOF 5
ENDMDL
MODEL 2
REMARK VINA RESULT:     -11.9      1.277      2.834
REMARK  Name = 
REMARK  5 active torsions:
REMARK  status: ('A' for Active; 'I' for Inactive)
REMARK    1  A    between atoms: C_1  and  N_2
REMARK    2  A    between atoms: C_1  and  C_16
REMARK    3  A    between atoms: C_7  and  O_9
REMARK    4  A    between atoms: O_9  and  C_10
REMARK    5  A    between atoms: C_19  and  C_22
REMARK                            x       y       z     vdW  Elec       q    Type
REMARK                         _______ _______ _______ _____ _____    ______ ____
ROOT
ATOM      2  N   UNL     1      -0.677   1.180  25.341  0.00  0.00    -0.264 NA
ATOM      3  C   UNL     1      -0.093   1.231  24.761  0.00  0.00    +0.105 C 
ATOM      4  C   UNL     1       0.135   1.888  24.317  0.00  0.00    +0.160 C 
ATOM      5  O   UNL     1      -0.165   2.656  24.343  0.00  0.00    -0.348 OA
ATOM      6  C   UNL     1      -0.768   2.957  24.819  0.00  0.00    +0.187 C 
ATOM      7  C   UNL     1      -1.219   2.564  25.387  0.00  0.00    +0.213 C 
ATOM      8  C   UNL     1      -1.179   1.773  25.620  0.00  0.00    +0.119 C 
ENDROOT
BRANCH   2   1
ATOM      1  C   UNL     1      -0.773   0.438  25.688  0.00  0.00    +0.099 C 
BRANCH   1  16
ATOM     16  C   UNL     1      -1.351  -0.079  25.404  0.00  0.00    -0.006 A 
ATOM     17  C   UNL     1      -1.272  -0.413  24.655  0.00  0.00    -0.003 A 
ATOM     18  C   UNL     1      -1.850  -0.930  24.371  0.00  0.00    -0.000 A 
ATOM     19  C   UNL     1      -2.505  -1.112  24.838  0.00  0.00    -0.000 A 
ATOM     20  C   UNL     1      -2.583  -0.778  25.587  0.00  0.00    -0.000 A 
ATOM     21  C   UNL     1      -2.006  -0.261  25.871  0.00  0.00    -0.003 A 
BRANCH  19  22
ATOM     22  C   UNL     1      -3.082  -1.629  24.554  0.00  0.00    -0.000 A 
ATOM     23  C   UNL     1      -3.010  -2.441  24.685  0.00  0.00    -0.000 A 
ATOM     24  C   UNL     1      -3.587  -2.956  24.401  0.00  0.00    +0.000 A 
ATOM     25  C   UNL     1      -4.236  -2.662  23.986  0.00  0.00    +0.000 A 
ATOM     26  C   UNL     1      -4.309  -1.850  23.854  0.00  0.00    +0.000 A 
ATOM     27  C   UNL     1      -3.732  -1.334  24.138  0.00  0.00    -0.000 A 
ENDBRANCH  19  22
ENDBRANCH   1  16
ENDBRANCH   2   1
BRANCH   7   9
ATOM      9  O   UNL     1      -1.785   3.023  25.775  0.00  0.00    -0.459 OA
BRANCH   9  10
ATOM     10  C   UNL     1      -2.454   3.284  25.368  0.00  0.00    +0.245 A 
ATOM     11  C   UNL     1      -2.465   4.038  25.034  0.00  0.00    +0.156 A 
ATOM     12  N   UNL     1      -3.133   4.299  24.627  0.00  0.00    -0.236 NA
ATOM     13  C   UNL     1      -3.791   3.805  24.554  0.00  0.00    +0.120 A 
ATOM     14  C   UNL     1      -3.779   3.051  24.888  0.00  0.00    +0.123 A 
ATOM     15  N   UNL     1      -3.110   2.790  25.295  0.00  0.00    -0.207 NA
ENDBRANCH   9  10
ENDBRANCH   7   9
TORSDOF 5
ENDMDL
MODEL 3
REMARK VINA RESULT:     -11.4      1.244      2.769
REMARK  Name = 
REMARK  5 active torsions:
REMARK  status: ('A' for Active; 'I' for Inactive)
REMARK    1  A    between atoms: C_1  and  N_2
REMARK    2  A    between atoms: C_1  and  C_16
REMARK    3  A    between atoms: C_7  and  O_9
REMARK    4  A    between atoms: O_9  and  C_10
REMARK    5  A    between atoms: C_19  and  C_22
REMARK                            x       y       z     vdW  Elec       q    Type
REMARK                         _______ _______ _______ _____ _____    ______ ____
ROOT
ATOM      2  N   UNL     1      -2.004   2.560  24.745  0.00  0.00    -0.264 NA
ATOM      3  C   UNL     1      -1.482   2.807  25.335  0.00  0.00    +0.105 C 
ATOM      4  C   UNL     1      -1.593   3.389  25.909  0.00  0.00    +0.160 C 
ATOM      5  O   UNL     1      -2.253   3.867  26.037  0.00  0.00    -0.348 OA
ATOM      6  C   UNL     1      -2.966   3.881  25.620  0.00  0.00    +0.187 C 
ATOM      7  C   UNL     1      -3.194   3.421  24.975  0.00  0.00    +0.213 C 
ATOM      8  C   UNL     1      -2.766   2.833  24.585  0.00  0.00    +0.119 C 
ENDROOT
BRANCH   2   1
ATOM      1  C   UNL     1      -1.728   1.960  24.251  0.00  0.00    +0.099 C 
BRANCH   1  16
ATOM     16  C   UNL     1      -1.975   1.182  24.368  0.00  0.00    -0.006 A 
ATOM     17  C   UNL     1      -1.756   0.777  25.052  0.00  0.00    -0.003 A 
ATOM     18  C   UNL     1      -2.004  -0.001  25.169  0.00  0.00    -0.000 A 
ATOM     19  C   UNL     1      -2.471  -0.374  24.601  0.00  0.00    -0.000 A 
ATOM     20  C   UNL     1      -2.690   0.030  23.916  0.00  0.00    -0.000 A 
ATOM     21  C   UNL     1      -2.442   0.809  23.800  0.00  0.00    -0.003 A 
BRANCH  19  22
ATOM     22  C   UNL     1      -2.719  -1.152  24.717  0.00  0.00    -0.000 A 
ATOM     23  C   UNL     1      -3.441  -1.305  25.088  0.00  0.00    -0.000 A 
ATOM     24  C   UNL     1      -3.688  -2.083  25.204  0.00  0.00    +0.000 A 
ATOM     25  C   UNL     1      -3.214  -2.709  24.951  0.00  0.00    +0.000 A 
ATOM     26  C   UNL     1      -2.492  -2.557  24.580  0.00  0.00    +0.000 A 
ATOM     27  C   UNL     1      -2.245  -1.779  24.464  0.00  0.00    -0.000 A 
ENDBRANCH  19  22
ENDBRANCH   1  16
ENDBRANCH   2   1
BRANCH   7   9
ATOM      9  O   UNL     1      -3.950   3.569  24.679  0.00  0.00    -0.459 OA
BRANCH   9  10
ATOM     10  C   UNL     1      -4.607   3.216  25.031  0.00  0.00    +0.245 A 
ATOM     11  C   UNL     1      -4.911   3.521  25.735  0.00  0.00    +0.156 A 
ATOM     12  N   UNL     1      -5.568   3.168  26.088  0.00  0.00    -0.236 NA
ATOM     13  C   UNL     1      -5.921   2.510  25.736  0.00  0.00    +0.120 A 
ATOM     14  C   UNL     1      -5.617   2.205  25.033  0.00  0.00    +0.123 A 
ATOM     15  N   UNL     1      -4.959   2.559  24.680  0.00  0.00    -0.207 NA
ENDBRANCH   9  10
ENDBRANCH   7   9
TORSDOF 5
ENDMDL
