MODEL 1
REMARK VINA RESULT:     -11.3      0.000      0.000
REMARK  Name = 
REMARK  5 active torsions:
REMARK  status: ('A' for Active; 'I' for Inactive)
REMARK    1  A    between atoms: C_2  and  C_3
REMARK    2  A    between atoms: C_3  and  C_4
REMARK    3  A    between atoms: C_22  and  N_25
REMARK    4  A    between atoms: N_31  and  C_32
REMARK    5  A    between atoms: C_32  and  C_33
REMARK                            x       y       z     vdW  Elec       q    Type
REMARK                         _______ _______ _______ _____ _____    ______ ____
ROOT
ATOM      4  C   UNL     1       0.625   0.377  23.500  0.00  0.00    +0.017 C 
ATOM      5  C   UNL     1       0.673  -0.428  23.671  0.00  0.00    +0.022 C 
ATOM      6  C   UNL     1       0.024  -0.820  23.997  0.00  0.00    +0.093 C 
ATOM      7  N   UNL     1      -0.668  -0.482  24.168  0.00  0.00    -0.278 N 
ATOM      8  C   UNL     1      -0.721   0.399  23.980  0.00  0.00    +0.098 C 
ATOM      9  C   UNL     1      -0.262   1.013  23.671  0.00  0.00    +0.042 C 
ATOM     10  C   UNL     1      -0.720   1.700  23.676  0.00  0.00    -0.026 C 
ATOM     11  C   UNL     1      -1.460   1.510  23.987  0.00  0.00    +0.016 C 
ATOM     12  C   UNL     1      -2.253   1.896  24.183  0.00  0.00    +0.231 C 
ATOM     13  O   UNL     1      -2.675   1.722  24.376  0.00  0.00    -0.471 OA
ATOM     14  C   UNL     1      -2.801   0.669  24.667  0.00  0.00    +0.136 A 
ATOM     15  C   UNL     1      -3.431   0.246  24.994  0.00  0.00    +0.030 A 
ATOM     16  C   UNL     1      -3.350  -0.559  25.153  0.00  0.00    +0.119 C 
ATOM     17  N   UNL     1      -2.638  -0.943  24.986  0.00  0.00    -0.204 NA
ATOM     18  C   UNL     1      -2.008  -0.520  24.660  0.00  0.00    +0.174 C 
ATOM     19  C   UNL     1      -1.298  -0.904  24.493  0.00  0.00    +0.243 C 
ATOM     20  O   UNL     1      -1.217  -1.709  24.653  0.00  0.00    -0.273 OA
ATOM     21  C   UNL     1      -4.142   0.630  25.160  0.00  0.00    +0.015 A 
ATOM     22  C   UNL     1      -4.224   1.435  25.001  0.00  0.00    +0.048 A 
ATOM     23  C   UNL     1      -3.594   1.858  24.675  0.00  0.00    +0.018 A 
ATOM     24  C   UNL     1      -2.883   1.474  24.509  0.00  0.00    +0.038 A 
ENDROOT
BRANCH  22  25
ATOM     25  N   UNL     1      -4.935   1.819  25.168  0.00  0.00    -0.305 N 
ATOM     26  C   UNL     1      -5.638   1.551  24.830  0.00  0.00    +0.110 C 
ATOM     27  C   UNL     1      -6.349   1.934  24.997  0.00  0.00    +0.110 C 
ATOM     28  N   UNL     1      -6.357   2.587  25.501  0.00  0.00    -0.214 NA
ATOM     29  C   UNL     1      -5.654   2.855  25.839  0.00  0.00    +0.110 C 
ATOM     30  C   UNL     1      -4.943   2.472  25.672  0.00  0.00    +0.110 C 
ENDBRANCH  22  25
BRANCH   4   3
ATOM      3  C   UNL     1       1.293   0.737  23.175  0.00  0.00    +0.087 C 
BRANCH   3   2
ATOM      1  O   UNL     1       1.717  -0.253  22.235  0.00  0.00    -0.273 OA
ATOM      2  C   UNL     1       1.892   0.274  22.845  0.00  0.00    +0.242 C 
ATOM     31  N   UNL     1       2.664   0.338  23.127  0.00  0.00    -0.200 NA
BRANCH  31  32
ATOM     32  C   UNL     1       3.263  -0.125  22.797  0.00  0.00    +0.143 C 
BRANCH  32  33
ATOM     33  C   UNL     1       4.017  -0.120  23.130  0.00  0.00    +0.019 A 
ATOM     34  C   UNL     1       4.496   0.549  23.060  0.00  0.00    +0.001 A 
ATOM     35  C   UNL     1       5.250   0.553  23.393  0.00  0.00    +0.020 A 
ATOM     36  C   UNL     1       5.527  -0.111  23.796  0.00  0.00    +0.099 A 
ATOM     37  N   UNL     1       5.049  -0.780  23.867  0.00  0.00    -0.243 NA
ATOM     38  C   UNL     1       4.295  -0.785  23.534  0.00  0.00    +0.096 A 
ENDBRANCH  32  33
ENDBRANCH  31  32
ENDBRANCH   3   2
ENDBRANCH   4   3
TORSDOF 5
ENDMDL
MODEL 2
REMARK VINA RESULT:     -10.1      1.120      1.878
REMARK  Name = 
REMARK  5 active torsions:
REMARK  status: ('A' for Active; 'I' for Inactive)
REMARK    1  A    between atoms: C_2  and  C_3
REMARK    2  A    between atoms: C_3  and  C_4
REMARK    3  A    between atoms: C_22  and  N_25
REMARK    4  A    between atoms: N_31  and  C_32
REMARK    5  A    between atoms: C_32  and  C_33
REMARK                            x       y       z     vdW  Elec       q    Type
REMARK                         _______ _______ _______ _____ _____    ______ ____
ROOT
ATOM      4  C   UNL     1       0.465   0.602  23.750  0.00  0.00    +0.017 C 
ATOM      5  C   UNL     1       0.862   1.324  23.774  0.00  0.00    +0.022 C 
ATOM      6  C   UNL     1       0.453   2.013  23.973  0.00  0.00    +0.093 C 
ATOM      7  N   UNL     1      -0.315   2.046  24.150  0.00  0.00    -0.278 N 
ATOM      8  C   UNL     1      -0.750   1.256  24.124  0.00  0.00    +0.098 C 
ATOM      9  C   UNL     1      -0.609   0.457  23.968  0.00  0.00    +0.042 C 
ATOM     10  C   UNL     1      -1.321   0.050  24.064  0.00  0.00    -0.026 C 
ATOM     11  C   UNL     1      -1.899   0.597  24.279  0.00  0.00    +0.016 C 
ATOM     12  C   UNL     1      -2.779   0.636  24.482  0.00  0.00    +0.231 C 
ATOM     13  O   UNL     1      -3.080   1.009  24.608  0.00  0.00    -0.471 OA
ATOM     14  C   UNL     1      -2.730   2.049  24.692  0.00  0.00    +0.136 A 
ATOM     15  C   UNL     1      -3.108   2.756  24.887  0.00  0.00    +0.030 A 
ATOM     16  C   UNL     1      -2.682   3.462  24.902  0.00  0.00    +0.119 C 
ATOM     17  N   UNL     1      -1.876   3.461  24.721  0.00  0.00    -0.204 NA
ATOM     18  C   UNL     1      -1.498   2.753  24.526  0.00  0.00    +0.174 C 
ATOM     19  C   UNL     1      -0.693   2.753  24.346  0.00  0.00    +0.243 C 
ATOM     20  O   UNL     1      -0.267   3.459  24.360  0.00  0.00    -0.273 OA
ATOM     21  C   UNL     1      -3.913   2.757  25.067  0.00  0.00    +0.015 A 
ATOM     22  C   UNL     1      -4.340   2.051  25.053  0.00  0.00    +0.048 A 
ATOM     23  C   UNL     1      -3.962   1.344  24.857  0.00  0.00    +0.018 A 
ATOM     24  C   UNL     1      -3.157   1.343  24.677  0.00  0.00    +0.038 A 
ENDROOT
BRANCH  22  25
ATOM     25  N   UNL     1      -5.145   2.052  25.233  0.00  0.00    -0.305 N 
ATOM     26  C   UNL     1      -5.697   1.830  24.661  0.00  0.00    +0.110 C 
ATOM     27  C   UNL     1      -6.501   1.831  24.841  0.00  0.00    +0.110 C 
ATOM     28  N   UNL     1      -6.755   2.054  25.594  0.00  0.00    -0.214 NA
ATOM     29  C   UNL     1      -6.204   2.276  26.166  0.00  0.00    +0.110 C 
ATOM     30  C   UNL     1      -5.399   2.275  25.986  0.00  0.00    +0.110 C 
ENDBRANCH  22  25
BRANCH   4   3
ATOM      3  C   UNL     1       0.904  -0.067  23.547  0.00  0.00    +0.087 C 
BRANCH   3   2
ATOM      1  O   UNL     1       1.348   0.063  22.194  0.00  0.00    -0.273 OA
ATOM      2  C   UNL     1       1.519  -0.006  22.999  0.00  0.00    +0.242 C 
ATOM     31  N   UNL     1       2.302  -0.014  23.256  0.00  0.00    -0.200 NA
BRANCH  31  32
ATOM     32  C   UNL     1       2.917   0.047  22.709  0.00  0.00    +0.143 C 
BRANCH  32  33
ATOM     33  C   UNL     1       3.700   0.045  22.966  0.00  0.00    +0.019 A 
ATOM     34  C   UNL     1       4.161   0.726  22.894  0.00  0.00    +0.001 A 
ATOM     35  C   UNL     1       4.944   0.723  23.151  0.00  0.00    +0.020 A 
ATOM     36  C   UNL     1       5.267   0.041  23.481  0.00  0.00    +0.099 A 
ATOM     37  N   UNL     1       4.808  -0.640  23.554  0.00  0.00    -0.243 NA
ATOM     38  C   UNL     1       4.024  -0.638  23.296  0.00  0.00    +0.096 A 
ENDBRANCH  32  33
ENDBRANCH  31  32
ENDBRANCH   3   2
ENDBRANCH   4   3
TORSDOF 5
ENDMDL
MODEL 3
REMARK VINA RESULT:      -9.1      1.361      6.397
REMARK  Name = 
REMARK  5 active torsions:
REMARK  status: ('A' for Active; 'I' for Inactive)
REMARK    1  A    between atoms: C_2  and  C_3
REMARK    2  A    between atoms: C_3  and  C_4
REMARK    3  A    between atoms: C_22  and  N_25
REMARK    4  A    between atoms: N_31  and  C_32
REMARK    5  A    between atoms: C_32  and  C_33
REMARK                            x       y       z     vdW  Elec       q    Type
REMARK                         _______ _______ _______ _____ _____    ______ ____
ROOT
ATOM      4  C   UNL     1      -4.244   0.570  24.713  0.00  0.00    +0.017 C 
ATOM      5  C   UNL     1      -4.346  -0.078  25.213  0.00  0.00    +0.022 C 
ATOM      6  C   UNL     1      -3.715  -0.589  25.358  0.00  0.00    +0.093 C 
ATOM      7  N   UNL     1      -2.993  -0.514  25.049  0.00  0.00    -0.278 N 
ATOM      8  C   UNL     1      -2.882   0.194  24.500  0.00  0.00    +0.098 C 
ATOM      9  C   UNL     1      -3.306   0.833  24.192  0.00  0.00    +0.042 C 
ATOM     10  C   UNL     1      -2.798   1.263  23.703  0.00  0.00    -0.026 C 
ATOM     11  C   UNL     1      -2.062   0.890  23.711  0.00  0.00    +0.016 C 
ATOM     12  C   UNL     1      -1.236   0.975  23.357  0.00  0.00    +0.231 C 
ATOM     13  O   UNL     1      -0.820   0.709  23.401  0.00  0.00    -0.471 OA
ATOM     14  C   UNL     1      -0.761  -0.193  24.028  0.00  0.00    +0.136 A 
ATOM     15  C   UNL     1      -0.151  -0.725  24.194  0.00  0.00    +0.030 A 
ATOM     16  C   UNL     1      -0.285  -1.362  24.700  0.00  0.00    +0.119 C 
ATOM     17  N   UNL     1      -1.030  -1.469  25.040  0.00  0.00    -0.204 NA
ATOM     18  C   UNL     1      -1.640  -0.938  24.874  0.00  0.00    +0.174 C 
ATOM     19  C   UNL     1      -2.384  -1.045  25.214  0.00  0.00    +0.243 C 
ATOM     20  O   UNL     1      -2.518  -1.683  25.719  0.00  0.00    -0.273 OA
ATOM     21  C   UNL     1       0.592  -0.618  23.854  0.00  0.00    +0.015 A 
ATOM     22  C   UNL     1       0.727   0.020  23.349  0.00  0.00    +0.048 A 
ATOM     23  C   UNL     1       0.118   0.552  23.183  0.00  0.00    +0.018 A 
ATOM     24  C   UNL     1      -0.626   0.445  23.523  0.00  0.00    +0.038 A 
ENDROOT
BRANCH  22  25
ATOM     25  N   UNL     1       1.471   0.127  23.009  0.00  0.00    -0.305 N 
ATOM     26  C   UNL     1       1.664  -0.260  22.306  0.00  0.00    +0.110 C 
ATOM     27  C   UNL     1       2.407  -0.153  21.966  0.00  0.00    +0.110 C 
ATOM     28  N   UNL     1       2.960   0.341  22.329  0.00  0.00    -0.214 NA
ATOM     29  C   UNL     1       2.767   0.728  23.031  0.00  0.00    +0.110 C 
ATOM     30  C   UNL     1       2.023   0.621  23.371  0.00  0.00    +0.110 C 
ENDBRANCH  22  25
BRANCH   4   3
ATOM      3  C   UNL     1      -4.897   1.061  24.590  0.00  0.00    +0.087 C 
BRANCH   3   2
ATOM      1  O   UNL     1      -5.582   1.574  25.736  0.00  0.00    -0.273 OA
ATOM      2  C   UNL     1      -5.050   1.681  25.114  0.00  0.00    +0.242 C 
ATOM     31  N   UNL     1      -4.671   2.406  25.016  0.00  0.00    -0.200 NA
BRANCH  31  32
ATOM     32  C   UNL     1      -4.823   3.027  25.539  0.00  0.00    +0.143 C 
BRANCH  32  33
ATOM     33  C   UNL     1      -4.265   3.624  25.645  0.00  0.00    +0.019 A 
ATOM     34  C   UNL     1      -3.817   3.653  26.338  0.00  0.00    +0.001 A 
ATOM     35  C   UNL     1      -3.259   4.250  26.443  0.00  0.00    +0.020 A 
ATOM     36  C   UNL     1      -3.147   4.818  25.857  0.00  0.00    +0.099 A 
ATOM     37  N   UNL     1      -3.593   4.790  25.164  0.00  0.00    -0.243 NA
ATOM     38  C   UNL     1      -4.152   4.193  25.058  0.00  0.00    +0.096 A 
ENDBRANCH  32  33
ENDBRANCH  31  32
ENDBRANCH   3   2
ENDBRANCH   4   3
TORSDOF 5
ENDMDL
