MODEL 1
REMARK VINA RESULT:     -11.8      0.000      0.000
REMARK  Name = 
REMARK  7 active torsions:
REMARK  status: ('A' for Active; 'I' for Inactive)
REMARK    1  A    between atoms: C_2  and  C_3
REMARK    2  A    between atoms: C_5  and  C_6
REMARK    3  A    between atoms: C_6  and  N_7
REMARK    4  A    between atoms: N_7  and  C_8
REMARK    5  A    between atoms: C_8  and  C_9
REMARK    6  A    between atoms: C_16  and  N_19
REMARK    7  A    between atoms: N_22  and  C_25
REMARK                            x       y       z     vdW  Elec       q    Type
REMARK                         _______ _______ _______ _____ _____    ______ ____
ROOT
ATOM      3  C   UNL     1      -5.448   3.017  25.342  0.00  0.00    +0.180 C 
ATOM      4  O   UNL     1      -4.652   3.229  25.377  0.00  0.00    -0.350 OA
ATOM      5  C   UNL     1      -4.200   2.551  25.246  0.00  0.00    +0.150 C 
ATOM     16  C   UNL     1      -4.717   1.919  25.129  0.00  0.00    +0.120 C 
ATOM     17  C   UNL     1      -5.489   2.207  25.189  0.00  0.00    +0.198 C 
ATOM     18  O   UNL     1      -6.179   1.762  25.109  0.00  0.00    -0.219 OA
ENDROOT
BRANCH  16  19
ATOM     19  N   UNL     1      -4.502   1.137  24.979  0.00  0.00    -0.267 NA
ATOM     20  C   UNL     1      -4.506   0.584  25.592  0.00  0.00    +0.094 C 
ATOM     21  C   UNL     1      -4.291  -0.199  25.442  0.00  0.00    +0.108 C 
ATOM     22  N   UNL     1      -4.070  -0.427  24.680  0.00  0.00    -0.305 N 
ATOM     23  C   UNL     1      -4.066   0.126  24.069  0.00  0.00    +0.108 C 
ATOM     24  C   UNL     1      -4.282   0.908  24.219  0.00  0.00    +0.094 C 
BRANCH  22  25
ATOM     25  C   UNL     1      -3.855  -1.210  24.531  0.00  0.00    +0.048 A 
ATOM     26  C   UNL     1      -3.190  -1.531  24.898  0.00  0.00    +0.017 A 
ATOM     27  C   UNL     1      -2.974  -2.314  24.749  0.00  0.00    +0.031 A 
ATOM     28  C   UNL     1      -3.424  -2.775  24.232  0.00  0.00    +0.140 A 
ATOM     29  F   UNL     1      -3.209  -3.556  24.083  0.00  0.00    -0.204 F 
ATOM     30  C   UNL     1      -4.089  -2.452  23.865  0.00  0.00    +0.031 A 
ATOM     31  C   UNL     1      -4.304  -1.670  24.015  0.00  0.00    +0.017 A 
ENDBRANCH  22  25
ENDBRANCH  16  19
BRANCH   3   2
ATOM      1  O   UNL     1      -5.982   4.261  25.798  0.00  0.00    -0.218 OA
ATOM      2  C   UNL     1      -6.090   3.523  25.443  0.00  0.00    +0.214 C 
ENDBRANCH   3   2
BRANCH   5   6
ATOM      6  C   UNL     1      -3.376   2.513  25.233  0.00  0.00    +0.120 C 
BRANCH   6   7
ATOM      7  N   UNL     1      -2.931   3.206  25.227  0.00  0.00    -0.211 NA
BRANCH   7   8
ATOM      8  C   UNL     1      -2.128   3.182  25.417  0.00  0.00    +0.115 C 
BRANCH   8   9
ATOM      9  C   UNL     1      -1.638   3.815  25.214  0.00  0.00    -0.005 A 
ATOM     10  C   UNL     1      -0.912   3.675  24.850  0.00  0.00    -0.001 A 
ATOM     11  C   UNL     1      -0.422   4.308  24.648  0.00  0.00    +0.029 A 
ATOM     12  C   UNL     1      -0.660   5.081  24.810  0.00  0.00    +0.140 A 
ATOM     13  F   UNL     1      -0.171   5.714  24.608  0.00  0.00    -0.204 F 
ATOM     14  C   UNL     1      -1.387   5.221  25.175  0.00  0.00    +0.029 A 
ATOM     15  C   UNL     1      -1.875   4.589  25.377  0.00  0.00    -0.001 A 
ENDBRANCH   8   9
ENDBRANCH   7   8
ENDBRANCH   6   7
ENDBRANCH   5   6
TORSDOF 7
ENDMDL
MODEL 2
REMARK VINA RESULT:     -11.6      0.702      5.413
REMARK  Name = 
REMARK  7 active torsions:
REMARK  status: ('A' for Active; 'I' for Inactive)
REMARK    1  A    between atoms: C_2  and  C_3
REMARK    2  A    between atoms: C_5  and  C_6
REMARK    3  A    between atoms: C_6  and  N_7
REMARK    4  A    between atoms: N_7  and  C_8
REMARK    5  A    between atoms: C_8  and  C_9
REMARK    6  A    between atoms: C_16  and  N_19
REMARK    7  A    between atoms: N_22  and  C_25
REMARK                            x       y       z     vdW  Elec       q    Type
REMARK                         _______ _______ _______ _____ _____    ______ ____
ROOT
ATOM      3  C   UNL     1      -5.956   1.936  25.161  0.00  0.00    +0.180 C 
ATOM      4  O   UNL     1      -5.515   1.276  24.940  0.00  0.00    -0.350 OA
ATOM      5  C   UNL     1      -4.728   1.511  24.853  0.00  0.00    +0.150 C 
ATOM     16  C   UNL     1      -4.684   2.318  25.021  0.00  0.00    +0.120 C 
ATOM     17  C   UNL     1      -5.443   2.581  25.212  0.00  0.00    +0.198 C 
ATOM     18  O   UNL     1      -5.652   3.352  25.416  0.00  0.00    -0.219 OA
ENDROOT
BRANCH  16  19
ATOM     19  N   UNL     1      -4.002   2.781  25.002  0.00  0.00    -0.267 NA
ATOM     20  C   UNL     1      -3.540   2.862  25.682  0.00  0.00    +0.094 C 
ATOM     21  C   UNL     1      -2.857   3.325  25.663  0.00  0.00    +0.108 C 
ATOM     22  N   UNL     1      -2.637   3.707  24.965  0.00  0.00    -0.305 N 
ATOM     23  C   UNL     1      -3.098   3.625  24.287  0.00  0.00    +0.108 C 
ATOM     24  C   UNL     1      -3.781   3.162  24.305  0.00  0.00    +0.094 C 
BRANCH  22  25
ATOM     25  C   UNL     1      -1.953   4.170  24.946  0.00  0.00    +0.048 A 
ATOM     26  C   UNL     1      -1.220   3.817  24.813  0.00  0.00    +0.017 A 
ATOM     27  C   UNL     1      -0.537   4.280  24.794  0.00  0.00    +0.031 A 
ATOM     28  C   UNL     1      -0.588   5.096  24.910  0.00  0.00    +0.140 A 
ATOM     29  F   UNL     1       0.094   5.558  24.891  0.00  0.00    -0.204 F 
ATOM     30  C   UNL     1      -1.322   5.448  25.043  0.00  0.00    +0.031 A 
ATOM     31  C   UNL     1      -2.005   4.985  25.062  0.00  0.00    +0.017 A 
ENDBRANCH  22  25
ENDBRANCH  16  19
BRANCH   3   2
ATOM      1  O   UNL     1      -7.291   1.625  24.757  0.00  0.00    -0.218 OA
ATOM      2  C   UNL     1      -6.767   1.950  25.307  0.00  0.00    +0.214 C 
ENDBRANCH   3   2
BRANCH   5   6
ATOM      6  C   UNL     1      -4.098   1.026  24.637  0.00  0.00    +0.120 C 
BRANCH   6   7
ATOM      7  N   UNL     1      -4.197   0.208  24.612  0.00  0.00    -0.211 NA
BRANCH   7   8
ATOM      8  C   UNL     1      -3.619  -0.267  24.262  0.00  0.00    +0.115 C 
BRANCH   8   9
ATOM      9  C   UNL     1      -3.646  -1.087  24.358  0.00  0.00    -0.005 A 
ATOM     10  C   UNL     1      -3.260  -1.441  24.994  0.00  0.00    -0.001 A 
ATOM     11  C   UNL     1      -3.287  -2.260  25.090  0.00  0.00    +0.029 A 
ATOM     12  C   UNL     1      -3.701  -2.725  24.548  0.00  0.00    +0.140 A 
ATOM     13  F   UNL     1      -3.729  -3.543  24.643  0.00  0.00    -0.204 F 
ATOM     14  C   UNL     1      -4.088  -2.370  23.911  0.00  0.00    +0.029 A 
ATOM     15  C   UNL     1      -4.061  -1.551  23.816  0.00  0.00    -0.001 A 
ENDBRANCH   8   9
ENDBRANCH   7   8
ENDBRANCH   6   7
ENDBRANCH   5   6
TORSDOF 7
ENDMDL
MODEL 3
REMARK VINA RESULT:     -10.9      2.881      6.441
REMARK  Name = 
REMARK  7 active torsions:
REMARK  status: ('A' for Active; 'I' for Inactive)
REMARK    1  A    between atoms: C_2  and  C_3
REMARK    2  A    between atoms: C_5  and  C_6
REMARK    3  A    between atoms: C_6  and  N_7
REMARK    4  A    between atoms: N_7  and  C_8
REMARK    5  A    between atoms: C_8  and  C_9
REMARK    6  A    between atoms: C_16  and  N_19
REMARK    7  A    between atoms: N_22  and  C_25
REMARK                            x       y       z     vdW  Elec       q    Type
REMARK                         _______ _______ _______ _____ _____    ______ ____
ROOT
ATOM      3  C   UNL     1       0.560  -0.096  23.522  0.00  0.00    +0.180 C 
ATOM      4  O   UNL     1      -0.047  -0.531  23.871  0.00  0.00    -0.350 OA
ATOM      5  C   UNL     1      -0.561  -0.001  24.241  0.00  0.00    +0.150 C 
ATOM     16  C   UNL     1      -0.272   0.761  24.119  0.00  0.00    +0.120 C 
ATOM     17  C   UNL     1       0.421   0.703  23.675  0.00  0.00    +0.198 C 
ATOM     18  O   UNL     1       0.893   1.334  23.427  0.00  0.00    -0.219 OA
ENDROOT
BRANCH  16  19
ATOM     19  N   UNL     1      -0.614   1.460  24.393  0.00  0.00    -0.267 NA
ATOM     20  C   UNL     1      -1.143   1.875  23.914  0.00  0.00    +0.094 C 
ATOM     21  C   UNL     1      -1.486   2.574  24.188  0.00  0.00    +0.108 C 
ATOM     22  N   UNL     1      -1.301   2.857  24.941  0.00  0.00    -0.305 N 
ATOM     23  C   UNL     1      -0.773   2.441  25.419  0.00  0.00    +0.108 C 
ATOM     24  C   UNL     1      -0.430   1.742  25.145  0.00  0.00    +0.094 C 
BRANCH  22  25
ATOM     25  C   UNL     1      -1.644   3.556  25.215  0.00  0.00    +0.048 A 
ATOM     26  C   UNL     1      -1.293   4.282  25.044  0.00  0.00    +0.017 A 
ATOM     27  C   UNL     1      -1.636   4.981  25.318  0.00  0.00    +0.031 A 
ATOM     28  C   UNL     1      -2.331   4.953  25.763  0.00  0.00    +0.140 A 
ATOM     29  F   UNL     1      -2.674   5.650  26.036  0.00  0.00    -0.204 F 
ATOM     30  C   UNL     1      -2.681   4.225  25.933  0.00  0.00    +0.031 A 
ATOM     31  C   UNL     1      -2.338   3.527  25.659  0.00  0.00    +0.017 A 
ENDBRANCH  22  25
ENDBRANCH  16  19
BRANCH   3   2
ATOM      1  O   UNL     1       1.070  -0.719  22.341  0.00  0.00    -0.218 OA
ATOM      2  C   UNL     1       1.194  -0.404  23.095  0.00  0.00    +0.214 C 
ENDBRANCH   3   2
BRANCH   5   6
ATOM      6  C   UNL     1      -1.244  -0.200  24.658  0.00  0.00    +0.120 C 
BRANCH   6   7
ATOM      7  N   UNL     1      -1.659  -0.887  24.467  0.00  0.00    -0.211 NA
BRANCH   7   8
ATOM      8  C   UNL     1      -2.275  -1.145  24.953  0.00  0.00    +0.115 C 
BRANCH   8   9
ATOM      9  C   UNL     1      -2.909  -1.561  24.627  0.00  0.00    -0.005 A 
ATOM     10  C   UNL     1      -3.554  -1.153  24.316  0.00  0.00    -0.001 A 
ATOM     11  C   UNL     1      -4.189  -1.569  23.991  0.00  0.00    +0.029 A 
ATOM     12  C   UNL     1      -4.176  -2.394  23.977  0.00  0.00    +0.140 A 
ATOM     13  F   UNL     1      -4.809  -2.811  23.652  0.00  0.00    -0.204 F 
ATOM     14  C   UNL     1      -3.530  -2.803  24.288  0.00  0.00    +0.029 A 
ATOM     15  C   UNL     1      -2.897  -2.387  24.613  0.00  0.00    -0.001 A 
ENDBRANCH   8   9
ENDBRANCH   7   8
ENDBRANCH   6   7
ENDBRANCH   5   6
TORSDOF 7
ENDMDL
MODEL 4
REMARK VINA RESULT:     -10.4      2.544      5.863
REMARK  Name = 
REMARK  7 active torsions:
REMARK  status: ('A' for Active; 'I' for Inactive)
REMARK    1  A    between atoms: C_2  and  C_3
REMARK    2  A    between atoms: C_5  and  C_6
REMARK    3  A    between atoms: C_6  and  N_7
REMARK    4  A    between atoms: N_7  and  C_8
REMARK    5  A    between atoms: C_8  and  C_9
REMARK    6  A    between atoms: C_16  and  N_19
REMARK    7  A    between atoms: N_22  and  C_25
REMARK                            x       y       z     vdW  Elec       q    Type
REMARK                         _______ _______ _______ _____ _____    ______ ____
ROOT
ATOM      3  C   UNL     1      -0.154   0.761  23.909  0.00  0.00    +0.180 C 
ATOM      4  O   UNL     1      -0.511   0.115  24.276  0.00  0.00    -0.350 OA
ATOM      5  C   UNL     1      -1.247   0.357  24.559  0.00  0.00    +0.150 C 
ATOM     16  C   UNL     1      -1.345   1.154  24.367  0.00  0.00    +0.120 C 
ATOM     17  C   UNL     1      -0.669   1.404  23.965  0.00  0.00    +0.198 C 
ATOM     18  O   UNL     1      -0.533   2.163  23.671  0.00  0.00    -0.219 OA
ENDROOT
BRANCH  16  19
ATOM     19  N   UNL     1      -2.002   1.618  24.546  0.00  0.00    -0.267 NA
ATOM     20  C   UNL     1      -2.591   1.735  23.979  0.00  0.00    +0.094 C 
ATOM     21  C   UNL     1      -3.249   2.200  24.157  0.00  0.00    +0.108 C 
ATOM     22  N   UNL     1      -3.318   2.548  24.902  0.00  0.00    -0.305 N 
ATOM     23  C   UNL     1      -2.731   2.431  25.468  0.00  0.00    +0.108 C 
ATOM     24  C   UNL     1      -2.072   1.966  25.290  0.00  0.00    +0.094 C 
BRANCH  22  25
ATOM     25  C   UNL     1      -3.977   3.013  25.080  0.00  0.00    +0.048 A 
ATOM     26  C   UNL     1      -3.915   3.835  25.072  0.00  0.00    +0.017 A 
ATOM     27  C   UNL     1      -4.573   4.300  25.250  0.00  0.00    +0.031 A 
ATOM     28  C   UNL     1      -5.293   3.942  25.436  0.00  0.00    +0.140 A 
ATOM     29  F   UNL     1      -5.950   4.407  25.614  0.00  0.00    -0.204 F 
ATOM     30  C   UNL     1      -5.354   3.119  25.444  0.00  0.00    +0.031 A 
ATOM     31  C   UNL     1      -4.696   2.655  25.266  0.00  0.00    +0.017 A 
ENDBRANCH  22  25
ENDBRANCH  16  19
BRANCH   3   2
ATOM      1  O   UNL     1       0.868   0.086  23.173  0.00  0.00    -0.218 OA
ATOM      2  C   UNL     1       0.588   0.766  23.549  0.00  0.00    +0.214 C 
ENDBRANCH   3   2
BRANCH   5   6
ATOM      6  C   UNL     1      -1.790  -0.114  24.964  0.00  0.00    +0.120 C 
BRANCH   6   7
ATOM      7  N   UNL     1      -1.971  -0.868  24.683  0.00  0.00    -0.211 NA
BRANCH   7   8
ATOM      8  C   UNL     1      -2.475  -1.359  25.115  0.00  0.00    +0.115 C 
BRANCH   8   9
ATOM      9  C   UNL     1      -3.034  -1.823  24.723  0.00  0.00    -0.005 A 
ATOM     10  C   UNL     1      -2.933  -2.639  24.675  0.00  0.00    -0.001 A 
ATOM     11  C   UNL     1      -3.492  -3.103  24.283  0.00  0.00    +0.029 A 
ATOM     12  C   UNL     1      -4.153  -2.748  23.938  0.00  0.00    +0.140 A 
ATOM     13  F   UNL     1      -4.712  -3.210  23.546  0.00  0.00    -0.204 F 
ATOM     14  C   UNL     1      -4.254  -1.930  23.986  0.00  0.00    +0.029 A 
ATOM     15  C   UNL     1      -3.695  -1.467  24.378  0.00  0.00    -0.001 A 
ENDBRANCH   8   9
ENDBRANCH   7   8
ENDBRANCH   6   7
ENDBRANCH   5   6
TORSDOF 7
ENDMDL
MODEL 5
REMARK VINA RESULT:     -10.3      2.358      3.955
REMARK  Name = 
REMARK  7 active torsions:
REMARK  status: ('A' for Active; 'I' for Inactive)
REMARK    1  A    between atoms: C_2  and  C_3
REMARK    2  A    between atoms: C_5  and  C_6
REMARK    3  A    between atoms: C_6  and  N_7
REMARK    4  A    between atoms: N_7  and  C_8
REMARK    5  A    between atoms: C_8  and  C_9
REMARK    6  A    between atoms: C_16  and  N_19
REMARK    7  A    between atoms: N_22  and  C_25
REMARK                            x       y       z     vdW  Elec       q    Type
REMARK                         _______ _______ _______ _____ _____    ______ ____
ROOT
ATOM      3  C   UNL     1      -1.036   3.960  24.862  0.00  0.00    +0.180 C 
ATOM      4  O   UNL     1      -1.827   3.943  24.627  0.00  0.00    -0.350 OA
ATOM      5  C   UNL     1      -2.057   3.153  24.561  0.00  0.00    +0.150 C 
ATOM     16  C   UNL     1      -1.409   2.681  24.756  0.00  0.00    +0.120 C 
ATOM     17  C   UNL     1      -0.778   3.180  24.942  0.00  0.00    +0.198 C 
ATOM     18  O   UNL     1      -0.021   2.940  25.169  0.00  0.00    -0.219 OA
ENDROOT
BRANCH  16  19
ATOM     19  N   UNL     1      -1.393   1.857  24.764  0.00  0.00    -0.267 NA
ATOM     20  C   UNL     1      -1.262   1.441  24.063  0.00  0.00    +0.094 C 
ATOM     21  C   UNL     1      -1.247   0.615  24.070  0.00  0.00    +0.108 C 
ATOM     22  N   UNL     1      -1.363   0.207  24.779  0.00  0.00    -0.305 N 
ATOM     23  C   UNL     1      -1.494   0.623  25.478  0.00  0.00    +0.108 C 
ATOM     24  C   UNL     1      -1.510   1.449  25.471  0.00  0.00    +0.094 C 
BRANCH  22  25
ATOM     25  C   UNL     1      -1.348  -0.618  24.786  0.00  0.00    +0.048 A 
ATOM     26  C   UNL     1      -0.636  -1.016  24.906  0.00  0.00    +0.017 A 
ATOM     27  C   UNL     1      -0.620  -1.841  24.913  0.00  0.00    +0.031 A 
ATOM     28  C   UNL     1      -1.318  -2.268  24.800  0.00  0.00    +0.140 A 
ATOM     29  F   UNL     1      -1.302  -3.092  24.807  0.00  0.00    -0.204 F 
ATOM     30  C   UNL     1      -2.030  -1.869  24.680  0.00  0.00    +0.031 A 
ATOM     31  C   UNL     1      -2.045  -1.044  24.673  0.00  0.00    +0.017 A 
ENDBRANCH  22  25
ENDBRANCH  16  19
BRANCH   3   2
ATOM      1  O   UNL     1      -0.941   5.380  24.983  0.00  0.00    -0.218 OA
ATOM      2  C   UNL     1      -0.584   4.636  24.994  0.00  0.00    +0.214 C 
ENDBRANCH   3   2
BRANCH   5   6
ATOM      6  C   UNL     1      -2.804   2.883  24.340  0.00  0.00    +0.120 C 
BRANCH   6   7
ATOM      7  N   UNL     1      -3.480   3.224  24.667  0.00  0.00    -0.211 NA
BRANCH   7   8
ATOM      8  C   UNL     1      -4.223   3.053  24.350  0.00  0.00    +0.115 C 
BRANCH   8   9
ATOM      9  C   UNL     1      -4.815   2.742  24.834  0.00  0.00    -0.005 A 
ATOM     10  C   UNL     1      -5.097   3.180  25.473  0.00  0.00    -0.001 A 
ATOM     11  C   UNL     1      -5.689   2.869  25.958  0.00  0.00    +0.029 A 
ATOM     12  C   UNL     1      -5.999   2.120  25.801  0.00  0.00    +0.140 A 
ATOM     13  F   UNL     1      -6.590   1.809  26.284  0.00  0.00    -0.204 F 
ATOM     14  C   UNL     1      -5.716   1.682  25.161  0.00  0.00    +0.029 A 
ATOM     15  C   UNL     1      -5.124   1.993  24.678  0.00  0.00    -0.001 A 
ENDBRANCH   8   9
ENDBRANCH   7   8
ENDBRANCH   6   7
ENDBRANCH   5   6
TORSDOF 7
ENDMDL
MODEL 6
REMARK VINA RESULT:      -9.8      3.052      4.153
REMARK  Name = 
REMARK  7 active torsions:
REMARK  status: ('A' for Active; 'I' for Inactive)
REMARK    1  A    between atoms: C_2  and  C_3
REMARK    2  A    between atoms: C_5  and  C_6
REMARK    3  A    between atoms: C_6  and  N_7
REMARK    4  A    between atoms: N_7  and  C_8
REMARK    5  A    between atoms: C_8  and  C_9
REMARK    6  A    between atoms: C_16  and  N_19
REMARK    7  A    between atoms: N_22  and  C_25
REMARK                            x       y       z     vdW  Elec       q    Type
REMARK                         _______ _______ _______ _____ _____    ______ ____
ROOT
ATOM      3  C   UNL     1       1.327   0.977  23.436  0.00  0.00    +0.180 C 
ATOM      4  O   UNL     1       1.006   1.543  23.943  0.00  0.00    -0.350 OA
ATOM      5  C   UNL     1       0.320   1.228  24.276  0.00  0.00    +0.150 C 
ATOM     16  C   UNL     1       0.217   0.467  23.974  0.00  0.00    +0.120 C 
ATOM     17  C   UNL     1       0.839   0.312  23.455  0.00  0.00    +0.198 C 
ATOM     18  O   UNL     1       0.954  -0.386  23.029  0.00  0.00    -0.219 OA
ENDROOT
BRANCH  16  19
ATOM     19  N   UNL     1      -0.400  -0.048  24.159  0.00  0.00    -0.267 NA
ATOM     20  C   UNL     1      -0.281  -0.653  24.708  0.00  0.00    +0.094 C 
ATOM     21  C   UNL     1      -0.899  -1.169  24.893  0.00  0.00    +0.108 C 
ATOM     22  N   UNL     1      -1.634  -1.080  24.528  0.00  0.00    -0.305 N 
ATOM     23  C   UNL     1      -1.752  -0.476  23.980  0.00  0.00    +0.108 C 
ATOM     24  C   UNL     1      -1.135   0.040  23.795  0.00  0.00    +0.094 C 
BRANCH  22  25
ATOM     25  C   UNL     1      -2.251  -1.596  24.714  0.00  0.00    +0.048 A 
ATOM     26  C   UNL     1      -2.257  -2.359  24.402  0.00  0.00    +0.017 A 
ATOM     27  C   UNL     1      -2.874  -2.876  24.587  0.00  0.00    +0.031 A 
ATOM     28  C   UNL     1      -3.485  -2.627  25.084  0.00  0.00    +0.140 A 
ATOM     29  F   UNL     1      -4.101  -3.143  25.269  0.00  0.00    -0.204 F 
ATOM     30  C   UNL     1      -3.477  -1.863  25.395  0.00  0.00    +0.031 A 
ATOM     31  C   UNL     1      -2.861  -1.348  25.210  0.00  0.00    +0.017 A 
ENDBRANCH  22  25
ENDBRANCH  16  19
BRANCH   3   2
ATOM      1  O   UNL     1       2.691   1.391  23.328  0.00  0.00    -0.218 OA
ATOM      2  C   UNL     1       2.014   1.062  22.988  0.00  0.00    +0.214 C 
ENDBRANCH   3   2
BRANCH   5   6
ATOM      6  C   UNL     1      -0.175   1.607  24.815  0.00  0.00    +0.120 C 
BRANCH   6   7
ATOM      7  N   UNL     1      -0.200   2.431  24.844  0.00  0.00    -0.211 NA
BRANCH   7   8
ATOM      8  C   UNL     1      -0.563   2.810  25.481  0.00  0.00    +0.115 C 
BRANCH   8   9
ATOM      9  C   UNL     1      -0.897   3.558  25.378  0.00  0.00    -0.005 A 
ATOM     10  C   UNL     1      -0.455   4.165  25.038  0.00  0.00    -0.001 A 
ATOM     11  C   UNL     1      -0.789   4.912  24.935  0.00  0.00    +0.029 A 
ATOM     12  C   UNL     1      -1.567   5.053  25.175  0.00  0.00    +0.140 A 
ATOM     13  F   UNL     1      -1.901   5.799  25.073  0.00  0.00    -0.204 F 
ATOM     14  C   UNL     1      -2.009   4.445  25.516  0.00  0.00    +0.029 A 
ATOM     15  C   UNL     1      -1.675   3.698  25.618  0.00  0.00    -0.001 A 
ENDBRANCH   8   9
ENDBRANCH   7   8
ENDBRANCH   6   7
ENDBRANCH   5   6
TORSDOF 7
ENDMDL
MODEL 7
REMARK VINA RESULT:      -9.5      3.984      6.121
REMARK  Name = 
REMARK  7 active torsions:
REMARK  status: ('A' for Active; 'I' for Inactive)
REMARK    1  A    between atoms: C_2  and  C_3
REMARK    2  A    between atoms: C_5  and  C_6
REMARK    3  A    between atoms: C_6  and  N_7
REMARK    4  A    between atoms: N_7  and  C_8
REMARK    5  A    between atoms: C_8  and  C_9
REMARK    6  A    between atoms: C_16  and  N_19
REMARK    7  A    between atoms: N_22  and  C_25
REMARK                            x       y       z     vdW  Elec       q    Type
REMARK                         _______ _______ _______ _____ _____    ______ ____
ROOT
ATOM      3  C   UNL     1      -0.804  -1.089  24.597  0.00  0.00    +0.180 C 
ATOM      4  O   UNL     1      -0.197  -0.926  24.063  0.00  0.00    -0.350 OA
ATOM      5  C   UNL     1      -0.124  -0.106  24.004  0.00  0.00    +0.150 C 
ATOM     16  C   UNL     1      -0.685   0.237  24.502  0.00  0.00    +0.120 C 
ATOM     17  C   UNL     1      -1.106  -0.371  24.868  0.00  0.00    +0.198 C 
ATOM     18  O   UNL     1      -1.721  -0.276  25.411  0.00  0.00    -0.219 OA
ENDROOT
BRANCH  16  19
ATOM     19  N   UNL     1      -0.805   1.046  24.613  0.00  0.00    -0.267 NA
ATOM     20  C   UNL     1      -1.288   1.466  24.092  0.00  0.00    +0.094 C 
ATOM     21  C   UNL     1      -1.409   2.275  24.204  0.00  0.00    +0.108 C 
ATOM     22  N   UNL     1      -1.046   2.663  24.836  0.00  0.00    -0.305 N 
ATOM     23  C   UNL     1      -0.564   2.242  25.355  0.00  0.00    +0.108 C 
ATOM     24  C   UNL     1      -0.443   1.433  25.244  0.00  0.00    +0.094 C 
BRANCH  22  25
ATOM     25  C   UNL     1      -1.166   3.472  24.947  0.00  0.00    +0.048 A 
ATOM     26  C   UNL     1      -1.851   3.739  25.321  0.00  0.00    +0.017 A 
ATOM     27  C   UNL     1      -1.971   4.548  25.432  0.00  0.00    +0.031 A 
ATOM     28  C   UNL     1      -1.406   5.089  25.169  0.00  0.00    +0.140 A 
ATOM     29  F   UNL     1      -1.527   5.897  25.280  0.00  0.00    -0.204 F 
ATOM     30  C   UNL     1      -0.722   4.821  24.795  0.00  0.00    +0.031 A 
ATOM     31  C   UNL     1      -0.602   4.013  24.684  0.00  0.00    +0.017 A 
ENDBRANCH  22  25
ENDBRANCH  16  19
BRANCH   3   2
ATOM      1  O   UNL     1      -1.340  -2.367  24.250  0.00  0.00    -0.218 OA
ATOM      2  C   UNL     1      -1.064  -1.839  24.821  0.00  0.00    +0.214 C 
ENDBRANCH   3   2
BRANCH   5   6
ATOM      6  C   UNL     1       0.417   0.299  23.531  0.00  0.00    +0.120 C 
BRANCH   6   7
ATOM      7  N   UNL     1       1.142  -0.045  23.345  0.00  0.00    -0.211 NA
BRANCH   7   8
ATOM      8  C   UNL     1       1.600   0.262  22.731  0.00  0.00    +0.115 C 
BRANCH   8   9
ATOM      9  C   UNL     1       2.423   0.275  22.797  0.00  0.00    -0.005 A 
ATOM     10  C   UNL     1       2.839  -0.427  22.914  0.00  0.00    -0.001 A 
ATOM     11  C   UNL     1       3.662  -0.414  22.981  0.00  0.00    +0.029 A 
ATOM     12  C   UNL     1       4.068   0.303  22.929  0.00  0.00    +0.140 A 
ATOM     13  F   UNL     1       4.889   0.317  22.995  0.00  0.00    -0.204 F 
ATOM     14  C   UNL     1       3.651   1.006  22.812  0.00  0.00    +0.029 A 
ATOM     15  C   UNL     1       2.829   0.992  22.746  0.00  0.00    -0.001 A 
ENDBRANCH   8   9
ENDBRANCH   7   8
ENDBRANCH   6   7
ENDBRANCH   5   6
TORSDOF 7
ENDMDL
MODEL 8
REMARK VINA RESULT:      -9.1      2.552      4.522
REMARK  Name = 
REMARK  7 active torsions:
REMARK  status: ('A' for Active; 'I' for Inactive)
REMARK    1  A    between atoms: C_2  and  C_3
REMARK    2  A    between atoms: C_5  and  C_6
REMARK    3  A    between atoms: C_6  and  N_7
REMARK    4  A    between atoms: N_7  and  C_8
REMARK    5  A    between atoms: C_8  and  C_9
REMARK    6  A    between atoms: C_16  and  N_19
REMARK    7  A    between atoms: N_22  and  C_25
REMARK                            x       y       z     vdW  Elec       q    Type
REMARK                         _______ _______ _______ _____ _____    ______ ____
ROOT
ATOM      3  C   UNL     1      -3.489  -2.054  24.255  0.00  0.00    +0.180 C 
ATOM      4  O   UNL     1      -2.779  -1.814  24.599  0.00  0.00    -0.350 OA
ATOM      5  C   UNL     1      -2.862  -1.028  24.836  0.00  0.00    +0.150 C 
ATOM     16  C   UNL     1      -3.625  -0.782  24.638  0.00  0.00    +0.120 C 
ATOM     17  C   UNL     1      -4.012  -1.416  24.279  0.00  0.00    +0.198 C 
ATOM     18  O   UNL     1      -4.786  -1.412  23.993  0.00  0.00    -0.219 OA
ENDROOT
BRANCH  16  19
ATOM     19  N   UNL     1      -3.944  -0.033  24.774  0.00  0.00    -0.267 NA
ATOM     20  C   UNL     1      -3.909   0.543  24.185  0.00  0.00    +0.094 C 
ATOM     21  C   UNL     1      -4.228   1.292  24.321  0.00  0.00    +0.108 C 
ATOM     22  N   UNL     1      -4.582   1.464  25.047  0.00  0.00    -0.305 N 
ATOM     23  C   UNL     1      -4.616   0.888  25.635  0.00  0.00    +0.108 C 
ATOM     24  C   UNL     1      -4.297   0.139  25.499  0.00  0.00    +0.094 C 
BRANCH  22  25
ATOM     25  C   UNL     1      -4.901   2.213  25.183  0.00  0.00    +0.048 A 
ATOM     26  C   UNL     1      -5.688   2.289  25.418  0.00  0.00    +0.017 A 
ATOM     27  C   UNL     1      -6.007   3.038  25.554  0.00  0.00    +0.031 A 
ATOM     28  C   UNL     1      -5.538   3.710  25.455  0.00  0.00    +0.140 A 
ATOM     29  F   UNL     1      -5.857   4.458  25.591  0.00  0.00    -0.204 F 
ATOM     30  C   UNL     1      -4.751   3.633  25.220  0.00  0.00    +0.031 A 
ATOM     31  C   UNL     1      -4.433   2.884  25.084  0.00  0.00    +0.017 A 
ENDBRANCH  22  25
ENDBRANCH  16  19
BRANCH   3   2
ATOM      1  O   UNL     1      -3.285  -3.468  24.263  0.00  0.00    -0.218 OA
ATOM      2  C   UNL     1      -3.648  -2.799  23.943  0.00  0.00    +0.214 C 
ENDBRANCH   3   2
BRANCH   5   6
ATOM      6  C   UNL     1      -2.285  -0.569  25.206  0.00  0.00    +0.120 C 
BRANCH   6   7
ATOM      7  N   UNL     1      -1.537  -0.497  24.868  0.00  0.00    -0.211 NA
BRANCH   7   8
ATOM      8  C   UNL     1      -0.925  -0.142  25.293  0.00  0.00    +0.115 C 
BRANCH   8   9
ATOM      9  C   UNL     1      -0.523   0.505  24.975  0.00  0.00    -0.005 A 
ATOM     10  C   UNL     1      -0.510   1.223  25.380  0.00  0.00    -0.001 A 
ATOM     11  C   UNL     1      -0.109   1.870  25.061  0.00  0.00    +0.029 A 
ATOM     12  C   UNL     1       0.281   1.797  24.337  0.00  0.00    +0.140 A 
ATOM     13  F   UNL     1       0.682   2.443  24.018  0.00  0.00    -0.204 F 
ATOM     14  C   UNL     1       0.268   1.078  23.932  0.00  0.00    +0.029 A 
ATOM     15  C   UNL     1      -0.133   0.432  24.251  0.00  0.00    -0.001 A 
ENDBRANCH   8   9
ENDBRANCH   7   8
ENDBRANCH   6   7
ENDBRANCH   5   6
TORSDOF 7
ENDMDL
