MODEL 1
REMARK VINA RESULT:     -15.0      0.000      0.000
REMARK  Name = 
REMARK  5 active torsions:
REMARK  status: ('A' for Active; 'I' for Inactive)
REMARK    1  A    between atoms: C_2  and  C_3
REMARK    2  A    between atoms: C_11  and  C_12
REMARK    3  A    between atoms: C_12  and  C_13
REMARK    4  A    between atoms: N_15  and  C_16
REMARK    5  A    between atoms: C_29  and  C_31
REMARK                            x       y       z     vdW  Elec       q    Type
REMARK                         _______ _______ _______ _____ _____    ______ ____
ROOT
ATOM      1  C   UNL     1      -2.453  -2.776  24.652  0.00  0.00    +0.005 C 
ATOM      2  C   UNL     1      -2.700  -1.996  24.540  0.00  0.00    +0.059 C 
ATOM      5  C   UNL     1      -3.400  -2.394  24.366  0.00  0.00    +0.154 C 
ATOM      6  O   UNL     1      -3.428  -3.218  24.404  0.00  0.00    -0.223 OA
ATOM      7  C   UNL     1      -4.076  -1.968  24.154  0.00  0.00    +0.033 C 
ATOM      8  C   UNL     1      -4.048  -1.145  24.117  0.00  0.00    +0.003 C 
ATOM      9  C   UNL     1      -3.348  -0.747  24.291  0.00  0.00    +0.006 C 
ATOM     10  C   UNL     1      -4.021  -0.322  24.079  0.00  0.00    +0.000 C 
ATOM     11  C   UNL     1      -3.320   0.077  24.253  0.00  0.00    +0.050 C 
ATOM     22  C   UNL     1      -2.619   0.475  24.427  0.00  0.00    +0.063 A 
ATOM     23  C   UNL     1      -1.944   0.048  24.639  0.00  0.00    +0.023 A 
ATOM     24  C   UNL     1      -1.971  -0.775  24.677  0.00  0.00    +0.034 C 
ATOM     25  C   UNL     1      -2.672  -1.173  24.503  0.00  0.00    +0.010 C 
ATOM     26  S   UNL     1      -1.336   0.589  24.779  0.00  0.00    -0.054 S 
ATOM     27  C   UNL     1      -1.634   1.347  24.654  0.00  0.00    +0.186 A 
ATOM     28  N   UNL     1      -1.214   2.053  24.733  0.00  0.00    -0.148 NA
ATOM     29  C   UNL     1      -1.587   2.773  24.589  0.00  0.00    +0.305 C 
ATOM     30  O   UNL     1      -2.382   2.790  24.367  0.00  0.00    -0.265 OA
ATOM     36  N   UNL     1      -2.427   1.277  24.437  0.00  0.00    -0.227 NA
ENDROOT
BRANCH  29  31
ATOM     31  C   UNL     1      -1.167   3.479  24.668  0.00  0.00    +0.201 A 
ATOM     32  C   UNL     1      -1.385   4.124  25.135  0.00  0.00    +0.046 A 
ATOM     33  C   UNL     1      -0.807   4.707  25.049  0.00  0.00    +0.044 A 
ATOM     34  C   UNL     1      -0.232   4.423  24.530  0.00  0.00    +0.180 A 
ATOM     35  O   UNL     1      -0.455   3.663  24.295  0.00  0.00    -0.446 OA
ENDBRANCH  29  31
BRANCH   2   3
ATOM      3  C   UNL     1      -1.913  -1.869  24.753  0.00  0.00    +0.184 C 
ATOM      4  O   UNL     1      -1.415  -2.512  24.894  0.00  0.00    -0.220 OA
ENDBRANCH   2   3
BRANCH  11  12
ATOM     12  C   UNL     1      -3.994   0.502  24.042  0.00  0.00    +0.093 C 
BRANCH  12  13
ATOM     13  C   UNL     1      -4.415   0.922  24.615  0.00  0.00    +0.246 C 
ATOM     14  O   UNL     1      -4.322   0.734  25.413  0.00  0.00    -0.273 OA
ATOM     15  N   UNL     1      -4.928   1.526  24.391  0.00  0.00    -0.179 NA
BRANCH  15  16
ATOM     16  C   UNL     1      -5.348   1.945  24.963  0.00  0.00    +0.073 A 
ATOM     17  C   UNL     1      -5.145   2.726  25.134  0.00  0.00    +0.017 A 
ATOM     18  C   UNL     1      -5.566   3.146  25.707  0.00  0.00    +0.001 A 
ATOM     19  C   UNL     1      -6.189   2.784  26.109  0.00  0.00    +0.000 A 
ATOM     20  C   UNL     1      -6.391   2.003  25.937  0.00  0.00    +0.001 A 
ATOM     21  C   UNL     1      -5.971   1.584  25.365  0.00  0.00    +0.017 A 
ENDBRANCH  15  16
ENDBRANCH  12  13
ENDBRANCH  11  12
TORSDOF 5
ENDMDL
MODEL 2
REMARK VINA RESULT:     -14.1      1.721      4.154
REMARK  Name = 
REMARK  5 active torsions:
REMARK  status: ('A' for Active; 'I' for Inactive)
REMARK    1  A    between atoms: C_2  and  C_3
REMARK    2  A    between atoms: C_11  and  C_12
REMARK    3  A    between atoms: C_12  and  C_13
REMARK    4  A    between atoms: N_15  and  C_16
REMARK    5  A    between atoms: C_29  and  C_31
REMARK                            x       y       z     vdW  Elec       q    Type
REMARK                         _______ _______ _______ _____ _____    ______ ____
ROOT
ATOM      1  C   UNL     1      -4.663   3.777  25.940  0.00  0.00    +0.005 C 
ATOM      2  C   UNL     1      -4.356   3.154  25.496  0.00  0.00    +0.059 C 
ATOM      5  C   UNL     1      -5.161   2.989  25.437  0.00  0.00    +0.154 C 
ATOM      6  O   UNL     1      -5.712   3.479  25.807  0.00  0.00    -0.223 OA
ATOM      7  C   UNL     1      -5.417   2.332  25.007  0.00  0.00    +0.033 C 
ATOM      8  C   UNL     1      -4.867   1.841  24.637  0.00  0.00    +0.003 C 
ATOM      9  C   UNL     1      -4.062   2.006  24.696  0.00  0.00    +0.006 C 
ATOM     10  C   UNL     1      -4.317   1.351  24.268  0.00  0.00    +0.000 C 
ATOM     11  C   UNL     1      -3.511   1.516  24.327  0.00  0.00    +0.050 C 
ATOM     22  C   UNL     1      -2.705   1.681  24.386  0.00  0.00    +0.063 A 
ATOM     23  C   UNL     1      -2.449   2.338  24.816  0.00  0.00    +0.023 A 
ATOM     24  C   UNL     1      -2.999   2.829  25.185  0.00  0.00    +0.034 C 
ATOM     25  C   UNL     1      -3.806   2.664  25.126  0.00  0.00    +0.010 C 
ATOM     26  S   UNL     1      -1.625   2.362  24.777  0.00  0.00    -0.054 S 
ATOM     27  C   UNL     1      -1.372   1.720  24.325  0.00  0.00    +0.186 A 
ATOM     28  N   UNL     1      -0.589   1.533  24.145  0.00  0.00    -0.148 NA
ATOM     29  C   UNL     1      -0.419   0.871  23.684  0.00  0.00    +0.305 C 
ATOM     30  O   UNL     1      -1.032   0.396  23.402  0.00  0.00    -0.265 OA
ATOM     36  N   UNL     1      -2.039   1.300  24.083  0.00  0.00    -0.227 NA
ENDROOT
BRANCH  29  31
ATOM     31  C   UNL     1       0.364   0.683  23.505  0.00  0.00    +0.201 A 
ATOM     32  C   UNL     1       0.623  -0.001  23.122  0.00  0.00    +0.046 A 
ATOM     33  C   UNL     1       1.445   0.039  23.057  0.00  0.00    +0.044 A 
ATOM     34  C   UNL     1       1.693   0.747  23.400  0.00  0.00    +0.180 A 
ATOM     35  O   UNL     1       1.025   1.145  23.677  0.00  0.00    -0.446 OA
ENDBRANCH  29  31
BRANCH   2   3
ATOM      3  C   UNL     1      -3.657   3.536  25.710  0.00  0.00    +0.184 C 
ATOM      4  O   UNL     1      -3.681   4.188  26.215  0.00  0.00    -0.220 OA
ENDBRANCH   2   3
BRANCH  11  12
ATOM     12  C   UNL     1      -3.767   0.859  23.897  0.00  0.00    +0.093 C 
BRANCH  12  13
ATOM     13  C   UNL     1      -3.712   0.104  24.226  0.00  0.00    +0.246 C 
ATOM     14  O   UNL     1      -3.695   0.012  25.045  0.00  0.00    -0.273 OA
ATOM     15  N   UNL     1      -3.674  -0.557  23.735  0.00  0.00    -0.179 NA
BRANCH  15  16
ATOM     16  C   UNL     1      -3.619  -1.312  24.063  0.00  0.00    +0.073 A 
ATOM     17  C   UNL     1      -4.229  -1.855  23.950  0.00  0.00    +0.017 A 
ATOM     18  C   UNL     1      -4.175  -2.611  24.278  0.00  0.00    +0.001 A 
ATOM     19  C   UNL     1      -3.510  -2.822  24.719  0.00  0.00    +0.000 A 
ATOM     20  C   UNL     1      -2.900  -2.278  24.831  0.00  0.00    +0.001 A 
ATOM     21  C   UNL     1      -2.954  -1.524  24.504  0.00  0.00    +0.017 A 
ENDBRANCH  15  16
ENDBRANCH  12  13
ENDBRANCH  11  12
TORSDOF 5
ENDMDL
MODEL 3
REMARK VINA RESULT:     -13.3      1.353      3.505
REMARK  Name = 
REMARK  5 active torsions:
REMARK  status: ('A' for Active; 'I' for Inactive)
REMARK    1  A    between atoms: C_2  and  C_3
REMARK    2  A    between atoms: C_11  and  C_12
REMARK    3  A    between atoms: C_12  and  C_13
REMARK    4  A    between atoms: N_15  and  C_16
REMARK    5  A    between atoms: C_29  and  C_31
REMARK                            x       y       z     vdW  Elec       q    Type
REMARK                         _______ _______ _______ _____ _____    ______ ____
ROOT
ATOM      1  C   UNL     1      -3.705  -2.930  23.947  0.00  0.00    +0.005 C 
ATOM      2  C   UNL     1      -3.466  -2.213  24.277  0.00  0.00    +0.059 C 
ATOM      5  C   UNL     1      -2.792  -2.667  24.418  0.00  0.00    +0.154 C 
ATOM      6  O   UNL     1      -2.768  -3.456  24.177  0.00  0.00    -0.223 OA
ATOM      7  C   UNL     1      -2.141  -2.332  24.800  0.00  0.00    +0.033 C 
ATOM      8  C   UNL     1      -2.165  -1.544  25.041  0.00  0.00    +0.003 C 
ATOM      9  C   UNL     1      -2.838  -1.090  24.901  0.00  0.00    +0.006 C 
ATOM     10  C   UNL     1      -2.188  -0.756  25.282  0.00  0.00    +0.000 C 
ATOM     11  C   UNL     1      -2.862  -0.301  25.142  0.00  0.00    +0.050 C 
ATOM     22  C   UNL     1      -3.536   0.153  25.001  0.00  0.00    +0.063 A 
ATOM     23  C   UNL     1      -4.187  -0.182  24.619  0.00  0.00    +0.023 A 
ATOM     24  C   UNL     1      -4.163  -0.970  24.378  0.00  0.00    +0.034 C 
ATOM     25  C   UNL     1      -3.489  -1.425  24.518  0.00  0.00    +0.010 C 
ATOM     26  S   UNL     1      -4.770   0.399  24.556  0.00  0.00    -0.054 S 
ATOM     27  C   UNL     1      -4.481   1.091  24.899  0.00  0.00    +0.186 A 
ATOM     28  N   UNL     1      -4.884   1.808  24.957  0.00  0.00    -0.148 NA
ATOM     29  C   UNL     1      -4.522   2.456  25.317  0.00  0.00    +0.305 C 
ATOM     30  O   UNL     1      -3.757   2.387  25.619  0.00  0.00    -0.265 OA
ATOM     36  N   UNL     1      -3.719   0.939  25.174  0.00  0.00    -0.227 NA
ENDROOT
BRANCH  29  31
ATOM     31  C   UNL     1      -4.925   3.174  25.375  0.00  0.00    +0.201 A 
ATOM     32  C   UNL     1      -4.647   3.908  25.120  0.00  0.00    +0.046 A 
ATOM     33  C   UNL     1      -5.226   4.471  25.285  0.00  0.00    +0.044 A 
ATOM     34  C   UNL     1      -5.862   4.086  25.642  0.00  0.00    +0.180 A 
ATOM     35  O   UNL     1      -5.676   3.284  25.697  0.00  0.00    -0.446 OA
ENDBRANCH  29  31
BRANCH   2   3
ATOM      3  C   UNL     1      -4.223  -2.008  24.022  0.00  0.00    +0.184 C 
ATOM      4  O   UNL     1      -4.680  -2.554  23.604  0.00  0.00    -0.220 OA
ENDBRANCH   2   3
BRANCH  11  12
ATOM     12  C   UNL     1      -2.212   0.033  25.523  0.00  0.00    +0.093 C 
BRANCH  12  13
ATOM     13  C   UNL     1      -1.721   0.559  25.119  0.00  0.00    +0.246 C 
ATOM     14  O   UNL     1      -1.778   0.627  24.299  0.00  0.00    -0.273 OA
ATOM     15  N   UNL     1      -1.174   1.015  25.534  0.00  0.00    -0.179 NA
BRANCH  15  16
ATOM     16  C   UNL     1      -0.683   1.541  25.130  0.00  0.00    +0.073 A 
ATOM     17  C   UNL     1      -0.837   2.350  25.158  0.00  0.00    +0.017 A 
ATOM     18  C   UNL     1      -0.346   2.877  24.754  0.00  0.00    +0.001 A 
ATOM     19  C   UNL     1       0.298   2.593  24.323  0.00  0.00    +0.000 A 
ATOM     20  C   UNL     1       0.451   1.783  24.296  0.00  0.00    +0.001 A 
ATOM     21  C   UNL     1      -0.040   1.257  24.699  0.00  0.00    +0.017 A 
ENDBRANCH  15  16
ENDBRANCH  12  13
ENDBRANCH  11  12
TORSDOF 5
ENDMDL
MODEL 4
REMARK VINA RESULT:     -13.3      1.054      4.391
REMARK  Name = 
REMARK  5 active torsions:
REMARK  status: ('A' for Active; 'I' for Inactive)
REMARK    1  A    between atoms: C_2  and  C_3
REMARK    2  A    between atoms: C_11  and  C_12
REMARK    3  A    between atoms: C_12  and  C_13
REMARK    4  A    between atoms: N_15  and  C_16
REMARK    5  A    between atoms: C_29  and  C_31
REMARK                            x       y       z     vdW  Elec       q    Type
REMARK                         _______ _______ _______ _____ _____    ______ ____
ROOT
ATOM      1  C   UNL     1       0.167   3.426  25.595  0.00  0.00    +0.005 C 
ATOM      2  C   UNL     1      -0.523   3.071  25.317  0.00  0.00    +0.059 C 
ATOM      5  C   UNL     1      -0.709   3.864  25.189  0.00  0.00    +0.154 C 
ATOM      6  O   UNL     1      -0.166   4.453  25.389  0.00  0.00    -0.223 OA
ATOM      7  C   UNL     1      -1.438   4.070  24.860  0.00  0.00    +0.033 C 
ATOM      8  C   UNL     1      -1.980   3.482  24.660  0.00  0.00    +0.003 C 
ATOM      9  C   UNL     1      -1.795   2.689  24.788  0.00  0.00    +0.006 C 
ATOM     10  C   UNL     1      -2.522   2.894  24.460  0.00  0.00    +0.000 C 
ATOM     11  C   UNL     1      -2.338   2.100  24.588  0.00  0.00    +0.050 C 
ATOM     22  C   UNL     1      -2.152   1.307  24.717  0.00  0.00    +0.063 A 
ATOM     23  C   UNL     1      -1.423   1.102  25.046  0.00  0.00    +0.023 A 
ATOM     24  C   UNL     1      -0.881   1.689  25.245  0.00  0.00    +0.034 C 
ATOM     25  C   UNL     1      -1.066   2.483  25.117  0.00  0.00    +0.010 C 
ATOM     26  S   UNL     1      -1.395   0.279  25.107  0.00  0.00    -0.054 S 
ATOM     27  C   UNL     1      -2.106  -0.023  24.817  0.00  0.00    +0.186 A 
ATOM     28  N   UNL     1      -2.312  -0.821  24.776  0.00  0.00    -0.148 NA
ATOM     29  C   UNL     1      -3.045  -1.042  24.471  0.00  0.00    +0.305 C 
ATOM     30  O   UNL     1      -3.574  -0.465  24.207  0.00  0.00    -0.265 OA
ATOM     36  N   UNL     1      -2.573   0.612  24.576  0.00  0.00    -0.227 NA
ENDROOT
BRANCH  29  31
ATOM     31  C   UNL     1      -3.252  -1.839  24.430  0.00  0.00    +0.201 A 
ATOM     32  C   UNL     1      -3.941  -2.145  24.094  0.00  0.00    +0.046 A 
ATOM     33  C   UNL     1      -3.921  -2.967  24.174  0.00  0.00    +0.044 A 
ATOM     34  C   UNL     1      -3.219  -3.168  24.558  0.00  0.00    +0.180 A 
ATOM     35  O   UNL     1      -2.806  -2.471  24.716  0.00  0.00    -0.446 OA
ENDBRANCH  29  31
BRANCH   2   3
ATOM      3  C   UNL     1      -0.098   2.401  25.542  0.00  0.00    +0.184 C 
ATOM      4  O   UNL     1       0.621   2.483  25.939  0.00  0.00    -0.220 OA
ENDBRANCH   2   3
BRANCH  11  12
ATOM     12  C   UNL     1      -3.066   2.306  24.260  0.00  0.00    +0.093 C 
BRANCH  12  13
ATOM     13  C   UNL     1      -3.747   2.295  24.726  0.00  0.00    +0.246 C 
ATOM     14  O   UNL     1      -3.684   2.214  25.545  0.00  0.00    -0.273 OA
ATOM     15  N   UNL     1      -4.489   2.366  24.374  0.00  0.00    -0.179 NA
BRANCH  15  16
ATOM     16  C   UNL     1      -5.170   2.355  24.840  0.00  0.00    +0.073 A 
ATOM     17  C   UNL     1      -5.642   1.679  24.863  0.00  0.00    +0.017 A 
ATOM     18  C   UNL     1      -6.324   1.668  25.329  0.00  0.00    +0.001 A 
ATOM     19  C   UNL     1      -6.532   2.333  25.771  0.00  0.00    +0.000 A 
ATOM     20  C   UNL     1      -6.058   3.008  25.748  0.00  0.00    +0.001 A 
ATOM     21  C   UNL     1      -5.378   3.019  25.283  0.00  0.00    +0.017 A 
ENDBRANCH  15  16
ENDBRANCH  12  13
ENDBRANCH  11  12
TORSDOF 5
ENDMDL
MODEL 5
REMARK VINA RESULT:     -13.1      1.612      5.317
REMARK  Name = 
REMARK  5 active torsions:
REMARK  status: ('A' for Active; 'I' for Inactive)
REMARK    1  A    between atoms: C_2  and  C_3
REMARK    2  A    between atoms: C_11  and  C_12
REMARK    3  A    between atoms: C_12  and  C_13
REMARK    4  A    between atoms: N_15  and  C_16
REMARK    5  A    between atoms: C_29  and  C_31
REMARK                            x       y       z     vdW  Elec       q    Type
REMARK                         _______ _______ _______ _____ _____    ______ ____
ROOT
ATOM      1  C   UNL     1      -5.699   3.808  25.749  0.00  0.00    +0.005 C 
ATOM      2  C   UNL     1      -5.170   3.320  25.346  0.00  0.00    +0.059 C 
ATOM      5  C   UNL     1      -4.900   4.059  25.099  0.00  0.00    +0.154 C 
ATOM      6  O   UNL     1      -5.271   4.746  25.367  0.00  0.00    -0.223 OA
ATOM      7  C   UNL     1      -4.258   4.112  24.582  0.00  0.00    +0.033 C 
ATOM      8  C   UNL     1      -3.887   3.427  24.314  0.00  0.00    +0.003 C 
ATOM      9  C   UNL     1      -4.156   2.688  24.561  0.00  0.00    +0.006 C 
ATOM     10  C   UNL     1      -3.516   2.741  24.046  0.00  0.00    +0.000 C 
ATOM     11  C   UNL     1      -3.785   2.002  24.293  0.00  0.00    +0.050 C 
ATOM     22  C   UNL     1      -4.055   1.263  24.540  0.00  0.00    +0.063 A 
ATOM     23  C   UNL     1      -4.697   1.210  25.057  0.00  0.00    +0.023 A 
ATOM     24  C   UNL     1      -5.068   1.895  25.325  0.00  0.00    +0.034 C 
ATOM     25  C   UNL     1      -4.799   2.635  25.078  0.00  0.00    +0.010 C 
ATOM     26  S   UNL     1      -4.839   0.410  25.204  0.00  0.00    -0.054 S 
ATOM     27  C   UNL     1      -4.286  -0.030  24.780  0.00  0.00    +0.186 A 
ATOM     28  N   UNL     1      -4.227  -0.853  24.768  0.00  0.00    -0.148 NA
ATOM     29  C   UNL     1      -3.643  -1.218  24.315  0.00  0.00    +0.305 C 
ATOM     30  O   UNL     1      -3.116  -0.761  23.874  0.00  0.00    -0.265 OA
ATOM     36  N   UNL     1      -3.802   0.496  24.370  0.00  0.00    -0.227 NA
ENDROOT
BRANCH  29  31
ATOM     31  C   UNL     1      -3.584  -2.041  24.303  0.00  0.00    +0.201 A 
ATOM     32  C   UNL     1      -3.011  -2.492  24.689  0.00  0.00    +0.046 A 
ATOM     33  C   UNL     1      -3.161  -3.287  24.528  0.00  0.00    +0.044 A 
ATOM     34  C   UNL     1      -3.827  -3.328  24.042  0.00  0.00    +0.180 A 
ATOM     35  O   UNL     1      -4.088  -2.557  23.904  0.00  0.00    -0.446 OA
ENDBRANCH  29  31
BRANCH   2   3
ATOM      3  C   UNL     1      -5.624   2.751  25.733  0.00  0.00    +0.184 C 
ATOM      4  O   UNL     1      -6.185   2.981  26.293  0.00  0.00    -0.220 OA
ENDBRANCH   2   3
BRANCH  11  12
ATOM     12  C   UNL     1      -3.144   2.055  23.777  0.00  0.00    +0.093 C 
BRANCH  12  13
ATOM     13  C   UNL     1      -2.375   1.959  24.063  0.00  0.00    +0.246 C 
ATOM     14  O   UNL     1      -2.238   1.931  24.876  0.00  0.00    -0.273 OA
ATOM     15  N   UNL     1      -1.745   1.893  23.536  0.00  0.00    -0.179 NA
BRANCH  15  16
ATOM     16  C   UNL     1      -0.977   1.797  23.821  0.00  0.00    +0.073 A 
ATOM     17  C   UNL     1      -0.618   1.055  23.796  0.00  0.00    +0.017 A 
ATOM     18  C   UNL     1       0.151   0.959  24.081  0.00  0.00    +0.001 A 
ATOM     19  C   UNL     1       0.560   1.605  24.391  0.00  0.00    +0.000 A 
ATOM     20  C   UNL     1       0.200   2.348  24.415  0.00  0.00    +0.001 A 
ATOM     21  C   UNL     1      -0.568   2.444  24.131  0.00  0.00    +0.017 A 
ENDBRANCH  15  16
ENDBRANCH  12  13
ENDBRANCH  11  12
TORSDOF 5
ENDMDL
MODEL 6
REMARK VINA RESULT:     -12.6      1.802      5.703
REMARK  Name = 
REMARK  5 active torsions:
REMARK  status: ('A' for Active; 'I' for Inactive)
REMARK    1  A    between atoms: C_2  and  C_3
REMARK    2  A    between atoms: C_11  and  C_12
REMARK    3  A    between atoms: C_12  and  C_13
REMARK    4  A    between atoms: N_15  and  C_16
REMARK    5  A    between atoms: C_29  and  C_31
REMARK                            x       y       z     vdW  Elec       q    Type
REMARK                         _______ _______ _______ _____ _____    ______ ____
ROOT
ATOM      1  C   UNL     1      -2.683   4.712  25.182  0.00  0.00    +0.005 C 
ATOM      2  C   UNL     1      -2.375   3.947  25.152  0.00  0.00    +0.059 C 
ATOM      5  C   UNL     1      -1.690   4.370  25.326  0.00  0.00    +0.154 C 
ATOM      6  O   UNL     1      -1.721   5.190  25.413  0.00  0.00    -0.223 OA
ATOM      7  C   UNL     1      -0.971   3.974  25.412  0.00  0.00    +0.033 C 
ATOM      8  C   UNL     1      -0.939   3.155  25.325  0.00  0.00    +0.003 C 
ATOM      9  C   UNL     1      -1.624   2.731  25.151  0.00  0.00    +0.006 C 
ATOM     10  C   UNL     1      -0.907   2.336  25.238  0.00  0.00    +0.000 C 
ATOM     11  C   UNL     1      -1.593   1.911  25.064  0.00  0.00    +0.050 C 
ATOM     22  C   UNL     1      -2.278   1.488  24.890  0.00  0.00    +0.063 A 
ATOM     23  C   UNL     1      -2.997   1.885  24.803  0.00  0.00    +0.023 A 
ATOM     24  C   UNL     1      -3.029   2.704  24.890  0.00  0.00    +0.034 C 
ATOM     25  C   UNL     1      -2.343   3.128  25.064  0.00  0.00    +0.010 C 
ATOM     26  S   UNL     1      -3.578   1.324  24.632  0.00  0.00    -0.054 S 
ATOM     27  C   UNL     1      -3.219   0.581  24.614  0.00  0.00    +0.186 A 
ATOM     28  N   UNL     1      -3.597  -0.137  24.463  0.00  0.00    -0.148 NA
ATOM     29  C   UNL     1      -3.163  -0.838  24.462  0.00  0.00    +0.305 C 
ATOM     30  O   UNL     1      -2.352  -0.823  24.613  0.00  0.00    -0.265 OA
ATOM     36  N   UNL     1      -2.416   0.683  24.773  0.00  0.00    -0.227 NA
ENDROOT
BRANCH  29  31
ATOM     31  C   UNL     1      -3.541  -1.556  24.311  0.00  0.00    +0.201 A 
ATOM     32  C   UNL     1      -3.357  -2.282  24.657  0.00  0.00    +0.046 A 
ATOM     33  C   UNL     1      -3.872  -2.849  24.347  0.00  0.00    +0.044 A 
ATOM     34  C   UNL     1      -4.373  -2.473  23.811  0.00  0.00    +0.180 A 
ATOM     35  O   UNL     1      -4.168  -1.673  23.789  0.00  0.00    -0.446 OA
ENDBRANCH  29  31
BRANCH   2   3
ATOM      3  C   UNL     1      -3.168   3.789  24.988  0.00  0.00    +0.184 C 
ATOM      4  O   UNL     1      -3.712   4.409  24.944  0.00  0.00    -0.220 OA
ENDBRANCH   2   3
BRANCH  11  12
ATOM     12  C   UNL     1      -0.874   1.515  25.150  0.00  0.00    +0.093 C 
BRANCH  12  13
ATOM     13  C   UNL     1      -0.455   1.269  24.483  0.00  0.00    +0.246 C 
ATOM     14  O   UNL     1      -0.649   1.571  23.740  0.00  0.00    -0.273 OA
ATOM     15  N   UNL     1       0.156   0.722  24.559  0.00  0.00    -0.179 NA
BRANCH  15  16
ATOM     16  C   UNL     1       0.575   0.475  23.893  0.00  0.00    +0.073 A 
ATOM     17  C   UNL     1       1.239   0.897  23.645  0.00  0.00    +0.017 A 
ATOM     18  C   UNL     1       1.659   0.651  22.978  0.00  0.00    +0.001 A 
ATOM     19  C   UNL     1       1.414  -0.017  22.559  0.00  0.00    +0.000 A 
ATOM     20  C   UNL     1       0.750  -0.438  22.808  0.00  0.00    +0.001 A 
ATOM     21  C   UNL     1       0.330  -0.192  23.474  0.00  0.00    +0.017 A 
ENDBRANCH  15  16
ENDBRANCH  12  13
ENDBRANCH  11  12
TORSDOF 5
ENDMDL
MODEL 7
REMARK VINA RESULT:     -12.2      1.788      3.780
REMARK  Name = 
REMARK  5 active torsions:
REMARK  status: ('A' for Active; 'I' for Inactive)
REMARK    1  A    between atoms: C_2  and  C_3
REMARK    2  A    between atoms: C_11  and  C_12
REMARK    3  A    between atoms: C_12  and  C_13
REMARK    4  A    between atoms: N_15  and  C_16
REMARK    5  A    between atoms: C_29  and  C_31
REMARK                            x       y       z     vdW  Elec       q    Type
REMARK                         _______ _______ _______ _____ _____    ______ ____
ROOT
ATOM      1  C   UNL     1      -4.335  -1.976  24.185  0.00  0.00    +0.005 C 
ATOM      2  C   UNL     1      -3.676  -1.505  24.338  0.00  0.00    +0.059 C 
ATOM      5  C   UNL     1      -3.321  -2.249  24.329  0.00  0.00    +0.154 C 
ATOM      6  O   UNL     1      -3.777  -2.923  24.191  0.00  0.00    -0.223 OA
ATOM      7  C   UNL     1      -2.508  -2.320  24.458  0.00  0.00    +0.033 C 
ATOM      8  C   UNL     1      -2.053  -1.647  24.596  0.00  0.00    +0.003 C 
ATOM      9  C   UNL     1      -2.408  -0.903  24.605  0.00  0.00    +0.006 C 
ATOM     10  C   UNL     1      -1.597  -0.974  24.734  0.00  0.00    +0.000 C 
ATOM     11  C   UNL     1      -1.952  -0.229  24.743  0.00  0.00    +0.050 C 
ATOM     22  C   UNL     1      -2.307   0.515  24.753  0.00  0.00    +0.063 A 
ATOM     23  C   UNL     1      -3.120   0.586  24.623  0.00  0.00    +0.023 A 
ATOM     24  C   UNL     1      -3.576  -0.087  24.485  0.00  0.00    +0.034 C 
ATOM     25  C   UNL     1      -3.221  -0.832  24.476  0.00  0.00    +0.010 C 
ATOM     26  S   UNL     1      -3.315   1.387  24.665  0.00  0.00    -0.054 S 
ATOM     27  C   UNL     1      -2.624   1.810  24.819  0.00  0.00    +0.186 A 
ATOM     28  N   UNL     1      -2.566   2.629  24.904  0.00  0.00    -0.148 NA
ATOM     29  C   UNL     1      -1.835   2.976  25.058  0.00  0.00    +0.305 C 
ATOM     30  O   UNL     1      -1.160   2.506  25.127  0.00  0.00    -0.265 OA
ATOM     36  N   UNL     1      -2.002   1.272  24.873  0.00  0.00    -0.227 NA
ENDROOT
BRANCH  29  31
ATOM     31  C   UNL     1      -1.777   3.795  25.143  0.00  0.00    +0.201 A 
ATOM     32  C   UNL     1      -1.126   4.259  24.938  0.00  0.00    +0.046 A 
ATOM     33  C   UNL     1      -1.306   5.044  25.116  0.00  0.00    +0.044 A 
ATOM     34  C   UNL     1      -2.068   5.066  25.432  0.00  0.00    +0.180 A 
ATOM     35  O   UNL     1      -2.359   4.293  25.448  0.00  0.00    -0.446 OA
ENDBRANCH  29  31
BRANCH   2   3
ATOM      3  C   UNL     1      -4.261  -0.925  24.294  0.00  0.00    +0.184 C 
ATOM      4  O   UNL     1      -5.039  -1.135  24.115  0.00  0.00    -0.220 OA
ENDBRANCH   2   3
BRANCH  11  12
ATOM     12  C   UNL     1      -1.140  -0.300  24.872  0.00  0.00    +0.093 C 
BRANCH  12  13
ATOM     13  C   UNL     1      -0.609  -0.130  24.263  0.00  0.00    +0.246 C 
ATOM     14  O   UNL     1      -0.891   0.043  23.508  0.00  0.00    -0.273 OA
ATOM     15  N   UNL     1       0.202  -0.133  24.411  0.00  0.00    -0.179 NA
BRANCH  15  16
ATOM     16  C   UNL     1       0.733   0.037  23.803  0.00  0.00    +0.073 A 
ATOM     17  C   UNL     1       0.869  -0.518  23.209  0.00  0.00    +0.017 A 
ATOM     18  C   UNL     1       1.400  -0.348  22.600  0.00  0.00    +0.001 A 
ATOM     19  C   UNL     1       1.795   0.376  22.587  0.00  0.00    +0.000 A 
ATOM     20  C   UNL     1       1.658   0.931  23.182  0.00  0.00    +0.001 A 
ATOM     21  C   UNL     1       1.128   0.762  23.790  0.00  0.00    +0.017 A 
ENDBRANCH  15  16
ENDBRANCH  12  13
ENDBRANCH  11  12
TORSDOF 5
ENDMDL
