MODEL 1
REMARK VINA RESULT:     -14.6      0.000      0.000
REMARK  Name = 
REMARK  3 active torsions:
REMARK  status: ('A' for Active; 'I' for Inactive)
REMARK    1  A    between atoms: C_2  and  C_26
REMARK    2  A    between atoms: N_3  and  C_4
REMARK    3  A    between atoms: C_14  and  C_16
REMARK                            x       y       z     vdW  Elec       q    Type
REMARK                         _______ _______ _______ _____ _____    ______ ____
ROOT
ATOM      4  C   UNL     1      -2.815   2.065  24.168  0.00  0.00    +0.130 A 
ATOM      5  C   UNL     1      -3.035   2.858  24.233  0.00  0.00    +0.023 A 
ATOM      6  C   UNL     1      -3.778   3.058  24.530  0.00  0.00    +0.014 A 
ATOM      7  C   UNL     1      -4.302   2.465  24.763  0.00  0.00    +0.041 A 
ATOM      8  C   UNL     1      -5.145   2.355  25.111  0.00  0.00    +0.058 C 
ATOM      9  C   UNL     1      -5.704   2.720  25.328  0.00  0.00    +0.011 C 
ATOM     10  C   UNL     1      -5.484   1.938  25.262  0.00  0.00    +0.043 C 
ATOM     11  C   UNL     1      -5.405   0.953  25.261  0.00  0.00    +0.096 C 
ATOM     12  N   UNL     1      -4.634   0.875  24.948  0.00  0.00    -0.276 N 
ATOM     13  C   UNL     1      -5.084   1.402  25.116  0.00  0.00    +0.099 C 
ATOM     14  C   UNL     1      -3.947   0.507  24.679  0.00  0.00    +0.251 C 
ATOM     15  O   UNL     1      -3.314   0.962  24.406  0.00  0.00    -0.270 OA
ATOM     22  C   UNL     1      -4.602   2.044  24.899  0.00  0.00    +0.110 C 
ATOM     23  N   UNL     1      -4.083   1.673  24.698  0.00  0.00    -0.298 N 
ATOM     24  C   UNL     1      -3.340   1.473  24.401  0.00  0.00    +0.276 A 
ATOM     25  O   UNL     1      -2.906   0.789  24.245  0.00  0.00    -0.266 OA
ENDROOT
BRANCH  14  16
ATOM     16  C   UNL     1      -3.892  -0.316  24.682  0.00  0.00    +0.073 A 
ATOM     17  C   UNL     1      -3.587  -0.707  25.341  0.00  0.00    +0.103 A 
ATOM     18  N   UNL     1      -3.532  -1.531  25.344  0.00  0.00    -0.242 NA
ATOM     19  C   UNL     1      -3.783  -1.963  24.688  0.00  0.00    +0.099 A 
ATOM     20  C   UNL     1      -4.087  -1.573  24.028  0.00  0.00    +0.021 A 
ATOM     21  C   UNL     1      -4.142  -0.749  24.025  0.00  0.00    +0.008 A 
ENDBRANCH  14  16
BRANCH   4   3
ATOM      1  O   UNL     1      -0.653   2.032  23.873  0.00  0.00    -0.265 OA
ATOM      2  C   UNL     1      -1.397   2.232  24.171  0.00  0.00    +0.304 C 
ATOM      3  N   UNL     1      -2.073   1.867  23.871  0.00  0.00    -0.168 NA
BRANCH   2  26
ATOM     26  C   UNL     1      -1.463   2.797  24.768  0.00  0.00    +0.201 A 
ATOM     27  C   UNL     1      -1.513   3.613  24.660  0.00  0.00    +0.046 A 
ATOM     28  C   UNL     1      -1.573   3.965  25.404  0.00  0.00    +0.044 A 
ATOM     29  C   UNL     1      -1.560   3.367  25.971  0.00  0.00    +0.180 A 
ATOM     30  O   UNL     1      -1.492   2.644  25.578  0.00  0.00    -0.446 OA
ENDBRANCH   2  26
ENDBRANCH   4   3
TORSDOF 3
ENDMDL
MODEL 2
REMARK VINA RESULT:     -14.3      1.116      3.423
REMARK  Name = 
REMARK  3 active torsions:
REMARK  status: ('A' for Active; 'I' for Inactive)
REMARK    1  A    between atoms: C_2  and  C_26
REMARK    2  A    between atoms: N_3  and  C_4
REMARK    3  A    between atoms: C_14  and  C_16
REMARK                            x       y       z     vdW  Elec       q    Type
REMARK                         _______ _______ _______ _____ _____    ______ ____
ROOT
ATOM      4  C   UNL     1      -3.253   0.729  24.418  0.00  0.00    +0.130 A 
ATOM      5  C   UNL     1      -3.884   0.203  24.339  0.00  0.00    +0.023 A 
ATOM      6  C   UNL     1      -4.651   0.448  24.520  0.00  0.00    +0.014 A 
ATOM      7  C   UNL     1      -4.787   1.219  24.780  0.00  0.00    +0.041 A 
ATOM      8  C   UNL     1      -5.471   1.773  25.046  0.00  0.00    +0.058 C 
ATOM      9  C   UNL     1      -6.166   1.781  25.143  0.00  0.00    +0.011 C 
ATOM     10  C   UNL     1      -5.540   2.298  25.220  0.00  0.00    +0.043 C 
ATOM     11  C   UNL     1      -4.927   3.057  25.375  0.00  0.00    +0.096 C 
ATOM     12  N   UNL     1      -4.203   2.698  25.165  0.00  0.00    -0.276 N 
ATOM     13  C   UNL     1      -4.891   2.516  25.201  0.00  0.00    +0.099 C 
ATOM     14  C   UNL     1      -3.393   2.620  25.030  0.00  0.00    +0.251 C 
ATOM     15  O   UNL     1      -3.085   1.902  24.763  0.00  0.00    -0.270 OA
ATOM     22  C   UNL     1      -4.820   1.727  24.944  0.00  0.00    +0.110 C 
ATOM     23  N   UNL     1      -4.156   1.745  24.859  0.00  0.00    -0.298 N 
ATOM     24  C   UNL     1      -3.389   1.500  24.678  0.00  0.00    +0.276 A 
ATOM     25  O   UNL     1      -2.629   1.819  24.675  0.00  0.00    -0.266 OA
ENDROOT
BRANCH  14  16
ATOM     16  C   UNL     1      -2.890   3.261  25.163  0.00  0.00    +0.073 A 
ATOM     17  C   UNL     1      -2.750   3.807  24.562  0.00  0.00    +0.103 A 
ATOM     18  N   UNL     1      -2.247   4.448  24.695  0.00  0.00    -0.242 NA
ATOM     19  C   UNL     1      -1.884   4.542  25.430  0.00  0.00    +0.099 A 
ATOM     20  C   UNL     1      -2.024   3.996  26.031  0.00  0.00    +0.021 A 
ATOM     21  C   UNL     1      -2.527   3.355  25.898  0.00  0.00    +0.008 A 
ENDBRANCH  14  16
BRANCH   4   3
ATOM      1  O   UNL     1      -1.446  -0.492  24.325  0.00  0.00    -0.265 OA
ATOM      2  C   UNL     1      -2.214  -0.246  24.507  0.00  0.00    +0.304 C 
ATOM      3  N   UNL     1      -2.487   0.484  24.237  0.00  0.00    -0.168 NA
BRANCH   2  26
ATOM     26  C   UNL     1      -2.706  -0.731  24.957  0.00  0.00    +0.201 A 
ATOM     27  C   UNL     1      -3.182  -1.341  24.669  0.00  0.00    +0.046 A 
ATOM     28  C   UNL     1      -3.579  -1.678  25.309  0.00  0.00    +0.044 A 
ATOM     29  C   UNL     1      -3.349  -1.276  25.992  0.00  0.00    +0.180 A 
ATOM     30  O   UNL     1      -2.809  -0.691  25.775  0.00  0.00    -0.446 OA
ENDBRANCH   2  26
ENDBRANCH   4   3
TORSDOF 3
ENDMDL
MODEL 3
REMARK VINA RESULT:     -13.8      1.350      3.476
REMARK  Name = 
REMARK  3 active torsions:
REMARK  status: ('A' for Active; 'I' for Inactive)
REMARK    1  A    between atoms: C_2  and  C_26
REMARK    2  A    between atoms: N_3  and  C_4
REMARK    3  A    between atoms: C_14  and  C_16
REMARK                            x       y       z     vdW  Elec       q    Type
REMARK                         _______ _______ _______ _____ _____    ______ ____
ROOT
ATOM      4  C   UNL     1      -3.701   1.419  24.267  0.00  0.00    +0.130 A 
ATOM      5  C   UNL     1      -4.381   0.958  24.337  0.00  0.00    +0.023 A 
ATOM      6  C   UNL     1      -4.343   0.218  24.699  0.00  0.00    +0.014 A 
ATOM      7  C   UNL     1      -3.624  -0.061  24.991  0.00  0.00    +0.041 A 
ATOM      8  C   UNL     1      -3.262  -0.790  25.418  0.00  0.00    +0.058 C 
ATOM      9  C   UNL     1      -3.436  -1.418  25.680  0.00  0.00    +0.011 C 
ATOM     10  C   UNL     1      -2.766  -0.960  25.609  0.00  0.00    +0.043 C 
ATOM     11  C   UNL     1      -1.861  -0.562  25.618  0.00  0.00    +0.096 C 
ATOM     12  N   UNL     1      -2.023   0.163  25.237  0.00  0.00    -0.276 N 
ATOM     13  C   UNL     1      -2.382  -0.419  25.435  0.00  0.00    +0.099 C 
ATOM     14  C   UNL     1      -1.885   0.909  24.911  0.00  0.00    +0.251 C 
ATOM     15  O   UNL     1      -2.507   1.332  24.572  0.00  0.00    -0.270 OA
ATOM     22  C   UNL     1      -3.135  -0.194  25.162  0.00  0.00    +0.110 C 
ATOM     23  N   UNL     1      -2.943   0.400  24.921  0.00  0.00    -0.298 N 
ATOM     24  C   UNL     1      -2.981   1.140  24.559  0.00  0.00    +0.276 A 
ATOM     25  O   UNL     1      -2.469   1.760  24.376  0.00  0.00    -0.266 OA
ENDROOT
BRANCH  14  16
ATOM     16  C   UNL     1      -1.126   1.231  24.924  0.00  0.00    +0.073 A 
ATOM     17  C   UNL     1      -0.598   1.069  24.312  0.00  0.00    +0.103 A 
ATOM     18  N   UNL     1       0.162   1.392  24.325  0.00  0.00    -0.242 NA
ATOM     19  C   UNL     1       0.392   1.876  24.952  0.00  0.00    +0.099 A 
ATOM     20  C   UNL     1      -0.135   2.037  25.565  0.00  0.00    +0.021 A 
ATOM     21  C   UNL     1      -0.894   1.715  25.552  0.00  0.00    +0.008 A 
ENDBRANCH  14  16
BRANCH   4   3
ATOM      1  O   UNL     1      -4.371   3.433  23.755  0.00  0.00    -0.265 OA
ATOM      2  C   UNL     1      -4.333   2.692  24.118  0.00  0.00    +0.304 C 
ATOM      3  N   UNL     1      -3.740   2.159  23.905  0.00  0.00    -0.168 NA
BRANCH   2  26
ATOM     26  C   UNL     1      -4.887   2.484  24.693  0.00  0.00    +0.201 A 
ATOM     27  C   UNL     1      -4.871   2.713  25.486  0.00  0.00    +0.046 A 
ATOM     28  C   UNL     1      -5.528   2.382  25.859  0.00  0.00    +0.044 A 
ATOM     29  C   UNL     1      -5.950   1.949  25.297  0.00  0.00    +0.180 A 
ATOM     30  O   UNL     1      -5.553   2.013  24.576  0.00  0.00    -0.446 OA
ENDBRANCH   2  26
ENDBRANCH   4   3
TORSDOF 3
ENDMDL
MODEL 4
REMARK VINA RESULT:     -13.6      1.509      3.289
REMARK  Name = 
REMARK  3 active torsions:
REMARK  status: ('A' for Active; 'I' for Inactive)
REMARK    1  A    between atoms: C_2  and  C_26
REMARK    2  A    between atoms: N_3  and  C_4
REMARK    3  A    between atoms: C_14  and  C_16
REMARK                            x       y       z     vdW  Elec       q    Type
REMARK                         _______ _______ _______ _____ _____    ______ ____
ROOT
ATOM      4  C   UNL     1      -1.984  -0.048  25.281  0.00  0.00    +0.130 A 
ATOM      5  C   UNL     1      -1.638  -0.793  25.203  0.00  0.00    +0.023 A 
ATOM      6  C   UNL     1      -2.074  -1.419  24.889  0.00  0.00    +0.014 A 
ATOM      7  C   UNL     1      -2.855  -1.300  24.652  0.00  0.00    +0.041 A 
ATOM      8  C   UNL     1      -3.567  -1.752  24.289  0.00  0.00    +0.058 C 
ATOM      9  C   UNL     1      -3.756  -2.387  24.057  0.00  0.00    +0.011 C 
ATOM     10  C   UNL     1      -4.094  -1.650  24.135  0.00  0.00    +0.043 C 
ATOM     11  C   UNL     1      -4.670  -0.847  24.148  0.00  0.00    +0.096 C 
ATOM     12  N   UNL     1      -4.134  -0.297  24.477  0.00  0.00    -0.276 N 
ATOM     13  C   UNL     1      -4.136  -0.985  24.295  0.00  0.00    +0.099 C 
ATOM     14  C   UNL     1      -3.850   0.423  24.764  0.00  0.00    +0.251 C 
ATOM     15  O   UNL     1      -3.075   0.478  25.044  0.00  0.00    -0.270 OA
ATOM     22  C   UNL     1      -3.355  -1.169  24.515  0.00  0.00    +0.110 C 
ATOM     23  N   UNL     1      -3.200  -0.554  24.730  0.00  0.00    -0.298 N 
ATOM     24  C   UNL     1      -2.765   0.072  25.044  0.00  0.00    +0.276 A 
ATOM     25  O   UNL     1      -2.876   0.871  25.216  0.00  0.00    -0.266 OA
ENDROOT
BRANCH  14  16
ATOM     16  C   UNL     1      -4.339   1.087  24.771  0.00  0.00    +0.073 A 
ATOM     17  C   UNL     1      -4.257   1.666  24.190  0.00  0.00    +0.103 A 
ATOM     18  N   UNL     1      -4.747   2.330  24.196  0.00  0.00    -0.242 NA
ATOM     19  C   UNL     1      -5.319   2.414  24.785  0.00  0.00    +0.099 A 
ATOM     20  C   UNL     1      -5.402   1.836  25.366  0.00  0.00    +0.021 A 
ATOM     21  C   UNL     1      -4.912   1.171  25.359  0.00  0.00    +0.008 A 
ENDBRANCH  14  16
BRANCH   4   3
ATOM      1  O   UNL     1      -0.361   1.375  25.612  0.00  0.00    -0.265 OA
ATOM      2  C   UNL     1      -0.798   0.749  25.297  0.00  0.00    +0.304 C 
ATOM      3  N   UNL     1      -1.547   0.578  25.595  0.00  0.00    -0.168 NA
BRANCH   2  26
ATOM     26  C   UNL     1      -0.484   0.295  24.684  0.00  0.00    +0.201 A 
ATOM     27  C   UNL     1      -0.450   0.511  23.888  0.00  0.00    +0.046 A 
ATOM     28  C   UNL     1      -0.094  -0.106  23.472  0.00  0.00    +0.044 A 
ATOM     29  C   UNL     1       0.092  -0.703  24.010  0.00  0.00    +0.180 A 
ATOM     30  O   UNL     1      -0.149  -0.455  24.759  0.00  0.00    -0.446 OA
ENDBRANCH   2  26
ENDBRANCH   4   3
TORSDOF 3
ENDMDL
MODEL 5
REMARK VINA RESULT:     -13.3      1.542      2.726
REMARK  Name = 
REMARK  3 active torsions:
REMARK  status: ('A' for Active; 'I' for Inactive)
REMARK    1  A    between atoms: C_2  and  C_26
REMARK    2  A    between atoms: N_3  and  C_4
REMARK    3  A    between atoms: C_14  and  C_16
REMARK                            x       y       z     vdW  Elec       q    Type
REMARK                         _______ _______ _______ _____ _____    ______ ____
ROOT
ATOM      4  C   UNL     1      -4.831   1.755  24.627  0.00  0.00    +0.130 A 
ATOM      5  C   UNL     1      -4.710   2.498  24.288  0.00  0.00    +0.023 A 
ATOM      6  C   UNL     1      -4.045   2.635  23.820  0.00  0.00    +0.014 A 
ATOM      7  C   UNL     1      -3.501   2.029  23.690  0.00  0.00    +0.041 A 
ATOM      8  C   UNL     1      -2.711   1.861  23.251  0.00  0.00    +0.058 C 
ATOM      9  C   UNL     1      -2.233   2.170  22.840  0.00  0.00    +0.011 C 
ATOM     10  C   UNL     1      -2.356   1.437  23.175  0.00  0.00    +0.043 C 
ATOM     11  C   UNL     1      -2.328   0.500  23.488  0.00  0.00    +0.096 C 
ATOM     12  N   UNL     1      -3.031   0.482  23.938  0.00  0.00    -0.276 N 
ATOM     13  C   UNL     1      -2.670   0.953  23.544  0.00  0.00    +0.099 C 
ATOM     14  C   UNL     1      -3.628   0.180  24.422  0.00  0.00    +0.251 C 
ATOM     15  O   UNL     1      -4.258   0.662  24.650  0.00  0.00    -0.270 OA
ATOM     22  C   UNL     1      -3.181   1.604  23.638  0.00  0.00    +0.110 C 
ATOM     23  N   UNL     1      -3.622   1.286  24.028  0.00  0.00    -0.298 N 
ATOM     24  C   UNL     1      -4.287   1.149  24.497  0.00  0.00    +0.276 A 
ATOM     25  O   UNL     1      -4.617   0.527  24.925  0.00  0.00    -0.266 OA
ENDROOT
BRANCH  14  16
ATOM     16  C   UNL     1      -3.595  -0.604  24.677  0.00  0.00    +0.073 A 
ATOM     17  C   UNL     1      -3.254  -0.787  25.405  0.00  0.00    +0.103 A 
ATOM     18  N   UNL     1      -3.221  -1.571  25.660  0.00  0.00    -0.242 NA
ATOM     19  C   UNL     1      -3.528  -2.172  25.186  0.00  0.00    +0.099 A 
ATOM     20  C   UNL     1      -3.869  -1.990  24.458  0.00  0.00    +0.021 A 
ATOM     21  C   UNL     1      -3.902  -1.205  24.203  0.00  0.00    +0.008 A 
ENDBRANCH  14  16
BRANCH   4   3
ATOM      1  O   UNL     1      -6.392   2.040  26.126  0.00  0.00    -0.265 OA
ATOM      2  C   UNL     1      -5.726   2.177  25.657  0.00  0.00    +0.304 C 
ATOM      3  N   UNL     1      -5.496   1.619  25.095  0.00  0.00    -0.168 NA
BRANCH   2  26
ATOM     26  C   UNL     1      -5.290   2.871  25.752  0.00  0.00    +0.201 A 
ATOM     27  C   UNL     1      -5.458   3.600  25.404  0.00  0.00    +0.046 A 
ATOM     28  C   UNL     1      -4.882   4.137  25.649  0.00  0.00    +0.044 A 
ATOM     29  C   UNL     1      -4.358   3.740  26.148  0.00  0.00    +0.180 A 
ATOM     30  O   UNL     1      -4.611   2.958  26.212  0.00  0.00    -0.446 OA
ENDBRANCH   2  26
ENDBRANCH   4   3
TORSDOF 3
ENDMDL
MODEL 6
REMARK VINA RESULT:     -12.7      1.637      3.450
REMARK  Name = 
REMARK  3 active torsions:
REMARK  status: ('A' for Active; 'I' for Inactive)
REMARK    1  A    between atoms: C_2  and  C_26
REMARK    2  A    between atoms: N_3  and  C_4
REMARK    3  A    between atoms: C_14  and  C_16
REMARK                            x       y       z     vdW  Elec       q    Type
REMARK                         _______ _______ _______ _____ _____    ______ ____
ROOT
ATOM      4  C   UNL     1      -3.485  -0.081  24.646  0.00  0.00    +0.130 A 
ATOM      5  C   UNL     1      -2.878  -0.308  24.136  0.00  0.00    +0.023 A 
ATOM      6  C   UNL     1      -2.581   0.227  23.583  0.00  0.00    +0.014 A 
ATOM      7  C   UNL     1      -2.891   0.991  23.541  0.00  0.00    +0.041 A 
ATOM      8  C   UNL     1      -2.793   1.776  23.074  0.00  0.00    +0.058 C 
ATOM      9  C   UNL     1      -2.418   2.065  22.557  0.00  0.00    +0.011 C 
ATOM     10  C   UNL     1      -3.017   2.287  23.062  0.00  0.00    +0.043 C 
ATOM     11  C   UNL     1      -3.730   2.736  23.577  0.00  0.00    +0.096 C 
ATOM     12  N   UNL     1      -3.947   2.112  24.090  0.00  0.00    -0.276 N 
ATOM     13  C   UNL     1      -3.480   2.224  23.563  0.00  0.00    +0.099 C 
ATOM     14  C   UNL     1      -4.352   1.713  24.688  0.00  0.00    +0.251 C 
ATOM     15  O   UNL     1      -4.162   0.929  24.862  0.00  0.00    -0.270 OA
ATOM     22  C   UNL     1      -3.126   1.470  23.556  0.00  0.00    +0.110 C 
ATOM     23  N   UNL     1      -3.498   1.218  24.052  0.00  0.00    -0.298 N 
ATOM     24  C   UNL     1      -3.795   0.682  24.604  0.00  0.00    +0.276 A 
ATOM     25  O   UNL     1      -4.369   0.667  25.196  0.00  0.00    -0.266 OA
ENDROOT
BRANCH  14  16
ATOM     16  C   UNL     1      -4.945   2.098  25.112  0.00  0.00    +0.073 A 
ATOM     17  C   UNL     1      -4.747   2.635  25.705  0.00  0.00    +0.103 A 
ATOM     18  N   UNL     1      -5.342   3.020  26.129  0.00  0.00    -0.242 NA
ATOM     19  C   UNL     1      -6.134   2.867  25.959  0.00  0.00    +0.099 A 
ATOM     20  C   UNL     1      -6.333   2.330  25.366  0.00  0.00    +0.021 A 
ATOM     21  C   UNL     1      -5.738   1.945  24.942  0.00  0.00    +0.008 A 
ENDBRANCH  14  16
BRANCH   4   3
ATOM      1  O   UNL     1      -3.560  -1.613  26.200  0.00  0.00    -0.265 OA
ATOM      2  C   UNL     1      -3.263  -1.076  25.647  0.00  0.00    +0.304 C 
ATOM      3  N   UNL     1      -3.781  -0.617  25.199  0.00  0.00    -0.168 NA
BRANCH   2  26
ATOM     26  C   UNL     1      -2.448  -1.000  25.543  0.00  0.00    +0.201 A 
ATOM     27  C   UNL     1      -1.977  -1.463  25.049  0.00  0.00    +0.046 A 
ATOM     28  C   UNL     1      -1.199  -1.195  25.116  0.00  0.00    +0.044 A 
ATOM     29  C   UNL     1      -1.190  -0.568  25.651  0.00  0.00    +0.180 A 
ATOM     30  O   UNL     1      -1.962  -0.447  25.915  0.00  0.00    -0.446 OA
ENDBRANCH   2  26
ENDBRANCH   4   3
TORSDOF 3
ENDMDL
MODEL 7
REMARK VINA RESULT:     -12.6      1.528      3.235
REMARK  Name = 
REMARK  3 active torsions:
REMARK  status: ('A' for Active; 'I' for Inactive)
REMARK    1  A    between atoms: C_2  and  C_26
REMARK    2  A    between atoms: N_3  and  C_4
REMARK    3  A    between atoms: C_14  and  C_16
REMARK                            x       y       z     vdW  Elec       q    Type
REMARK                         _______ _______ _______ _____ _____    ______ ____
ROOT
ATOM      4  C   UNL     1      -3.282   2.103  24.503  0.00  0.00    +0.130 A 
ATOM      5  C   UNL     1      -3.416   2.917  24.492  0.00  0.00    +0.023 A 
ATOM      6  C   UNL     1      -2.812   3.438  24.700  0.00  0.00    +0.014 A 
ATOM      7  C   UNL     1      -2.072   3.145  24.919  0.00  0.00    +0.041 A 
ATOM      8  C   UNL     1      -1.242   3.433  25.188  0.00  0.00    +0.058 C 
ATOM      9  C   UNL     1      -0.880   4.018  25.323  0.00  0.00    +0.011 C 
ATOM     10  C   UNL     1      -0.750   3.214  25.333  0.00  0.00    +0.043 C 
ATOM     11  C   UNL     1      -0.403   2.292  25.405  0.00  0.00    +0.096 C 
ATOM     12  N   UNL     1      -1.085   1.867  25.177  0.00  0.00    -0.276 N 
ATOM     13  C   UNL     1      -0.892   2.547  25.263  0.00  0.00    +0.099 C 
ATOM     14  C   UNL     1      -1.566   1.220  25.002  0.00  0.00    +0.251 C 
ATOM     15  O   UNL     1      -2.348   1.338  24.764  0.00  0.00    -0.270 OA
ATOM     22  C   UNL     1      -1.614   2.904  25.052  0.00  0.00    +0.110 C 
ATOM     23  N   UNL     1      -1.938   2.331  24.930  0.00  0.00    -0.298 N 
ATOM     24  C   UNL     1      -2.542   1.810  24.722  0.00  0.00    +0.276 A 
ATOM     25  O   UNL     1      -2.653   0.995  24.656  0.00  0.00    -0.266 OA
ENDROOT
BRANCH  14  16
ATOM     16  C   UNL     1      -1.266   0.454  25.066  0.00  0.00    +0.073 A 
ATOM     17  C   UNL     1      -0.842   0.123  24.441  0.00  0.00    +0.103 A 
ATOM     18  N   UNL     1      -0.542  -0.643  24.505  0.00  0.00    -0.242 NA
ATOM     19  C   UNL     1      -0.667  -1.077  25.195  0.00  0.00    +0.099 A 
ATOM     20  C   UNL     1      -1.090  -0.748  25.820  0.00  0.00    +0.021 A 
ATOM     21  C   UNL     1      -1.391   0.019  25.756  0.00  0.00    +0.008 A 
ENDBRANCH  14  16
BRANCH   4   3
ATOM      1  O   UNL     1      -5.259   1.189  24.360  0.00  0.00    -0.265 OA
ATOM      2  C   UNL     1      -4.654   1.711  24.568  0.00  0.00    +0.304 C 
ATOM      3  N   UNL     1      -3.887   1.582  24.295  0.00  0.00    -0.168 NA
BRANCH   2  26
ATOM     26  C   UNL     1      -4.817   2.361  25.050  0.00  0.00    +0.201 A 
ATOM     27  C   UNL     1      -5.079   3.100  24.794  0.00  0.00    +0.046 A 
ATOM     28  C   UNL     1      -5.170   3.581  25.459  0.00  0.00    +0.044 A 
ATOM     29  C   UNL     1      -4.964   3.139  26.124  0.00  0.00    +0.180 A 
ATOM     30  O   UNL     1      -4.746   2.384  25.872  0.00  0.00    -0.446 OA
ENDBRANCH   2  26
ENDBRANCH   4   3
TORSDOF 3
ENDMDL
