MODEL 1
REMARK VINA RESULT:      -9.6      0.000      0.000
REMARK  Name = 
REMARK  6 active torsions:
REMARK  status: ('A' for Active; 'I' for Inactive)
REMARK    1  A    between atoms: C_2  and  N_4
REMARK    2  A    between atoms: N_4  and  C_5
REMARK    3  A    between atoms: C_8  and  C_9
REMARK    4  A    between atoms: C_9  and  N_10
REMARK    5  A    between atoms: N_10  and  S_11
REMARK    6  A    between atoms: S_11  and  C_14
REMARK                            x       y       z     vdW  Elec       q    Type
REMARK                         _______ _______ _______ _____ _____    ______ ____
ROOT
ATOM      9  C   UNL     1      -2.532   1.370  24.878  0.00  0.00    +0.148 C 
ENDROOT
BRANCH   9   8
ATOM      5  C   UNL     1      -1.864   3.368  25.223  0.00  0.00    +0.135 C 
ATOM      6  C   UNL     1      -2.535   3.502  24.762  0.00  0.00    +0.162 C 
ATOM      7  O   UNL     1      -2.866   2.770  24.577  0.00  0.00    -0.350 OA
ATOM      8  C   UNL     1      -2.401   2.184  24.923  0.00  0.00    +0.166 C 
ATOM     21  C   UNL     1      -1.781   2.553  25.323  0.00  0.00    +0.199 C 
ATOM     22  O   UNL     1      -1.184   2.175  25.747  0.00  0.00    -0.219 OA
BRANCH   5   4
ATOM      4  N   UNL     1      -1.363   3.947  25.531  0.00  0.00    -0.216 NA
BRANCH   4   2
ATOM      1  C   UNL     1      -1.885   5.258  25.307  0.00  0.00    +0.019 C 
ATOM      2  C   UNL     1      -1.311   4.684  25.165  0.00  0.00    +0.073 C 
ATOM      3  C   UNL     1      -0.682   4.847  24.655  0.00  0.00    +0.019 C 
ENDBRANCH   4   2
ENDBRANCH   5   4
ENDBRANCH   9   8
BRANCH   9  10
ATOM     10  N   UNL     1      -3.264   1.084  24.626  0.00  0.00    -0.075 NA
BRANCH  10  11
ATOM     11  S   UNL     1      -3.390   0.271  24.567  0.00  0.00    +0.077 S 
ATOM     12  O   UNL     1      -2.931   0.250  23.882  0.00  0.00    -0.152 OA
ATOM     13  O   UNL     1      -3.850   0.293  25.252  0.00  0.00    -0.152 OA
BRANCH  11  14
ATOM     14  C   UNL     1      -3.516  -0.542  24.507  0.00  0.00    +0.124 A 
ATOM     15  C   UNL     1      -4.059  -0.836  23.959  0.00  0.00    +0.020 A 
ATOM     16  C   UNL     1      -4.186  -1.650  23.899  0.00  0.00    -0.003 A 
ATOM     17  C   UNL     1      -3.769  -2.168  24.388  0.00  0.00    -0.022 A 
ATOM     18  C   UNL     1      -3.895  -2.982  24.328  0.00  0.00    +0.031 C 
ATOM     19  C   UNL     1      -3.227  -1.874  24.935  0.00  0.00    -0.003 A 
ATOM     20  C   UNL     1      -3.100  -1.061  24.995  0.00  0.00    +0.020 A 
ENDBRANCH  11  14
ENDBRANCH  10  11
ENDBRANCH   9  10
TORSDOF 6
ENDMDL
MODEL 2
REMARK VINA RESULT:      -9.3      1.070      5.254
REMARK  Name = 
REMARK  6 active torsions:
REMARK  status: ('A' for Active; 'I' for Inactive)
REMARK    1  A    between atoms: C_2  and  N_4
REMARK    2  A    between atoms: N_4  and  C_5
REMARK    3  A    between atoms: C_8  and  C_9
REMARK    4  A    between atoms: C_9  and  N_10
REMARK    5  A    between atoms: N_10  and  S_11
REMARK    6  A    between atoms: S_11  and  C_14
REMARK                            x       y       z     vdW  Elec       q    Type
REMARK                         _______ _______ _______ _____ _____    ______ ____
ROOT
ATOM      9  C   UNL     1      -2.612   1.118  24.932  0.00  0.00    +0.148 C 
ENDROOT
BRANCH   9   8
ATOM      5  C   UNL     1      -3.329  -0.891  24.827  0.00  0.00    +0.135 C 
ATOM      6  C   UNL     1      -2.554  -0.984  24.560  0.00  0.00    +0.162 C 
ATOM      7  O   UNL     1      -2.192  -0.243  24.567  0.00  0.00    -0.350 OA
ATOM      8  C   UNL     1      -2.742   0.308  24.838  0.00  0.00    +0.166 C 
ATOM     21  C   UNL     1      -3.445  -0.092  24.999  0.00  0.00    +0.199 C 
ATOM     22  O   UNL     1      -4.142   0.247  25.282  0.00  0.00    -0.219 OA
BRANCH   5   4
ATOM      4  N   UNL     1      -3.890  -1.491  24.907  0.00  0.00    -0.216 NA
BRANCH   4   2
ATOM      1  C   UNL     1      -4.134  -2.303  23.758  0.00  0.00    +0.019 C 
ATOM      2  C   UNL     1      -3.794  -2.203  24.502  0.00  0.00    +0.073 C 
ATOM      3  C   UNL     1      -3.357  -2.815  24.843  0.00  0.00    +0.019 C 
ENDBRANCH   4   2
ENDBRANCH   5   4
ENDBRANCH   9   8
BRANCH   9  10
ATOM     10  N   UNL     1      -1.855   1.429  24.828  0.00  0.00    -0.075 NA
BRANCH  10  11
ATOM     11  S   UNL     1      -1.732   2.242  24.885  0.00  0.00    +0.077 S 
ATOM     12  O   UNL     1      -1.988   2.336  24.107  0.00  0.00    -0.152 OA
ATOM     13  O   UNL     1      -1.476   2.148  25.664  0.00  0.00    -0.152 OA
BRANCH  11  14
ATOM     14  C   UNL     1      -1.610   3.056  24.943  0.00  0.00    +0.124 A 
ATOM     15  C   UNL     1      -0.914   3.389  24.650  0.00  0.00    +0.020 A 
ATOM     16  C   UNL     1      -0.790   4.204  24.708  0.00  0.00    -0.003 A 
ATOM     17  C   UNL     1      -1.364   4.683  25.058  0.00  0.00    -0.022 A 
ATOM     18  C   UNL     1      -1.240   5.498  25.116  0.00  0.00    +0.031 C 
ATOM     19  C   UNL     1      -2.058   4.350  25.351  0.00  0.00    -0.003 A 
ATOM     20  C   UNL     1      -2.181   3.535  25.293  0.00  0.00    +0.020 A 
ENDBRANCH  11  14
ENDBRANCH  10  11
ENDBRANCH   9  10
TORSDOF 6
ENDMDL
