MODEL 1
REMARK VINA RESULT:      -8.6      0.000      0.000
REMARK  Name = 
REMARK  7 active torsions:
REMARK  status: ('A' for Active; 'I' for Inactive)
REMARK    1  A    between atoms: C_2  and  O_17
REMARK    2  A    between atoms: N_3  and  C_4
REMARK    3  A    between atoms: C_7  and  O_8
REMARK    4  A    between atoms: O_8  and  C_9
REMARK    5  A    between atoms: O_17  and  C_18
REMARK    6  A    between atoms: C_22  and  N_26
REMARK    7  A    between atoms: C_27  and  C_29
REMARK                            x       y       z     vdW  Elec       q    Type
REMARK                         _______ _______ _______ _____ _____    ______ ____
ROOT
ATOM     17  O   UNL     1      -0.539  -0.469  23.897  0.00  0.00    -0.432 OA
ENDROOT
BRANCH  17  18
ATOM     18  C   UNL     1      -0.994   0.087  24.302  0.00  0.00    +0.229 C 
ATOM     19  C   UNL     1      -0.728   0.588  24.901  0.00  0.00    +0.188 C 
ATOM     20  O   UNL     1      -1.365   1.050  25.148  0.00  0.00    -0.348 OA
ATOM     21  C   UNL     1      -2.024   0.835  24.703  0.00  0.00    +0.168 C 
ATOM     22  C   UNL     1      -2.826   0.987  24.581  0.00  0.00    +0.155 C 
ATOM     23  C   UNL     1      -3.093   0.486  23.982  0.00  0.00    +0.166 C 
ATOM     24  O   UNL     1      -2.456   0.024  23.735  0.00  0.00    -0.348 OA
ATOM     25  C   UNL     1      -1.795   0.240  24.180  0.00  0.00    +0.186 C 
BRANCH  22  26
ATOM     26  N   UNL     1      -3.282   1.543  24.986  0.00  0.00    -0.197 NA
ATOM     27  C   UNL     1      -3.864   1.969  24.587  0.00  0.00    +0.284 C 
ATOM     28  O   UNL     1      -3.993   1.839  23.782  0.00  0.00    -0.267 OA
BRANCH  27  29
ATOM     29  C   UNL     1      -4.320   2.525  24.992  0.00  0.00    +0.155 A 
ATOM     30  C   UNL     1      -4.094   3.318  24.997  0.00  0.00    +0.123 A 
ATOM     31  N   UNL     1      -4.549   3.875  25.403  0.00  0.00    -0.239 NA
ATOM     32  C   UNL     1      -5.230   3.637  25.803  0.00  0.00    +0.120 A 
ATOM     33  C   UNL     1      -5.456   2.844  25.797  0.00  0.00    +0.120 A 
ATOM     34  N   UNL     1      -5.001   2.287  25.392  0.00  0.00    -0.236 NA
ENDBRANCH  27  29
ENDBRANCH  22  26
ENDBRANCH  17  18
BRANCH  17   2
ATOM      1  O   UNL     1       0.819  -0.498  24.340  0.00  0.00    -0.224 OA
ATOM      2  C   UNL     1       0.261  -0.324  23.757  0.00  0.00    +0.425 C 
ATOM      3  N   UNL     1       0.503  -0.007  23.035  0.00  0.00    -0.142 NA
BRANCH   3   4
ATOM      4  C   UNL     1       1.303   0.138  22.895  0.00  0.00    +0.077 A 
ATOM      5  C   UNL     1       1.678   0.776  23.259  0.00  0.00    +0.020 A 
ATOM      6  C   UNL     1       2.478   0.920  23.119  0.00  0.00    +0.039 A 
ATOM      7  C   UNL     1       2.904   0.426  22.615  0.00  0.00    +0.145 A 
ATOM     15  C   UNL     1       2.529  -0.213  22.250  0.00  0.00    +0.039 A 
ATOM     16  C   UNL     1       1.729  -0.357  22.391  0.00  0.00    +0.020 A 
BRANCH   7   8
ATOM      8  O   UNL     1       3.704   0.570  22.474  0.00  0.00    -0.453 OA
BRANCH   8   9
ATOM      9  C   UNL     1       4.273   0.291  23.002  0.00  0.00    +0.145 A 
ATOM     10  C   UNL     1       4.788   0.820  23.370  0.00  0.00    +0.037 A 
ATOM     11  C   UNL     1       5.357   0.541  23.898  0.00  0.00    +0.003 A 
ATOM     12  C   UNL     1       5.410  -0.267  24.059  0.00  0.00    +0.000 A 
ATOM     13  C   UNL     1       4.894  -0.796  23.692  0.00  0.00    +0.003 A 
ATOM     14  C   UNL     1       4.325  -0.516  23.163  0.00  0.00    +0.037 A 
ENDBRANCH   8   9
ENDBRANCH   7   8
ENDBRANCH   3   4
ENDBRANCH  17   2
TORSDOF 7
ENDMDL
MODEL 2
REMARK VINA RESULT:      -8.4      1.580      7.362
REMARK  Name = 
REMARK  7 active torsions:
REMARK  status: ('A' for Active; 'I' for Inactive)
REMARK    1  A    between atoms: C_2  and  O_17
REMARK    2  A    between atoms: N_3  and  C_4
REMARK    3  A    between atoms: C_7  and  O_8
REMARK    4  A    between atoms: O_8  and  C_9
REMARK    5  A    between atoms: O_17  and  C_18
REMARK    6  A    between atoms: C_22  and  N_26
REMARK    7  A    between atoms: C_27  and  C_29
REMARK                            x       y       z     vdW  Elec       q    Type
REMARK                         _______ _______ _______ _____ _____    ______ ____
ROOT
ATOM     17  O   UNL     1      -0.947   0.465  23.051  0.00  0.00    -0.432 OA
ENDROOT
BRANCH  17  18
ATOM     18  C   UNL     1      -0.175   0.482  23.343  0.00  0.00    +0.229 C 
ATOM     19  C   UNL     1       0.059   0.768  24.080  0.00  0.00    +0.188 C 
ATOM     20  O   UNL     1       0.876   0.679  24.140  0.00  0.00    -0.348 OA
ATOM     21  C   UNL     1       1.148   0.338  23.441  0.00  0.00    +0.168 C 
ATOM     22  C   UNL     1       1.821   0.071  23.045  0.00  0.00    +0.155 C 
ATOM     23  C   UNL     1       1.588  -0.215  22.308  0.00  0.00    +0.166 C 
ATOM     24  O   UNL     1       0.770  -0.126  22.247  0.00  0.00    -0.348 OA
ATOM     25  C   UNL     1       0.498   0.216  22.948  0.00  0.00    +0.186 C 
BRANCH  22  26
ATOM     26  N   UNL     1       2.593   0.088  23.336  0.00  0.00    -0.197 NA
ATOM     27  C   UNL     1       3.230   0.149  22.815  0.00  0.00    +0.284 C 
ATOM     28  O   UNL     1       3.095   0.192  22.002  0.00  0.00    -0.267 OA
BRANCH  27  29
ATOM     29  C   UNL     1       4.002   0.166  23.106  0.00  0.00    +0.155 A 
ATOM     30  C   UNL     1       4.420   0.877  23.126  0.00  0.00    +0.123 A 
ATOM     31  N   UNL     1       5.191   0.895  23.417  0.00  0.00    -0.239 NA
ATOM     32  C   UNL     1       5.545   0.199  23.689  0.00  0.00    +0.120 A 
ATOM     33  C   UNL     1       5.127  -0.511  23.669  0.00  0.00    +0.120 A 
ATOM     34  N   UNL     1       4.355  -0.529  23.378  0.00  0.00    -0.236 NA
ENDBRANCH  27  29
ENDBRANCH  22  26
ENDBRANCH  17  18
BRANCH  17   2
ATOM      1  O   UNL     1      -1.843   0.746  24.128  0.00  0.00    -0.224 OA
ATOM      2  C   UNL     1      -1.527   0.943  23.391  0.00  0.00    +0.425 C 
ATOM      3  N   UNL     1      -1.791   1.617  22.996  0.00  0.00    -0.142 NA
BRANCH   3   4
ATOM      4  C   UNL     1      -2.371   2.094  23.336  0.00  0.00    +0.077 A 
ATOM      5  C   UNL     1      -2.187   2.570  23.984  0.00  0.00    +0.020 A 
ATOM      6  C   UNL     1      -2.767   3.048  24.324  0.00  0.00    +0.039 A 
ATOM      7  C   UNL     1      -3.532   3.050  24.016  0.00  0.00    +0.145 A 
ATOM     15  C   UNL     1      -3.717   2.573  23.368  0.00  0.00    +0.039 A 
ATOM     16  C   UNL     1      -3.137   2.096  23.028  0.00  0.00    +0.020 A 
BRANCH   7   8
ATOM      8  O   UNL     1      -4.113   3.527  24.355  0.00  0.00    -0.453 OA
BRANCH   8   9
ATOM      9  C   UNL     1      -4.638   3.210  24.907  0.00  0.00    +0.145 A 
ATOM     10  C   UNL     1      -4.586   3.430  25.700  0.00  0.00    +0.037 A 
ATOM     11  C   UNL     1      -5.111   3.113  26.252  0.00  0.00    +0.003 A 
ATOM     12  C   UNL     1      -5.688   2.575  26.010  0.00  0.00    +0.000 A 
ATOM     13  C   UNL     1      -5.741   2.355  25.217  0.00  0.00    +0.003 A 
ATOM     14  C   UNL     1      -5.215   2.673  24.665  0.00  0.00    +0.037 A 
ENDBRANCH   8   9
ENDBRANCH   7   8
ENDBRANCH   3   4
ENDBRANCH  17   2
TORSDOF 7
ENDMDL
MODEL 3
REMARK VINA RESULT:      -6.3     14.852     17.720
REMARK  Name = 
REMARK  7 active torsions:
REMARK  status: ('A' for Active; 'I' for Inactive)
REMARK    1  A    between atoms: C_2  and  O_17
REMARK    2  A    between atoms: N_3  and  C_4
REMARK    3  A    between atoms: C_7  and  O_8
REMARK    4  A    between atoms: O_8  and  C_9
REMARK    5  A    between atoms: O_17  and  C_18
REMARK    6  A    between atoms: C_22  and  N_26
REMARK    7  A    between atoms: C_27  and  C_29
REMARK                            x       y       z     vdW  Elec       q    Type
REMARK                         _______ _______ _______ _____ _____    ______ ____
ROOT
ATOM     17  O   UNL     1      12.161  -7.284  31.949  0.00  0.00    -0.432 OA
ENDROOT
BRANCH  17  18
ATOM     18  C   UNL     1      12.514  -7.031  31.248  0.00  0.00    +0.229 C 
ATOM     19  C   UNL     1      12.158  -6.567  30.666  0.00  0.00    +0.188 C 
ATOM     20  O   UNL     1      12.709  -6.448  30.064  0.00  0.00    -0.348 OA
ATOM     21  C   UNL     1      13.404  -6.837  30.273  0.00  0.00    +0.168 C 
ATOM     22  C   UNL     1      14.175  -7.005  30.031  0.00  0.00    +0.155 C 
ATOM     23  C   UNL     1      14.531  -7.470  30.612  0.00  0.00    +0.166 C 
ATOM     24  O   UNL     1      13.980  -7.589  31.214  0.00  0.00    -0.348 OA
ATOM     25  C   UNL     1      13.284  -7.198  31.005  0.00  0.00    +0.186 C 
BRANCH  22  26
ATOM     26  N   UNL     1      14.528  -6.753  29.329  0.00  0.00    -0.197 NA
ATOM     27  C   UNL     1      15.181  -7.156  29.027  0.00  0.00    +0.284 C 
ATOM     28  O   UNL     1      15.482  -7.813  29.426  0.00  0.00    -0.267 OA
BRANCH  27  29
ATOM     29  C   UNL     1      15.534  -6.903  28.325  0.00  0.00    +0.155 A 
ATOM     30  C   UNL     1      16.215  -6.438  28.350  0.00  0.00    +0.123 A 
ATOM     31  N   UNL     1      16.569  -6.185  27.649  0.00  0.00    -0.239 NA
ATOM     32  C   UNL     1      16.240  -6.398  26.922  0.00  0.00    +0.120 A 
ATOM     33  C   UNL     1      15.560  -6.863  26.898  0.00  0.00    +0.120 A 
ATOM     34  N   UNL     1      15.206  -7.117  27.599  0.00  0.00    -0.236 NA
ENDBRANCH  27  29
ENDBRANCH  22  26
ENDBRANCH  17  18
BRANCH  17   2
ATOM      1  O   UNL     1      10.863  -7.341  31.352  0.00  0.00    -0.224 OA
ATOM      2  C   UNL     1      11.391  -7.581  31.941  0.00  0.00    +0.425 C 
ATOM      3  N   UNL     1      11.148  -8.117  32.519  0.00  0.00    -0.142 NA
BRANCH   3   4
ATOM      4  C   UNL     1      10.379  -8.414  32.510  0.00  0.00    +0.077 A 
ATOM      5  C   UNL     1      10.217  -9.132  32.138  0.00  0.00    +0.020 A 
ATOM      6  C   UNL     1       9.448  -9.429  32.129  0.00  0.00    +0.039 A 
ATOM      7  C   UNL     1       8.839  -9.007  32.493  0.00  0.00    +0.145 A 
ATOM     15  C   UNL     1       9.000  -8.288  32.865  0.00  0.00    +0.039 A 
ATOM     16  C   UNL     1       9.770  -7.992  32.873  0.00  0.00    +0.020 A 
BRANCH   7   8
ATOM      8  O   UNL     1       8.069  -9.303  32.484  0.00  0.00    -0.453 OA
BRANCH   8   9
ATOM      9  C   UNL     1       7.562  -9.119  31.860  0.00  0.00    +0.145 A 
ATOM     10  C   UNL     1       7.114  -8.426  31.884  0.00  0.00    +0.037 A 
ATOM     11  C   UNL     1       6.607  -8.242  31.260  0.00  0.00    +0.003 A 
ATOM     12  C   UNL     1       6.549  -8.749  30.612  0.00  0.00    +0.000 A 
ATOM     13  C   UNL     1       6.997  -9.442  30.588  0.00  0.00    +0.003 A 
ATOM     14  C   UNL     1       7.504  -9.626  31.213  0.00  0.00    +0.037 A 
ENDBRANCH   8   9
ENDBRANCH   7   8
ENDBRANCH   3   4
ENDBRANCH  17   2
TORSDOF 7
ENDMDL
MODEL 4
REMARK VINA RESULT:      -6.3     14.763     17.541
REMARK  Name = 
REMARK  7 active torsions:
REMARK  status: ('A' for Active; 'I' for Inactive)
REMARK    1  A    between atoms: C_2  and  O_17
REMARK    2  A    between atoms: N_3  and  C_4
REMARK    3  A    between atoms: C_7  and  O_8
REMARK    4  A    between atoms: O_8  and  C_9
REMARK    5  A    between atoms: O_17  and  C_18
REMARK    6  A    between atoms: C_22  and  N_26
REMARK    7  A    between atoms: C_27  and  C_29
REMARK                            x       y       z     vdW  Elec       q    Type
REMARK                         _______ _______ _______ _____ _____    ______ ____
ROOT
ATOM     17  O   UNL     1      12.314  -7.833  31.616  0.00  0.00    -0.432 OA
ENDROOT
BRANCH  17  18
ATOM     18  C   UNL     1      12.590  -7.069  31.469  0.00  0.00    +0.229 C 
ATOM     19  C   UNL     1      12.218  -6.500  31.002  0.00  0.00    +0.188 C 
ATOM     20  O   UNL     1      12.685  -5.821  31.009  0.00  0.00    -0.348 OA
ATOM     21  C   UNL     1      13.346  -5.969  31.479  0.00  0.00    +0.168 C 
ATOM     22  C   UNL     1      14.043  -5.642  31.774  0.00  0.00    +0.155 C 
ATOM     23  C   UNL     1      14.416  -6.210  32.240  0.00  0.00    +0.166 C 
ATOM     24  O   UNL     1      13.948  -6.890  32.234  0.00  0.00    -0.348 OA
ATOM     25  C   UNL     1      13.287  -6.741  31.763  0.00  0.00    +0.186 C 
BRANCH  22  26
ATOM     26  N   UNL     1      14.320  -4.878  31.627  0.00  0.00    -0.197 NA
ATOM     27  C   UNL     1      15.127  -4.716  31.673  0.00  0.00    +0.284 C 
ATOM     28  O   UNL     1      15.659  -5.316  31.865  0.00  0.00    -0.267 OA
BRANCH  27  29
ATOM     29  C   UNL     1      15.404  -3.952  31.526  0.00  0.00    +0.155 A 
ATOM     30  C   UNL     1      15.367  -3.379  32.119  0.00  0.00    +0.123 A 
ATOM     31  N   UNL     1      15.643  -2.615  31.973  0.00  0.00    -0.239 NA
ATOM     32  C   UNL     1      15.957  -2.426  31.233  0.00  0.00    +0.120 A 
ATOM     33  C   UNL     1      15.994  -2.999  30.642  0.00  0.00    +0.120 A 
ATOM     34  N   UNL     1      15.717  -3.762  30.787  0.00  0.00    -0.236 NA
ENDBRANCH  27  29
ENDBRANCH  22  26
ENDBRANCH  17  18
BRANCH  17   2
ATOM      1  O   UNL     1      10.994  -7.748  31.073  0.00  0.00    -0.224 OA
ATOM      2  C   UNL     1      11.503  -7.973  31.683  0.00  0.00    +0.425 C 
ATOM      3  N   UNL     1      11.202  -8.337  32.359  0.00  0.00    -0.142 NA
BRANCH   3   4
ATOM      4  C   UNL     1      10.391  -8.476  32.426  0.00  0.00    +0.077 A 
ATOM      5  C   UNL     1       9.900  -7.906  32.762  0.00  0.00    +0.020 A 
ATOM      6  C   UNL     1       9.090  -8.046  32.829  0.00  0.00    +0.039 A 
ATOM      7  C   UNL     1       8.771  -8.757  32.560  0.00  0.00    +0.145 A 
ATOM     15  C   UNL     1       9.262  -9.329  32.223  0.00  0.00    +0.039 A 
ATOM     16  C   UNL     1      10.072  -9.188  32.157  0.00  0.00    +0.020 A 
BRANCH   7   8
ATOM      8  O   UNL     1       7.961  -8.898  32.626  0.00  0.00    -0.453 OA
BRANCH   8   9
ATOM      9  C   UNL     1       7.481  -8.878  31.955  0.00  0.00    +0.145 A 
ATOM     10  C   UNL     1       7.103  -8.177  31.740  0.00  0.00    +0.037 A 
ATOM     11  C   UNL     1       6.623  -8.157  31.069  0.00  0.00    +0.003 A 
ATOM     12  C   UNL     1       6.523  -8.837  30.613  0.00  0.00    +0.000 A 
ATOM     13  C   UNL     1       6.901  -9.538  30.828  0.00  0.00    +0.003 A 
ATOM     14  C   UNL     1       7.381  -9.558  31.500  0.00  0.00    +0.037 A 
ENDBRANCH   8   9
ENDBRANCH   7   8
ENDBRANCH   3   4
ENDBRANCH  17   2
TORSDOF 7
ENDMDL
MODEL 5
REMARK VINA RESULT:      -5.5     14.492     16.720
REMARK  Name = 
REMARK  7 active torsions:
REMARK  status: ('A' for Active; 'I' for Inactive)
REMARK    1  A    between atoms: C_2  and  O_17
REMARK    2  A    between atoms: N_3  and  C_4
REMARK    3  A    between atoms: C_7  and  O_8
REMARK    4  A    between atoms: O_8  and  C_9
REMARK    5  A    between atoms: O_17  and  C_18
REMARK    6  A    between atoms: C_22  and  N_26
REMARK    7  A    between atoms: C_27  and  C_29
REMARK                            x       y       z     vdW  Elec       q    Type
REMARK                         _______ _______ _______ _____ _____    ______ ____
ROOT
ATOM     17  O   UNL     1      12.679  -7.875  32.045  0.00  0.00    -0.432 OA
ENDROOT
BRANCH  17  18
ATOM     18  C   UNL     1      11.877  -7.689  32.103  0.00  0.00    +0.229 C 
ATOM     19  C   UNL     1      11.558  -6.932  32.170  0.00  0.00    +0.188 C 
ATOM     20  O   UNL     1      10.738  -7.004  32.213  0.00  0.00    -0.348 OA
ATOM     21  C   UNL     1      10.549  -7.805  32.172  0.00  0.00    +0.168 C 
ATOM     22  C   UNL     1       9.926  -8.346  32.173  0.00  0.00    +0.155 C 
ATOM     23  C   UNL     1      10.245  -9.103  32.106  0.00  0.00    +0.166 C 
ATOM     24  O   UNL     1      11.065  -9.031  32.063  0.00  0.00    -0.348 OA
ATOM     25  C   UNL     1      11.253  -8.229  32.104  0.00  0.00    +0.186 C 
BRANCH  22  26
ATOM     26  N   UNL     1       9.124  -8.160  32.231  0.00  0.00    -0.197 NA
ATOM     27  C   UNL     1       8.555  -8.724  32.032  0.00  0.00    +0.284 C 
ATOM     28  O   UNL     1       8.787  -9.473  31.776  0.00  0.00    -0.267 OA
BRANCH  27  29
ATOM     29  C   UNL     1       7.753  -8.538  32.090  0.00  0.00    +0.155 A 
ATOM     30  C   UNL     1       7.364  -8.608  32.815  0.00  0.00    +0.123 A 
ATOM     31  N   UNL     1       6.562  -8.423  32.873  0.00  0.00    -0.239 NA
ATOM     32  C   UNL     1       6.149  -8.168  32.206  0.00  0.00    +0.120 A 
ATOM     33  C   UNL     1       6.538  -8.098  31.482  0.00  0.00    +0.120 A 
ATOM     34  N   UNL     1       7.340  -8.283  31.423  0.00  0.00    -0.236 NA
ENDBRANCH  27  29
ENDBRANCH  22  26
ENDBRANCH  17  18
BRANCH  17   2
ATOM      1  O   UNL     1      13.262  -6.621  32.407  0.00  0.00    -0.224 OA
ATOM      2  C   UNL     1      13.232  -7.278  31.907  0.00  0.00    +0.425 C 
ATOM      3  N   UNL     1      13.754  -7.337  31.272  0.00  0.00    -0.142 NA
BRANCH   3   4
ATOM      4  C   UNL     1      14.307  -6.740  31.134  0.00  0.00    +0.077 A 
ATOM      5  C   UNL     1      14.131  -6.128  30.611  0.00  0.00    +0.020 A 
ATOM      6  C   UNL     1      14.684  -5.531  30.474  0.00  0.00    +0.039 A 
ATOM      7  C   UNL     1      15.413  -5.547  30.859  0.00  0.00    +0.145 A 
ATOM     15  C   UNL     1      15.589  -6.161  31.383  0.00  0.00    +0.039 A 
ATOM     16  C   UNL     1      15.036  -6.757  31.520  0.00  0.00    +0.020 A 
BRANCH   7   8
ATOM      8  O   UNL     1      15.966  -4.951  30.722  0.00  0.00    -0.453 OA
BRANCH   8   9
ATOM      9  C   UNL     1      15.992  -4.290  31.216  0.00  0.00    +0.145 A 
ATOM     10  C   UNL     1      15.543  -3.622  31.034  0.00  0.00    +0.037 A 
ATOM     11  C   UNL     1      15.569  -2.962  31.527  0.00  0.00    +0.003 A 
ATOM     12  C   UNL     1      16.044  -2.969  32.202  0.00  0.00    +0.000 A 
ATOM     13  C   UNL     1      16.493  -3.637  32.384  0.00  0.00    +0.003 A 
ATOM     14  C   UNL     1      16.466  -4.298  31.890  0.00  0.00    +0.037 A 
ENDBRANCH   8   9
ENDBRANCH   7   8
ENDBRANCH   3   4
ENDBRANCH  17   2
TORSDOF 7
ENDMDL
MODEL 6
REMARK VINA RESULT:      -5.5     14.260     16.435
REMARK  Name = 
REMARK  7 active torsions:
REMARK  status: ('A' for Active; 'I' for Inactive)
REMARK    1  A    between atoms: C_2  and  O_17
REMARK    2  A    between atoms: N_3  and  C_4
REMARK    3  A    between atoms: C_7  and  O_8
REMARK    4  A    between atoms: O_8  and  C_9
REMARK    5  A    between atoms: O_17  and  C_18
REMARK    6  A    between atoms: C_22  and  N_26
REMARK    7  A    between atoms: C_27  and  C_29
REMARK                            x       y       z     vdW  Elec       q    Type
REMARK                         _______ _______ _______ _____ _____    ______ ____
ROOT
ATOM     17  O   UNL     1      12.330  -7.936  32.298  0.00  0.00    -0.432 OA
ENDROOT
BRANCH  17  18
ATOM     18  C   UNL     1      11.530  -7.742  32.357  0.00  0.00    +0.229 C 
ATOM     19  C   UNL     1      11.223  -6.991  32.502  0.00  0.00    +0.188 C 
ATOM     20  O   UNL     1      10.400  -7.050  32.516  0.00  0.00    -0.348 OA
ATOM     21  C   UNL     1      10.199  -7.838  32.381  0.00  0.00    +0.168 C 
ATOM     22  C   UNL     1       9.567  -8.363  32.305  0.00  0.00    +0.155 C 
ATOM     23  C   UNL     1       9.874  -9.115  32.161  0.00  0.00    +0.166 C 
ATOM     24  O   UNL     1      10.697  -9.055  32.146  0.00  0.00    -0.348 OA
ATOM     25  C   UNL     1      10.898  -8.266  32.282  0.00  0.00    +0.186 C 
BRANCH  22  26
ATOM     26  N   UNL     1       8.767  -8.170  32.365  0.00  0.00    -0.197 NA
ATOM     27  C   UNL     1       8.195  -8.680  32.060  0.00  0.00    +0.284 C 
ATOM     28  O   UNL     1       8.423  -9.384  31.696  0.00  0.00    -0.267 OA
BRANCH  27  29
ATOM     29  C   UNL     1       7.395  -8.487  32.119  0.00  0.00    +0.155 A 
ATOM     30  C   UNL     1       6.981  -8.652  32.813  0.00  0.00    +0.123 A 
ATOM     31  N   UNL     1       6.181  -8.459  32.873  0.00  0.00    -0.239 NA
ATOM     32  C   UNL     1       5.796  -8.099  32.238  0.00  0.00    +0.120 A 
ATOM     33  C   UNL     1       6.210  -7.934  31.544  0.00  0.00    +0.120 A 
ATOM     34  N   UNL     1       7.010  -8.128  31.484  0.00  0.00    -0.236 NA
ENDBRANCH  27  29
ENDBRANCH  22  26
ENDBRANCH  17  18
BRANCH  17   2
ATOM      1  O   UNL     1      12.880  -6.664  31.947  0.00  0.00    -0.224 OA
ATOM      2  C   UNL     1      12.831  -7.480  31.827  0.00  0.00    +0.425 C 
ATOM      3  N   UNL     1      13.283  -7.838  31.238  0.00  0.00    -0.142 NA
BRANCH   3   4
ATOM      4  C   UNL     1      13.784  -7.382  30.767  0.00  0.00    +0.077 A 
ATOM      5  C   UNL     1      13.519  -7.090  30.043  0.00  0.00    +0.020 A 
ATOM      6  C   UNL     1      14.020  -6.634  29.572  0.00  0.00    +0.039 A 
ATOM      7  C   UNL     1      14.788  -6.470  29.827  0.00  0.00    +0.145 A 
ATOM     15  C   UNL     1      15.054  -6.761  30.551  0.00  0.00    +0.039 A 
ATOM     16  C   UNL     1      14.552  -7.217  31.021  0.00  0.00    +0.020 A 
BRANCH   7   8
ATOM      8  O   UNL     1      15.290  -6.014  29.357  0.00  0.00    -0.453 OA
BRANCH   8   9
ATOM      9  C   UNL     1      15.747  -6.373  28.772  0.00  0.00    +0.145 A 
ATOM     10  C   UNL     1      15.421  -6.526  28.029  0.00  0.00    +0.037 A 
ATOM     11  C   UNL     1      15.878  -6.886  27.444  0.00  0.00    +0.003 A 
ATOM     12  C   UNL     1      16.662  -7.092  27.602  0.00  0.00    +0.000 A 
ATOM     13  C   UNL     1      16.988  -6.939  28.344  0.00  0.00    +0.003 A 
ATOM     14  C   UNL     1      16.529  -6.580  28.929  0.00  0.00    +0.037 A 
ENDBRANCH   8   9
ENDBRANCH   7   8
ENDBRANCH   3   4
ENDBRANCH  17   2
TORSDOF 7
ENDMDL
