MODEL 1
REMARK VINA RESULT:     -10.5      0.000      0.000
REMARK  Name = 
REMARK  6 active torsions:
REMARK  status: ('A' for Active; 'I' for Inactive)
REMARK    1  A    between atoms: C_2  and  C_5
REMARK    2  A    between atoms: C_9  and  N_10
REMARK    3  A    between atoms: C_11  and  O_13
REMARK    4  A    between atoms: O_13  and  C_14
REMARK    5  A    between atoms: C_18  and  N_22
REMARK    6  A    between atoms: C_25  and  C_29
REMARK                            x       y       z     vdW  Elec       q    Type
REMARK                         _______ _______ _______ _____ _____    ______ ____
ROOT
ATOM     14  C   UNL     1       0.513   0.486  23.494  0.00  0.00    +0.229 C 
ATOM     15  C   UNL     1       0.468   1.309  23.484  0.00  0.00    +0.188 C 
ATOM     16  O   UNL     1      -0.224   1.532  23.873  0.00  0.00    -0.348 OA
ATOM     17  C   UNL     1      -0.607   0.847  24.125  0.00  0.00    +0.168 C 
ATOM     18  C   UNL     1      -1.271   0.559  24.521  0.00  0.00    +0.155 C 
ATOM     19  C   UNL     1      -1.226  -0.264  24.532  0.00  0.00    +0.166 C 
ATOM     20  O   UNL     1      -0.534  -0.486  24.142  0.00  0.00    -0.348 OA
ATOM     21  C   UNL     1      -0.151   0.200  23.890  0.00  0.00    +0.186 C 
ENDROOT
BRANCH  18  22
ATOM     22  N   UNL     1      -1.874   1.017  24.850  0.00  0.00    -0.200 NA
ATOM     23  C   UNL     1      -2.659   0.884  24.630  0.00  0.00    +0.237 A 
ATOM     24  N   UNL     1      -3.262   1.341  24.958  0.00  0.00    -0.212 NA
ATOM     25  C   UNL     1      -4.046   1.208  24.739  0.00  0.00    +0.092 A 
ATOM     26  C   UNL     1      -4.227   0.618  24.191  0.00  0.00    +0.040 A 
ATOM     27  C   UNL     1      -3.623   0.161  23.863  0.00  0.00    +0.103 A 
ATOM     28  N   UNL     1      -2.840   0.294  24.083  0.00  0.00    -0.211 NA
BRANCH  25  29
ATOM     29  C   UNL     1      -4.649   1.665  25.067  0.00  0.00    +0.047 A 
ATOM     30  C   UNL     1      -5.330   1.377  25.435  0.00  0.00    +0.009 A 
ATOM     31  C   UNL     1      -5.779   2.024  25.680  0.00  0.00    +0.008 A 
ATOM     32  C   UNL     1      -5.377   2.711  25.464  0.00  0.00    +0.035 A 
ATOM     33  S   UNL     1      -4.679   2.488  25.085  0.00  0.00    -0.085 S 
ENDBRANCH  25  29
ENDBRANCH  18  22
BRANCH  14  13
ATOM     13  O   UNL     1       1.116   0.029  23.166  0.00  0.00    -0.432 OA
BRANCH  13  11
ATOM     10  N   UNL     1       2.504  -0.177  22.896  0.00  0.00    -0.142 NA
ATOM     11  C   UNL     1       1.897   0.296  23.190  0.00  0.00    +0.425 C 
ATOM     12  O   UNL     1       2.068   1.038  23.509  0.00  0.00    -0.224 OA
BRANCH  10   9
ATOM      5  C   UNL     1       4.601   0.018  23.470  0.00  0.00    +0.073 A 
ATOM      6  C   UNL     1       4.845   0.625  22.968  0.00  0.00    +0.004 A 
ATOM      7  C   UNL     1       4.308   0.965  22.441  0.00  0.00    +0.001 A 
ATOM      8  C   UNL     1       3.528   0.697  22.417  0.00  0.00    +0.017 A 
ATOM      9  C   UNL     1       3.285   0.090  22.920  0.00  0.00    +0.077 A 
ATOM     34  C   UNL     1       3.821  -0.250  23.446  0.00  0.00    +0.021 A 
BRANCH   5   2
ATOM      1  F   UNL     1       5.675  -0.662  24.523  0.00  0.00    -0.166 F 
ATOM      2  C   UNL     1       5.138  -0.322  23.996  0.00  0.00    +0.419 C 
ATOM      3  F   UNL     1       4.993  -1.063  23.666  0.00  0.00    -0.166 F 
ATOM      4  F   UNL     1       5.284   0.419  24.328  0.00  0.00    -0.166 F 
ENDBRANCH   5   2
ENDBRANCH  10   9
ENDBRANCH  13  11
ENDBRANCH  14  13
TORSDOF 6
ENDMDL
MODEL 2
REMARK VINA RESULT:     -10.2      4.036      7.597
REMARK  Name = 
REMARK  6 active torsions:
REMARK  status: ('A' for Active; 'I' for Inactive)
REMARK    1  A    between atoms: C_2  and  C_5
REMARK    2  A    between atoms: C_9  and  N_10
REMARK    3  A    between atoms: C_11  and  O_13
REMARK    4  A    between atoms: O_13  and  C_14
REMARK    5  A    between atoms: C_18  and  N_22
REMARK    6  A    between atoms: C_25  and  C_29
REMARK                            x       y       z     vdW  Elec       q    Type
REMARK                         _______ _______ _______ _____ _____    ______ ____
ROOT
ATOM     14  C   UNL     1      -1.900   1.556  23.806  0.00  0.00    +0.229 C 
ATOM     15  C   UNL     1      -1.521   2.289  23.833  0.00  0.00    +0.188 C 
ATOM     16  O   UNL     1      -0.708   2.154  23.869  0.00  0.00    -0.348 OA
ATOM     17  C   UNL     1      -0.584   1.339  23.865  0.00  0.00    +0.168 C 
ATOM     18  C   UNL     1      -0.006   0.751  23.885  0.00  0.00    +0.155 C 
ATOM     19  C   UNL     1      -0.384   0.018  23.859  0.00  0.00    +0.166 C 
ATOM     20  O   UNL     1      -1.197   0.153  23.822  0.00  0.00    -0.348 OA
ATOM     21  C   UNL     1      -1.321   0.969  23.826  0.00  0.00    +0.186 C 
ENDROOT
BRANCH  18  22
ATOM     22  N   UNL     1       0.809   0.874  23.925  0.00  0.00    -0.200 NA
ATOM     23  C   UNL     1       1.308   0.525  23.367  0.00  0.00    +0.237 A 
ATOM     24  N   UNL     1       2.122   0.648  23.407  0.00  0.00    -0.212 NA
ATOM     25  C   UNL     1       2.620   0.300  22.849  0.00  0.00    +0.092 A 
ATOM     26  C   UNL     1       2.303  -0.173  22.252  0.00  0.00    +0.040 A 
ATOM     27  C   UNL     1       1.488  -0.296  22.212  0.00  0.00    +0.103 A 
ATOM     28  N   UNL     1       0.991   0.053  22.770  0.00  0.00    -0.211 NA
BRANCH  25  29
ATOM     29  C   UNL     1       3.434   0.423  22.889  0.00  0.00    +0.047 A 
ATOM     30  C   UNL     1       3.832   1.111  22.666  0.00  0.00    +0.009 A 
ATOM     31  C   UNL     1       4.638   0.993  22.797  0.00  0.00    +0.008 A 
ATOM     32  C   UNL     1       4.738   0.233  23.101  0.00  0.00    +0.035 A 
ATOM     33  S   UNL     1       3.994  -0.119  23.158  0.00  0.00    -0.085 S 
ENDBRANCH  25  29
ENDBRANCH  18  22
BRANCH  14  13
ATOM     13  O   UNL     1      -2.715   1.433  23.766  0.00  0.00    -0.432 OA
BRANCH  13  11
ATOM     10  N   UNL     1      -3.961   2.079  24.031  0.00  0.00    -0.142 NA
ATOM     11  C   UNL     1      -3.218   1.829  24.286  0.00  0.00    +0.425 C 
ATOM     12  O   UNL     1      -2.977   1.974  25.062  0.00  0.00    -0.224 OA
BRANCH  10   9
ATOM      5  C   UNL     1      -5.566   2.460  25.461  0.00  0.00    +0.073 A 
ATOM      6  C   UNL     1      -5.471   3.269  25.590  0.00  0.00    +0.004 A 
ATOM      7  C   UNL     1      -4.872   3.682  25.200  0.00  0.00    +0.001 A 
ATOM      8  C   UNL     1      -4.369   3.285  24.680  0.00  0.00    +0.017 A 
ATOM      9  C   UNL     1      -4.464   2.476  24.551  0.00  0.00    +0.077 A 
ATOM     34  C   UNL     1      -5.062   2.064  24.941  0.00  0.00    +0.021 A 
BRANCH   5   2
ATOM      1  F   UNL     1      -6.762   1.635  26.242  0.00  0.00    -0.166 F 
ATOM      2  C   UNL     1      -6.164   2.048  25.851  0.00  0.00    +0.419 C 
ATOM      3  F   UNL     1      -5.786   2.182  26.572  0.00  0.00    -0.166 F 
ATOM      4  F   UNL     1      -6.543   1.913  25.131  0.00  0.00    -0.166 F 
ENDBRANCH   5   2
ENDBRANCH  10   9
ENDBRANCH  13  11
ENDBRANCH  14  13
TORSDOF 6
ENDMDL
MODEL 3
REMARK VINA RESULT:      -9.9      4.028      7.346
REMARK  Name = 
REMARK  6 active torsions:
REMARK  status: ('A' for Active; 'I' for Inactive)
REMARK    1  A    between atoms: C_2  and  C_5
REMARK    2  A    between atoms: C_9  and  N_10
REMARK    3  A    between atoms: C_11  and  O_13
REMARK    4  A    between atoms: O_13  and  C_14
REMARK    5  A    between atoms: C_18  and  N_22
REMARK    6  A    between atoms: C_25  and  C_29
REMARK                            x       y       z     vdW  Elec       q    Type
REMARK                         _______ _______ _______ _____ _____    ______ ____
ROOT
ATOM     14  C   UNL     1      -1.596   3.759  25.469  0.00  0.00    +0.229 C 
ATOM     15  C   UNL     1      -1.334   4.156  24.795  0.00  0.00    +0.188 C 
ATOM     16  O   UNL     1      -0.687   3.744  24.492  0.00  0.00    -0.348 OA
ATOM     17  C   UNL     1      -0.548   3.093  24.978  0.00  0.00    +0.168 C 
ATOM     18  C   UNL     1      -0.063   2.435  25.093  0.00  0.00    +0.155 C 
ATOM     19  C   UNL     1      -0.325   2.038  25.767  0.00  0.00    +0.166 C 
ATOM     20  O   UNL     1      -0.972   2.450  26.069  0.00  0.00    -0.348 OA
ATOM     21  C   UNL     1      -1.110   3.102  25.582  0.00  0.00    +0.186 C 
ENDROOT
BRANCH  18  22
ATOM     22  N   UNL     1       0.573   2.214  24.616  0.00  0.00    -0.200 NA
ATOM     23  C   UNL     1       0.559   1.490  24.219  0.00  0.00    +0.237 A 
ATOM     24  N   UNL     1       1.194   1.269  23.742  0.00  0.00    -0.212 NA
ATOM     25  C   UNL     1       1.181   0.545  23.346  0.00  0.00    +0.092 A 
ATOM     26  C   UNL     1       0.531   0.043  23.426  0.00  0.00    +0.040 A 
ATOM     27  C   UNL     1      -0.105   0.265  23.903  0.00  0.00    +0.103 A 
ATOM     28  N   UNL     1      -0.091   0.988  24.299  0.00  0.00    -0.211 NA
BRANCH  25  29
ATOM     29  C   UNL     1       1.816   0.324  22.869  0.00  0.00    +0.047 A 
ATOM     30  C   UNL     1       2.605   0.535  22.984  0.00  0.00    +0.009 A 
ATOM     31  C   UNL     1       3.051   0.194  22.380  0.00  0.00    +0.008 A 
ATOM     32  C   UNL     1       2.538  -0.228  21.892  0.00  0.00    +0.035 A 
ATOM     33  S   UNL     1       1.774  -0.148  22.194  0.00  0.00    -0.085 S 
ENDBRANCH  25  29
ENDBRANCH  18  22
BRANCH  14  13
ATOM     13  O   UNL     1      -2.232   3.980  25.946  0.00  0.00    -0.432 OA
BRANCH  13  11
ATOM     10  N   UNL     1      -3.557   3.470  26.105  0.00  0.00    -0.142 NA
ATOM     11  C   UNL     1      -3.004   3.898  25.668  0.00  0.00    +0.425 C 
ATOM     12  O   UNL     1      -3.224   4.245  24.952  0.00  0.00    -0.224 OA
BRANCH  10   9
ATOM      5  C   UNL     1      -5.362   2.578  25.262  0.00  0.00    +0.073 A 
ATOM      6  C   UNL     1      -5.875   3.224  25.273  0.00  0.00    +0.004 A 
ATOM      7  C   UNL     1      -5.615   3.952  25.562  0.00  0.00    +0.001 A 
ATOM      8  C   UNL     1      -4.842   4.033  25.839  0.00  0.00    +0.017 A 
ATOM      9  C   UNL     1      -4.329   3.387  25.828  0.00  0.00    +0.077 A 
ATOM     34  C   UNL     1      -4.589   2.660  25.539  0.00  0.00    +0.021 A 
BRANCH   5   2
ATOM      1  F   UNL     1      -5.882   1.122  24.684  0.00  0.00    -0.166 F 
ATOM      2  C   UNL     1      -5.622   1.850  24.973  0.00  0.00    +0.419 C 
ATOM      3  F   UNL     1      -5.380   2.065  24.215  0.00  0.00    -0.166 F 
ATOM      4  F   UNL     1      -5.864   1.635  25.732  0.00  0.00    -0.166 F 
ENDBRANCH   5   2
ENDBRANCH  10   9
ENDBRANCH  13  11
ENDBRANCH  14  13
TORSDOF 6
ENDMDL
MODEL 4
REMARK VINA RESULT:      -9.3      3.840      7.268
REMARK  Name = 
REMARK  6 active torsions:
REMARK  status: ('A' for Active; 'I' for Inactive)
REMARK    1  A    between atoms: C_2  and  C_5
REMARK    2  A    between atoms: C_9  and  N_10
REMARK    3  A    between atoms: C_11  and  O_13
REMARK    4  A    between atoms: O_13  and  C_14
REMARK    5  A    between atoms: C_18  and  N_22
REMARK    6  A    between atoms: C_25  and  C_29
REMARK                            x       y       z     vdW  Elec       q    Type
REMARK                         _______ _______ _______ _____ _____    ______ ____
ROOT
ATOM     14  C   UNL     1      -3.181  -0.740  24.882  0.00  0.00    +0.229 C 
ATOM     15  C   UNL     1      -3.174  -1.052  24.118  0.00  0.00    +0.188 C 
ATOM     16  O   UNL     1      -2.390  -1.098  23.869  0.00  0.00    -0.348 OA
ATOM     17  C   UNL     1      -1.911  -0.814  24.478  0.00  0.00    +0.168 C 
ATOM     18  C   UNL     1      -1.131  -0.667  24.701  0.00  0.00    +0.155 C 
ATOM     19  C   UNL     1      -1.137  -0.355  25.464  0.00  0.00    +0.166 C 
ATOM     20  O   UNL     1      -1.922  -0.309  25.713  0.00  0.00    -0.348 OA
ATOM     21  C   UNL     1      -2.401  -0.593  25.104  0.00  0.00    +0.186 C 
ENDROOT
BRANCH  18  22
ATOM     22  N   UNL     1      -0.460  -0.808  24.240  0.00  0.00    -0.200 NA
ATOM     23  C   UNL     1       0.010  -0.176  23.992  0.00  0.00    +0.237 A 
ATOM     24  N   UNL     1       0.679  -0.317  23.532  0.00  0.00    -0.212 NA
ATOM     25  C   UNL     1       1.149   0.314  23.283  0.00  0.00    +0.092 A 
ATOM     26  C   UNL     1       0.949   1.086  23.496  0.00  0.00    +0.040 A 
ATOM     27  C   UNL     1       0.278   1.227  23.956  0.00  0.00    +0.103 A 
ATOM     28  N   UNL     1      -0.191   0.595  24.204  0.00  0.00    -0.211 NA
BRANCH  25  29
ATOM     29  C   UNL     1       1.819   0.174  22.823  0.00  0.00    +0.047 A 
ATOM     30  C   UNL     1       1.830  -0.177  22.077  0.00  0.00    +0.009 A 
ATOM     31  C   UNL     1       2.613  -0.208  21.821  0.00  0.00    +0.008 A 
ATOM     32  C   UNL     1       3.086   0.125  22.408  0.00  0.00    +0.035 A 
ATOM     33  S   UNL     1       2.595   0.361  23.028  0.00  0.00    -0.085 S 
ENDBRANCH  25  29
ENDBRANCH  18  22
BRANCH  14  13
ATOM     13  O   UNL     1      -3.851  -0.599  25.342  0.00  0.00    -0.432 OA
BRANCH  13  11
ATOM     10  N   UNL     1      -4.461   0.653  25.661  0.00  0.00    -0.142 NA
ATOM     11  C   UNL     1      -4.365   0.016  25.147  0.00  0.00    +0.425 C 
ATOM     12  O   UNL     1      -4.783  -0.007  24.435  0.00  0.00    -0.224 OA
BRANCH  10   9
ATOM      5  C   UNL     1      -5.194   2.641  25.135  0.00  0.00    +0.073 A 
ATOM      6  C   UNL     1      -6.004   2.498  25.074  0.00  0.00    +0.004 A 
ATOM      7  C   UNL     1      -6.300   1.739  25.209  0.00  0.00    +0.001 A 
ATOM      8  C   UNL     1      -5.785   1.125  25.404  0.00  0.00    +0.017 A 
ATOM      9  C   UNL     1      -4.975   1.268  25.465  0.00  0.00    +0.077 A 
ATOM     34  C   UNL     1      -4.680   2.026  25.331  0.00  0.00    +0.021 A 
BRANCH   5   2
ATOM      1  F   UNL     1      -4.602   4.157  24.865  0.00  0.00    -0.166 F 
ATOM      2  C   UNL     1      -4.898   3.399  25.001  0.00  0.00    +0.419 C 
ATOM      3  F   UNL     1      -4.730   3.195  24.220  0.00  0.00    -0.166 F 
ATOM      4  F   UNL     1      -5.066   3.604  25.782  0.00  0.00    -0.166 F 
ENDBRANCH   5   2
ENDBRANCH  10   9
ENDBRANCH  13  11
ENDBRANCH  14  13
TORSDOF 6
ENDMDL
MODEL 5
REMARK VINA RESULT:      -8.9      4.064      5.398
REMARK  Name = 
REMARK  6 active torsions:
REMARK  status: ('A' for Active; 'I' for Inactive)
REMARK    1  A    between atoms: C_2  and  C_5
REMARK    2  A    between atoms: C_9  and  N_10
REMARK    3  A    between atoms: C_11  and  O_13
REMARK    4  A    between atoms: O_13  and  C_14
REMARK    5  A    between atoms: C_18  and  N_22
REMARK    6  A    between atoms: C_25  and  C_29
REMARK                            x       y       z     vdW  Elec       q    Type
REMARK                         _______ _______ _______ _____ _____    ______ ____
ROOT
ATOM     14  C   UNL     1      -0.024   1.595  24.395  0.00  0.00    +0.229 C 
ATOM     15  C   UNL     1      -0.059   1.306  23.624  0.00  0.00    +0.188 C 
ATOM     16  O   UNL     1      -0.435   0.572  23.644  0.00  0.00    -0.348 OA
ATOM     17  C   UNL     1      -0.633   0.407  24.427  0.00  0.00    +0.168 C 
ATOM     18  C   UNL     1      -0.987  -0.147  24.925  0.00  0.00    +0.155 C 
ATOM     19  C   UNL     1      -0.952   0.142  25.696  0.00  0.00    +0.166 C 
ATOM     20  O   UNL     1      -0.576   0.876  25.676  0.00  0.00    -0.348 OA
ATOM     21  C   UNL     1      -0.378   1.040  24.892  0.00  0.00    +0.186 C 
ENDROOT
BRANCH  18  22
ATOM     22  N   UNL     1      -1.318  -0.866  24.691  0.00  0.00    -0.200 NA
ATOM     23  C   UNL     1      -2.133  -0.983  24.748  0.00  0.00    +0.237 A 
ATOM     24  N   UNL     1      -2.465  -1.701  24.514  0.00  0.00    -0.212 NA
ATOM     25  C   UNL     1      -3.279  -1.818  24.571  0.00  0.00    +0.092 A 
ATOM     26  C   UNL     1      -3.763  -1.216  24.862  0.00  0.00    +0.040 A 
ATOM     27  C   UNL     1      -3.431  -0.497  25.096  0.00  0.00    +0.103 A 
ATOM     28  N   UNL     1      -2.616  -0.381  25.039  0.00  0.00    -0.211 NA
BRANCH  25  29
ATOM     29  C   UNL     1      -3.611  -2.535  24.337  0.00  0.00    +0.047 A 
ATOM     30  C   UNL     1      -4.233  -2.632  23.804  0.00  0.00    +0.009 A 
ATOM     31  C   UNL     1      -4.386  -3.439  23.733  0.00  0.00    +0.008 A 
ATOM     32  C   UNL     1      -3.858  -3.842  24.222  0.00  0.00    +0.035 A 
ATOM     33  S   UNL     1      -3.379  -3.283  24.595  0.00  0.00    -0.085 S 
ENDBRANCH  25  29
ENDBRANCH  18  22
BRANCH  14  13
ATOM     13  O   UNL     1       0.307   2.314  24.629  0.00  0.00    -0.432 OA
BRANCH  13  11
ATOM     10  N   UNL     1      -0.412   3.364  25.278  0.00  0.00    -0.142 NA
ATOM     11  C   UNL     1      -0.138   3.007  24.587  0.00  0.00    +0.425 C 
ATOM     12  O   UNL     1      -0.309   3.342  23.852  0.00  0.00    -0.224 OA
BRANCH  10   9
ATOM      5  C   UNL     1      -2.099   4.744  25.406  0.00  0.00    +0.073 A 
ATOM      6  C   UNL     1      -1.747   5.445  25.151  0.00  0.00    +0.004 A 
ATOM      7  C   UNL     1      -0.949   5.452  24.937  0.00  0.00    +0.001 A 
ATOM      8  C   UNL     1      -0.505   4.759  24.980  0.00  0.00    +0.017 A 
ATOM      9  C   UNL     1      -0.857   4.058  25.236  0.00  0.00    +0.077 A 
ATOM     34  C   UNL     1      -1.653   4.051  25.449  0.00  0.00    +0.021 A 
BRANCH   5   2
ATOM      1  F   UNL     1      -3.692   4.730  25.833  0.00  0.00    -0.166 F 
ATOM      2  C   UNL     1      -2.895   4.737  25.620  0.00  0.00    +0.419 C 
ATOM      3  F   UNL     1      -2.686   4.864  26.407  0.00  0.00    -0.166 F 
ATOM      4  F   UNL     1      -3.106   4.609  24.832  0.00  0.00    -0.166 F 
ENDBRANCH   5   2
ENDBRANCH  10   9
ENDBRANCH  13  11
ENDBRANCH  14  13
TORSDOF 6
ENDMDL
MODEL 6
REMARK VINA RESULT:      -7.3     15.099     17.014
REMARK  Name = 
REMARK  6 active torsions:
REMARK  status: ('A' for Active; 'I' for Inactive)
REMARK    1  A    between atoms: C_2  and  C_5
REMARK    2  A    between atoms: C_9  and  N_10
REMARK    3  A    between atoms: C_11  and  O_13
REMARK    4  A    between atoms: O_13  and  C_14
REMARK    5  A    between atoms: C_18  and  N_22
REMARK    6  A    between atoms: C_25  and  C_29
REMARK                            x       y       z     vdW  Elec       q    Type
REMARK                         _______ _______ _______ _____ _____    ______ ____
ROOT
ATOM     14  C   UNL     1      -6.911 -10.079  15.629  0.00  0.00    +0.229 C 
ATOM     15  C   UNL     1      -6.208  -9.687  15.811  0.00  0.00    +0.188 C 
ATOM     16  O   UNL     1      -5.722  -9.714  15.146  0.00  0.00    -0.348 OA
ATOM     17  C   UNL     1      -6.123 -10.121  14.552  0.00  0.00    +0.168 C 
ATOM     18  C   UNL     1      -6.072 -10.390  13.774  0.00  0.00    +0.155 C 
ATOM     19  C   UNL     1      -6.775 -10.781  13.591  0.00  0.00    +0.166 C 
ATOM     20  O   UNL     1      -7.261 -10.755  14.257  0.00  0.00    -0.348 OA
ATOM     21  C   UNL     1      -6.859 -10.347  14.851  0.00  0.00    +0.186 C 
ENDROOT
BRANCH  18  22
ATOM     22  N   UNL     1      -5.430 -10.285  13.267  0.00  0.00    -0.200 NA
ATOM     23  C   UNL     1      -5.534  -9.908  12.540  0.00  0.00    +0.237 A 
ATOM     24  N   UNL     1      -4.893  -9.804  12.033  0.00  0.00    -0.212 NA
ATOM     25  C   UNL     1      -4.997  -9.426  11.307  0.00  0.00    +0.092 A 
ATOM     26  C   UNL     1      -5.744  -9.154  11.088  0.00  0.00    +0.040 A 
ATOM     27  C   UNL     1      -6.387  -9.259  11.595  0.00  0.00    +0.103 A 
ATOM     28  N   UNL     1      -6.281  -9.636  12.321  0.00  0.00    -0.211 NA
BRANCH  25  29
ATOM     29  C   UNL     1      -4.355  -9.322  10.800  0.00  0.00    +0.047 A 
ATOM     30  C   UNL     1      -3.587  -9.595  10.927  0.00  0.00    +0.009 A 
ATOM     31  C   UNL     1      -3.126  -9.367  10.283  0.00  0.00    +0.008 A 
ATOM     32  C   UNL     1      -3.608  -8.954   9.757  0.00  0.00    +0.035 A 
ATOM     33  S   UNL     1      -4.368  -8.926  10.077  0.00  0.00    -0.085 S 
ENDBRANCH  25  29
ENDBRANCH  18  22
BRANCH  14  13
ATOM     13  O   UNL     1      -7.553 -10.183  16.136  0.00  0.00    -0.432 OA
BRANCH  13  11
ATOM     10  N   UNL     1      -8.811  -9.519  16.270  0.00  0.00    -0.142 NA
ATOM     11  C   UNL     1      -7.995  -9.532  16.384  0.00  0.00    +0.425 C 
ATOM     12  O   UNL     1      -7.618  -8.892  16.744  0.00  0.00    -0.224 OA
BRANCH  10   9
ATOM      5  C   UNL     1      -9.987  -7.681  16.210  0.00  0.00    +0.073 A 
ATOM      6  C   UNL     1     -10.135  -7.564  17.013  0.00  0.00    +0.004 A 
ATOM      7  C   UNL     1      -9.842  -8.099  17.569  0.00  0.00    +0.001 A 
ATOM      8  C   UNL     1      -9.401  -8.750  17.321  0.00  0.00    +0.017 A 
ATOM      9  C   UNL     1      -9.253  -8.867  16.518  0.00  0.00    +0.077 A 
ATOM     34  C   UNL     1      -9.546  -8.333  15.963  0.00  0.00    +0.021 A 
BRANCH   5   2
ATOM      1  F   UNL     1     -10.574  -6.611  15.100  0.00  0.00    -0.166 F 
ATOM      2  C   UNL     1     -10.280  -7.146  15.655  0.00  0.00    +0.419 C 
ATOM      3  F   UNL     1     -10.672  -7.761  15.270  0.00  0.00    -0.166 F 
ATOM      4  F   UNL     1      -9.889  -6.530  16.040  0.00  0.00    -0.166 F 
ENDBRANCH   5   2
ENDBRANCH  10   9
ENDBRANCH  13  11
ENDBRANCH  14  13
TORSDOF 6
ENDMDL
MODEL 7
REMARK VINA RESULT:      -7.1     15.301     16.258
REMARK  Name = 
REMARK  6 active torsions:
REMARK  status: ('A' for Active; 'I' for Inactive)
REMARK    1  A    between atoms: C_2  and  C_5
REMARK    2  A    between atoms: C_9  and  N_10
REMARK    3  A    between atoms: C_11  and  O_13
REMARK    4  A    between atoms: O_13  and  C_14
REMARK    5  A    between atoms: C_18  and  N_22
REMARK    6  A    between atoms: C_25  and  C_29
REMARK                            x       y       z     vdW  Elec       q    Type
REMARK                         _______ _______ _______ _____ _____    ______ ____
ROOT
ATOM     14  C   UNL     1      -6.015 -10.302  12.813  0.00  0.00    +0.229 C 
ATOM     15  C   UNL     1      -5.594  -9.867  13.374  0.00  0.00    +0.188 C 
ATOM     16  O   UNL     1      -6.094  -9.728  14.015  0.00  0.00    -0.348 OA
ATOM     17  C   UNL     1      -6.822 -10.076  13.852  0.00  0.00    +0.168 C 
ATOM     18  C   UNL     1      -7.582 -10.207  14.147  0.00  0.00    +0.155 C 
ATOM     19  C   UNL     1      -8.003 -10.642  13.586  0.00  0.00    +0.166 C 
ATOM     20  O   UNL     1      -7.503 -10.780  12.945  0.00  0.00    -0.348 OA
ATOM     21  C   UNL     1      -6.774 -10.431  13.109  0.00  0.00    +0.186 C 
ENDROOT
BRANCH  18  22
ATOM     22  N   UNL     1      -7.870  -9.947  14.875  0.00  0.00    -0.200 NA
ATOM     23  C   UNL     1      -8.593  -9.552  14.916  0.00  0.00    +0.237 A 
ATOM     24  N   UNL     1      -8.881  -9.292  15.644  0.00  0.00    -0.212 NA
ATOM     25  C   UNL     1      -9.605  -8.898  15.685  0.00  0.00    +0.092 A 
ATOM     26  C   UNL     1     -10.040  -8.763  14.997  0.00  0.00    +0.040 A 
ATOM     27  C   UNL     1      -9.752  -9.022  14.269  0.00  0.00    +0.103 A 
ATOM     28  N   UNL     1      -9.029  -9.417  14.229  0.00  0.00    -0.211 NA
BRANCH  25  29
ATOM     29  C   UNL     1      -9.893  -8.638  16.412  0.00  0.00    +0.047 A 
ATOM     30  C   UNL     1      -9.741  -7.905  16.761  0.00  0.00    +0.009 A 
ATOM     31  C   UNL     1     -10.137  -7.879  17.483  0.00  0.00    +0.008 A 
ATOM     32  C   UNL     1     -10.534  -8.595  17.582  0.00  0.00    +0.035 A 
ATOM     33  S   UNL     1     -10.383  -9.064  16.920  0.00  0.00    -0.085 S 
ENDBRANCH  25  29
ENDBRANCH  18  22
BRANCH  14  13
ATOM     13  O   UNL     1      -5.727 -10.561  12.085  0.00  0.00    -0.432 OA
BRANCH  13  11
ATOM     10  N   UNL     1      -4.537 -10.480  11.298  0.00  0.00    -0.142 NA
ATOM     11  C   UNL     1      -5.169 -10.111  11.677  0.00  0.00    +0.425 C 
ATOM     12  O   UNL     1      -5.244  -9.289  11.649  0.00  0.00    -0.224 OA
BRANCH  10   9
ATOM      5  C   UNL     1      -2.651  -9.518  10.768  0.00  0.00    +0.073 A 
ATOM      6  C   UNL     1      -2.865  -9.128  10.073  0.00  0.00    +0.004 A 
ATOM      7  C   UNL     1      -3.636  -9.188   9.786  0.00  0.00    +0.001 A 
ATOM      8  C   UNL     1      -4.193  -9.639  10.195  0.00  0.00    +0.017 A 
ATOM      9  C   UNL     1      -3.979 -10.029  10.890  0.00  0.00    +0.077 A 
ATOM     34  C   UNL     1      -3.209  -9.969  11.176  0.00  0.00    +0.021 A 
BRANCH   5   2
ATOM      1  F   UNL     1      -1.108  -9.397  11.341  0.00  0.00    -0.166 F 
ATOM      2  C   UNL     1      -1.880  -9.457  11.054  0.00  0.00    +0.419 C 
ATOM      3  F   UNL     1      -2.075  -9.951  11.685  0.00  0.00    -0.166 F 
ATOM      4  F   UNL     1      -1.683  -8.963  10.423  0.00  0.00    -0.166 F 
ENDBRANCH   5   2
ENDBRANCH  10   9
ENDBRANCH  13  11
ENDBRANCH  14  13
TORSDOF 6
ENDMDL
MODEL 8
REMARK VINA RESULT:      -6.6     14.079     14.819
REMARK  Name = 
REMARK  6 active torsions:
REMARK  status: ('A' for Active; 'I' for Inactive)
REMARK    1  A    between atoms: C_2  and  C_5
REMARK    2  A    between atoms: C_9  and  N_10
REMARK    3  A    between atoms: C_11  and  O_13
REMARK    4  A    between atoms: O_13  and  C_14
REMARK    5  A    between atoms: C_18  and  N_22
REMARK    6  A    between atoms: C_25  and  C_29
REMARK                            x       y       z     vdW  Elec       q    Type
REMARK                         _______ _______ _______ _____ _____    ______ ____
ROOT
ATOM     14  C   UNL     1      -2.634 -10.428  13.227  0.00  0.00    +0.229 C 
ATOM     15  C   UNL     1      -2.091 -10.460  13.847  0.00  0.00    +0.188 C 
ATOM     16  O   UNL     1      -2.512 -10.564  14.549  0.00  0.00    -0.348 OA
ATOM     17  C   UNL     1      -3.314 -10.597  14.363  0.00  0.00    +0.168 C 
ATOM     18  C   UNL     1      -4.071 -10.682  14.680  0.00  0.00    +0.155 C 
ATOM     19  C   UNL     1      -4.614 -10.651  14.060  0.00  0.00    +0.166 C 
ATOM     20  O   UNL     1      -4.193 -10.546  13.359  0.00  0.00    -0.348 OA
ATOM     21  C   UNL     1      -3.389 -10.513  13.546  0.00  0.00    +0.186 C 
ENDROOT
BRANCH  18  22
ATOM     22  N   UNL     1      -4.253 -10.781  15.479  0.00  0.00    -0.200 NA
ATOM     23  C   UNL     1      -4.942 -10.452  15.790  0.00  0.00    +0.237 A 
ATOM     24  N   UNL     1      -5.124 -10.550  16.588  0.00  0.00    -0.212 NA
ATOM     25  C   UNL     1      -5.814 -10.221  16.898  0.00  0.00    +0.092 A 
ATOM     26  C   UNL     1      -6.322  -9.792  16.410  0.00  0.00    +0.040 A 
ATOM     27  C   UNL     1      -6.140  -9.693  15.611  0.00  0.00    +0.103 A 
ATOM     28  N   UNL     1      -5.450 -10.023  15.301  0.00  0.00    -0.211 NA
BRANCH  25  29
ATOM     29  C   UNL     1      -5.996 -10.320  17.696  0.00  0.00    +0.047 A 
ATOM     30  C   UNL     1      -5.456 -10.475  18.301  0.00  0.00    +0.009 A 
ATOM     31  C   UNL     1      -5.876 -10.532  19.009  0.00  0.00    +0.008 A 
ATOM     32  C   UNL     1      -6.674 -10.412  18.842  0.00  0.00    +0.035 A 
ATOM     33  S   UNL     1      -6.748 -10.280  18.031  0.00  0.00    -0.085 S 
ENDBRANCH  25  29
ENDBRANCH  18  22
BRANCH  14  13
ATOM     13  O   UNL     1      -2.452 -10.329  12.428  0.00  0.00    -0.432 OA
BRANCH  13  11
ATOM     10  N   UNL     1      -1.655  -9.265  11.905  0.00  0.00    -0.142 NA
ATOM     11  C   UNL     1      -1.716 -10.030  12.206  0.00  0.00    +0.425 C 
ATOM     12  O   UNL     1      -1.040 -10.498  12.286  0.00  0.00    -0.224 OA
BRANCH  10   9
ATOM      5  C   UNL     1       0.186  -8.092  11.923  0.00  0.00    +0.073 A 
ATOM      6  C   UNL     1       0.554  -8.369  11.239  0.00  0.00    +0.004 A 
ATOM      7  C   UNL     1       0.186  -8.944  10.776  0.00  0.00    +0.001 A 
ATOM      8  C   UNL     1      -0.550  -9.243  10.999  0.00  0.00    +0.017 A 
ATOM      9  C   UNL     1      -0.918  -8.966  11.683  0.00  0.00    +0.077 A 
ATOM     34  C   UNL     1      -0.550  -8.391  12.145  0.00  0.00    +0.021 A 
BRANCH   5   2
ATOM      1  F   UNL     1       0.923  -6.940  12.847  0.00  0.00    -0.166 F 
ATOM      2  C   UNL     1       0.554  -7.516  12.385  0.00  0.00    +0.419 C 
ATOM      3  F   UNL     1       0.779  -7.112  11.702  0.00  0.00    -0.166 F 
ATOM      4  F   UNL     1       0.330  -7.920  13.069  0.00  0.00    -0.166 F 
ENDBRANCH   5   2
ENDBRANCH  10   9
ENDBRANCH  13  11
ENDBRANCH  14  13
TORSDOF 6
ENDMDL
