MODEL 1
REMARK VINA RESULT:     -11.7      0.000      0.000
REMARK  Name = 
REMARK  8 active torsions:
REMARK  status: ('A' for Active; 'I' for Inactive)
REMARK    1  A    between atoms: N_2  and  C_3
REMARK    2  A    between atoms: N_2  and  C_25
REMARK    3  A    between atoms: C_3  and  C_4
REMARK    4  A    between atoms: C_6  and  C_7
REMARK    5  A    between atoms: C_7  and  C_8
REMARK    6  A    between atoms: C_13  and  C_14
REMARK    7  A    between atoms: C_14  and  C_15
REMARK    8  A    between atoms: C_25  and  C_26
REMARK                            x       y       z     vdW  Elec       q    Type
REMARK                         _______ _______ _______ _____ _____    ______ ____
ROOT
ATOM      7  C   UNL     1      -3.631   2.983  24.339  0.00  0.00    +0.051 C 
ENDROOT
BRANCH   7   8
ATOM      8  C   UNL     1      -3.298   3.379  24.981  0.00  0.00    +0.024 C 
ATOM      9  C   UNL     1      -3.782   3.771  25.522  0.00  0.00    +0.089 C 
ATOM     10  N   UNL     1      -3.449   4.167  26.164  0.00  0.00    -0.218 NA
ATOM     11  C   UNL     1      -2.630   4.171  26.265  0.00  0.00    +0.089 C 
ATOM     12  C   UNL     1      -2.145   3.780  25.724  0.00  0.00    +0.019 C 
ATOM     13  C   UNL     1      -2.478   3.384  25.083  0.00  0.00    +0.012 C 
BRANCH  13  14
ATOM     14  C   UNL     1      -1.993   2.992  24.541  0.00  0.00    +0.085 C 
BRANCH  14  15
ATOM     15  C   UNL     1      -1.178   3.117  24.553  0.00  0.00    +0.226 C 
ATOM     16  O   UNL     1      -0.877   3.860  24.748  0.00  0.00    -0.275 OA
ATOM     17  N   UNL     1      -0.663   2.498  24.371  0.00  0.00    -0.274 N 
ATOM     18  C   UNL     1       0.152   2.623  24.383  0.00  0.00    +0.125 C 
ATOM     19  C   UNL     1       0.666   2.004  24.200  0.00  0.00    +0.164 C 
ATOM     20  O   UNL     1       0.365   1.261  24.006  0.00  0.00    -0.350 OA
ATOM     21  C   UNL     1      -0.451   1.137  23.994  0.00  0.00    +0.164 C 
ATOM     22  C   UNL     1      -0.965   1.755  24.177  0.00  0.00    +0.125 C 
ENDBRANCH  14  15
ENDBRANCH  13  14
ENDBRANCH   7   8
BRANCH   7   6
ATOM      4  C   UNL     1      -4.752   1.180  24.570  0.00  0.00    +0.170 A 
ATOM      5  C   UNL     1      -4.049   1.574  24.390  0.00  0.00    +0.055 A 
ATOM      6  C   UNL     1      -4.184   2.384  24.467  0.00  0.00    +0.100 A 
ATOM     23  N   UNL     1      -4.970   2.491  24.695  0.00  0.00    -0.082 NA
ATOM     24  O   UNL     1      -5.320   1.747  24.758  0.00  0.00    -0.357 OA
BRANCH   4   3
ATOM      3  C   UNL     1      -4.865   0.363  24.562  0.00  0.00    +0.141 C 
BRANCH   3   2
ATOM      1  C   UNL     1      -4.106  -0.229  25.618  0.00  0.00    +0.090 C 
ATOM      2  N   UNL     1      -4.260  -0.140  24.813  0.00  0.00    -0.261 NA
BRANCH   2  25
ATOM     25  C   UNL     1      -3.810  -0.552  24.258  0.00  0.00    +0.100 C 
BRANCH  25  26
ATOM     26  C   UNL     1      -3.755  -1.374  24.300  0.00  0.00    -0.006 A 
ATOM     27  C   UNL     1      -3.176  -1.724  24.772  0.00  0.00    -0.003 A 
ATOM     28  C   UNL     1      -3.121  -2.547  24.814  0.00  0.00    -0.000 A 
ATOM     29  C   UNL     1      -3.645  -3.018  24.385  0.00  0.00    -0.000 A 
ATOM     30  C   UNL     1      -4.224  -2.667  23.913  0.00  0.00    -0.000 A 
ATOM     31  C   UNL     1      -4.278  -1.845  23.871  0.00  0.00    -0.003 A 
ENDBRANCH  25  26
ENDBRANCH   2  25
ENDBRANCH   3   2
ENDBRANCH   4   3
ENDBRANCH   7   6
TORSDOF 8
ENDMDL
MODEL 2
REMARK VINA RESULT:     -11.5      1.326      3.296
REMARK  Name = 
REMARK  8 active torsions:
REMARK  status: ('A' for Active; 'I' for Inactive)
REMARK    1  A    between atoms: N_2  and  C_3
REMARK    2  A    between atoms: N_2  and  C_25
REMARK    3  A    between atoms: C_3  and  C_4
REMARK    4  A    between atoms: C_6  and  C_7
REMARK    5  A    between atoms: C_7  and  C_8
REMARK    6  A    between atoms: C_13  and  C_14
REMARK    7  A    between atoms: C_14  and  C_15
REMARK    8  A    between atoms: C_25  and  C_26
REMARK                            x       y       z     vdW  Elec       q    Type
REMARK                         _______ _______ _______ _____ _____    ______ ____
ROOT
ATOM      7  C   UNL     1      -1.366   2.249  25.913  0.00  0.00    +0.051 C 
ENDROOT
BRANCH   7   8
ATOM      8  C   UNL     1      -1.275   2.988  25.558  0.00  0.00    +0.024 C 
ATOM      9  C   UNL     1      -0.527   3.243  25.320  0.00  0.00    +0.089 C 
ATOM     10  N   UNL     1      -0.436   3.982  24.965  0.00  0.00    -0.218 NA
ATOM     11  C   UNL     1      -1.094   4.466  24.848  0.00  0.00    +0.089 C 
ATOM     12  C   UNL     1      -1.843   4.211  25.086  0.00  0.00    +0.019 C 
ATOM     13  C   UNL     1      -1.933   3.472  25.441  0.00  0.00    +0.012 C 
BRANCH  13  14
ATOM     14  C   UNL     1      -2.681   3.217  25.678  0.00  0.00    +0.085 C 
BRANCH  14  15
ATOM     15  C   UNL     1      -3.285   3.766  25.795  0.00  0.00    +0.226 C 
ATOM     16  O   UNL     1      -3.107   4.525  26.065  0.00  0.00    -0.275 OA
ATOM     17  N   UNL     1      -4.068   3.556  25.643  0.00  0.00    -0.274 N 
ATOM     18  C   UNL     1      -4.673   4.105  25.760  0.00  0.00    +0.125 C 
ATOM     19  C   UNL     1      -5.456   3.894  25.607  0.00  0.00    +0.164 C 
ATOM     20  O   UNL     1      -5.634   3.136  25.338  0.00  0.00    -0.350 OA
ATOM     21  C   UNL     1      -5.029   2.587  25.221  0.00  0.00    +0.164 C 
ATOM     22  C   UNL     1      -4.246   2.797  25.373  0.00  0.00    +0.125 C 
ENDBRANCH  14  15
ENDBRANCH  13  14
ENDBRANCH   7   8
BRANCH   7   6
ATOM      4  C   UNL     1      -1.234   0.428  24.806  0.00  0.00    +0.170 A 
ATOM      5  C   UNL     1      -1.680   1.025  25.162  0.00  0.00    +0.055 A 
ATOM      6  C   UNL     1      -1.157   1.565  25.500  0.00  0.00    +0.100 A 
ATOM     23  N   UNL     1      -0.389   1.303  25.354  0.00  0.00    -0.082 NA
ATOM     24  O   UNL     1      -0.436   0.601  24.925  0.00  0.00    -0.357 OA
BRANCH   4   3
ATOM      3  C   UNL     1      -1.534  -0.226  24.403  0.00  0.00    +0.141 C 
BRANCH   3   2
ATOM      1  C   UNL     1      -1.228  -1.497  24.980  0.00  0.00    +0.090 C 
ATOM      2  N   UNL     1      -1.771  -0.896  24.822  0.00  0.00    -0.261 NA
BRANCH   2  25
ATOM     25  C   UNL     1      -2.551  -0.966  25.082  0.00  0.00    +0.100 C 
BRANCH  25  26
ATOM     26  C   UNL     1      -3.057  -1.511  24.726  0.00  0.00    -0.006 A 
ATOM     27  C   UNL     1      -3.647  -1.252  24.211  0.00  0.00    -0.003 A 
ATOM     28  C   UNL     1      -4.153  -1.798  23.855  0.00  0.00    -0.000 A 
ATOM     29  C   UNL     1      -4.070  -2.602  24.015  0.00  0.00    -0.000 A 
ATOM     30  C   UNL     1      -3.480  -2.862  24.530  0.00  0.00    -0.000 A 
ATOM     31  C   UNL     1      -2.974  -2.317  24.886  0.00  0.00    -0.003 A 
ENDBRANCH  25  26
ENDBRANCH   2  25
ENDBRANCH   3   2
ENDBRANCH   4   3
ENDBRANCH   7   6
TORSDOF 8
ENDMDL
MODEL 3
REMARK VINA RESULT:     -10.7      1.504      4.428
REMARK  Name = 
REMARK  8 active torsions:
REMARK  status: ('A' for Active; 'I' for Inactive)
REMARK    1  A    between atoms: N_2  and  C_3
REMARK    2  A    between atoms: N_2  and  C_25
REMARK    3  A    between atoms: C_3  and  C_4
REMARK    4  A    between atoms: C_6  and  C_7
REMARK    5  A    between atoms: C_7  and  C_8
REMARK    6  A    between atoms: C_13  and  C_14
REMARK    7  A    between atoms: C_14  and  C_15
REMARK    8  A    between atoms: C_25  and  C_26
REMARK                            x       y       z     vdW  Elec       q    Type
REMARK                         _______ _______ _______ _____ _____    ______ ____
ROOT
ATOM      7  C   UNL     1      -3.616   0.486  24.373  0.00  0.00    +0.051 C 
ENDROOT
BRANCH   7   8
ATOM      8  C   UNL     1      -3.475  -0.123  24.910  0.00  0.00    +0.024 C 
ATOM      9  C   UNL     1      -4.092  -0.418  25.372  0.00  0.00    +0.089 C 
ATOM     10  N   UNL     1      -3.951  -1.027  25.910  0.00  0.00    -0.218 NA
ATOM     11  C   UNL     1      -3.191  -1.342  25.986  0.00  0.00    +0.089 C 
ATOM     12  C   UNL     1      -2.574  -1.047  25.524  0.00  0.00    +0.019 C 
ATOM     13  C   UNL     1      -2.716  -0.438  24.986  0.00  0.00    +0.012 C 
BRANCH  13  14
ATOM     14  C   UNL     1      -2.099  -0.143  24.525  0.00  0.00    +0.085 C 
BRANCH  14  15
ATOM     15  C   UNL     1      -1.452  -0.623  24.346  0.00  0.00    +0.226 C 
ATOM     16  O   UNL     1      -1.507  -1.441  24.438  0.00  0.00    -0.275 OA
ATOM     17  N   UNL     1      -0.750  -0.285  24.075  0.00  0.00    -0.274 N 
ATOM     18  C   UNL     1      -0.103  -0.765  23.896  0.00  0.00    +0.125 C 
ATOM     19  C   UNL     1       0.599  -0.426  23.625  0.00  0.00    +0.164 C 
ATOM     20  O   UNL     1       0.654   0.392  23.533  0.00  0.00    -0.350 OA
ATOM     21  C   UNL     1       0.006   0.871  23.712  0.00  0.00    +0.164 C 
ATOM     22  C   UNL     1      -0.695   0.534  23.983  0.00  0.00    +0.125 C 
ENDBRANCH  14  15
ENDBRANCH  13  14
ENDBRANCH   7   8
BRANCH   7   6
ATOM      4  C   UNL     1      -4.237   2.400  25.087  0.00  0.00    +0.170 A 
ATOM      5  C   UNL     1      -3.643   1.855  24.906  0.00  0.00    +0.055 A 
ATOM      6  C   UNL     1      -4.004   1.172  24.620  0.00  0.00    +0.100 A 
ATOM     23  N   UNL     1      -4.820   1.293  24.623  0.00  0.00    -0.082 NA
ATOM     24  O   UNL     1      -4.963   2.052  24.912  0.00  0.00    -0.357 OA
BRANCH   4   3
ATOM      3  C   UNL     1      -4.122   3.159  25.389  0.00  0.00    +0.141 C 
BRANCH   3   2
ATOM      1  C   UNL     1      -3.396   3.847  24.369  0.00  0.00    +0.090 C 
ATOM      2  N   UNL     1      -3.467   3.603  25.153  0.00  0.00    -0.261 NA
BRANCH   2  25
ATOM     25  C   UNL     1      -2.885   3.803  25.703  0.00  0.00    +0.100 C 
BRANCH  25  26
ATOM     26  C   UNL     1      -2.216   4.219  25.460  0.00  0.00    -0.006 A 
ATOM     27  C   UNL     1      -2.256   5.034  25.345  0.00  0.00    -0.003 A 
ATOM     28  C   UNL     1      -1.585   5.451  25.102  0.00  0.00    -0.000 A 
ATOM     29  C   UNL     1      -0.875   5.050  24.976  0.00  0.00    -0.000 A 
ATOM     30  C   UNL     1      -0.835   4.234  25.092  0.00  0.00    -0.000 A 
ATOM     31  C   UNL     1      -1.505   3.819  25.334  0.00  0.00    -0.003 A 
ENDBRANCH  25  26
ENDBRANCH   2  25
ENDBRANCH   3   2
ENDBRANCH   4   3
ENDBRANCH   7   6
TORSDOF 8
ENDMDL
MODEL 4
REMARK VINA RESULT:     -10.4      1.463      2.416
REMARK  Name = 
REMARK  8 active torsions:
REMARK  status: ('A' for Active; 'I' for Inactive)
REMARK    1  A    between atoms: N_2  and  C_3
REMARK    2  A    between atoms: N_2  and  C_25
REMARK    3  A    between atoms: C_3  and  C_4
REMARK    4  A    between atoms: C_6  and  C_7
REMARK    5  A    between atoms: C_7  and  C_8
REMARK    6  A    between atoms: C_13  and  C_14
REMARK    7  A    between atoms: C_14  and  C_15
REMARK    8  A    between atoms: C_25  and  C_26
REMARK                            x       y       z     vdW  Elec       q    Type
REMARK                         _______ _______ _______ _____ _____    ______ ____
ROOT
ATOM      7  C   UNL     1      -4.272   1.809  24.352  0.00  0.00    +0.051 C 
ENDROOT
BRANCH   7   8
ATOM      8  C   UNL     1      -4.655   2.359  24.833  0.00  0.00    +0.024 C 
ATOM      9  C   UNL     1      -5.439   2.237  25.058  0.00  0.00    +0.089 C 
ATOM     10  N   UNL     1      -5.821   2.787  25.539  0.00  0.00    -0.218 NA
ATOM     11  C   UNL     1      -5.418   3.460  25.796  0.00  0.00    +0.089 C 
ATOM     12  C   UNL     1      -4.634   3.583  25.570  0.00  0.00    +0.019 C 
ATOM     13  C   UNL     1      -4.252   3.033  25.089  0.00  0.00    +0.012 C 
BRANCH  13  14
ATOM     14  C   UNL     1      -3.468   3.155  24.863  0.00  0.00    +0.085 C 
BRANCH  14  15
ATOM     15  C   UNL     1      -3.162   3.921  24.836  0.00  0.00    +0.226 C 
ATOM     16  O   UNL     1      -3.658   4.558  24.669  0.00  0.00    -0.275 OA
ATOM     17  N   UNL     1      -2.359   4.049  24.976  0.00  0.00    -0.274 N 
ATOM     18  C   UNL     1      -2.053   4.815  24.948  0.00  0.00    +0.125 C 
ATOM     19  C   UNL     1      -1.249   4.943  25.088  0.00  0.00    +0.164 C 
ATOM     20  O   UNL     1      -0.753   4.306  25.255  0.00  0.00    -0.350 OA
ATOM     21  C   UNL     1      -1.060   3.540  25.282  0.00  0.00    +0.164 C 
ATOM     22  C   UNL     1      -1.862   3.411  25.143  0.00  0.00    +0.125 C 
ENDBRANCH  14  15
ENDBRANCH  13  14
ENDBRANCH   7   8
BRANCH   7   6
ATOM      4  C   UNL     1      -3.938  -0.193  25.012  0.00  0.00    +0.170 A 
ATOM      5  C   UNL     1      -3.687   0.589  24.925  0.00  0.00    +0.055 A 
ATOM      6  C   UNL     1      -4.289   1.008  24.548  0.00  0.00    +0.100 A 
ATOM     23  N   UNL     1      -4.911   0.486  24.403  0.00  0.00    -0.082 NA
ATOM     24  O   UNL     1      -4.694  -0.256  24.689  0.00  0.00    -0.357 OA
BRANCH   4   3
ATOM      3  C   UNL     1      -3.507  -0.804  25.361  0.00  0.00    +0.141 C 
BRANCH   3   2
ATOM      1  C   UNL     1      -3.554  -2.134  24.839  0.00  0.00    +0.090 C 
ATOM      2  N   UNL     1      -3.181  -1.400  24.891  0.00  0.00    -0.261 NA
BRANCH   2  25
ATOM     25  C   UNL     1      -2.483  -1.261  24.474  0.00  0.00    +0.100 C 
BRANCH  25  26
ATOM     26  C   UNL     1      -1.774  -1.592  24.735  0.00  0.00    -0.006 A 
ATOM     27  C   UNL     1      -1.224  -1.125  25.135  0.00  0.00    -0.003 A 
ATOM     28  C   UNL     1      -0.514  -1.456  25.397  0.00  0.00    -0.000 A 
ATOM     29  C   UNL     1      -0.356  -2.254  25.258  0.00  0.00    -0.000 A 
ATOM     30  C   UNL     1      -0.906  -2.721  24.858  0.00  0.00    -0.000 A 
ATOM     31  C   UNL     1      -1.615  -2.390  24.597  0.00  0.00    -0.003 A 
ENDBRANCH  25  26
ENDBRANCH   2  25
ENDBRANCH   3   2
ENDBRANCH   4   3
ENDBRANCH   7   6
TORSDOF 8
ENDMDL
MODEL 5
REMARK VINA RESULT:     -10.3      1.564      4.510
REMARK  Name = 
REMARK  8 active torsions:
REMARK  status: ('A' for Active; 'I' for Inactive)
REMARK    1  A    between atoms: N_2  and  C_3
REMARK    2  A    between atoms: N_2  and  C_25
REMARK    3  A    between atoms: C_3  and  C_4
REMARK    4  A    between atoms: C_6  and  C_7
REMARK    5  A    between atoms: C_7  and  C_8
REMARK    6  A    between atoms: C_13  and  C_14
REMARK    7  A    between atoms: C_14  and  C_15
REMARK    8  A    between atoms: C_25  and  C_26
REMARK                            x       y       z     vdW  Elec       q    Type
REMARK                         _______ _______ _______ _____ _____    ______ ____
ROOT
ATOM      7  C   UNL     1      -0.906   1.375  25.483  0.00  0.00    +0.051 C 
ENDROOT
BRANCH   7   8
ATOM      8  C   UNL     1      -0.458   1.101  24.847  0.00  0.00    +0.024 C 
ATOM      9  C   UNL     1       0.136   1.574  24.526  0.00  0.00    +0.089 C 
ATOM     10  N   UNL     1       0.584   1.301  23.890  0.00  0.00    -0.218 NA
ATOM     11  C   UNL     1       0.437   0.552  23.575  0.00  0.00    +0.089 C 
ATOM     12  C   UNL     1      -0.157   0.078  23.896  0.00  0.00    +0.019 C 
ATOM     13  C   UNL     1      -0.605   0.352  24.532  0.00  0.00    +0.012 C 
BRANCH  13  14
ATOM     14  C   UNL     1      -1.199  -0.121  24.853  0.00  0.00    +0.085 C 
BRANCH  14  15
ATOM     15  C   UNL     1      -1.181  -0.938  24.740  0.00  0.00    +0.226 C 
ATOM     16  O   UNL     1      -0.460  -1.324  24.627  0.00  0.00    -0.275 OA
ATOM     17  N   UNL     1      -1.884  -1.370  24.739  0.00  0.00    -0.274 N 
ATOM     18  C   UNL     1      -1.866  -2.187  24.625  0.00  0.00    +0.125 C 
ATOM     19  C   UNL     1      -2.570  -2.618  24.624  0.00  0.00    +0.164 C 
ATOM     20  O   UNL     1      -3.290  -2.233  24.737  0.00  0.00    -0.350 OA
ATOM     21  C   UNL     1      -3.307  -1.416  24.850  0.00  0.00    +0.164 C 
ATOM     22  C   UNL     1      -2.605  -0.984  24.851  0.00  0.00    +0.125 C 
ENDBRANCH  14  15
ENDBRANCH  13  14
ENDBRANCH   7   8
BRANCH   7   6
ATOM      4  C   UNL     1      -1.897   3.251  25.248  0.00  0.00    +0.170 A 
ATOM      5  C   UNL     1      -1.830   2.446  25.081  0.00  0.00    +0.055 A 
ATOM      6  C   UNL     1      -1.176   2.155  25.491  0.00  0.00    +0.100 A 
ATOM     23  N   UNL     1      -0.839   2.780  25.910  0.00  0.00    -0.082 NA
ATOM     24  O   UNL     1      -1.285   3.458  25.760  0.00  0.00    -0.357 OA
BRANCH   4   3
ATOM      3  C   UNL     1      -2.476   3.761  24.953  0.00  0.00    +0.141 C 
BRANCH   3   2
ATOM      1  C   UNL     1      -3.374   3.738  26.064  0.00  0.00    +0.090 C 
ATOM      2  N   UNL     1      -3.245   3.727  25.250  0.00  0.00    -0.261 NA
BRANCH   2  25
ATOM     25  C   UNL     1      -3.886   3.683  24.731  0.00  0.00    +0.100 C 
BRANCH  25  26
ATOM     26  C   UNL     1      -4.546   3.231  24.930  0.00  0.00    -0.006 A 
ATOM     27  C   UNL     1      -4.683   2.511  24.550  0.00  0.00    -0.003 A 
ATOM     28  C   UNL     1      -5.344   2.059  24.749  0.00  0.00    -0.000 A 
ATOM     29  C   UNL     1      -5.868   2.327  25.328  0.00  0.00    -0.000 A 
ATOM     30  C   UNL     1      -5.731   3.046  25.708  0.00  0.00    -0.000 A 
ATOM     31  C   UNL     1      -5.070   3.498  25.509  0.00  0.00    -0.003 A 
ENDBRANCH  25  26
ENDBRANCH   2  25
ENDBRANCH   3   2
ENDBRANCH   4   3
ENDBRANCH   7   6
TORSDOF 8
ENDMDL
MODEL 6
REMARK VINA RESULT:     -10.1      1.389      5.464
REMARK  Name = 
REMARK  8 active torsions:
REMARK  status: ('A' for Active; 'I' for Inactive)
REMARK    1  A    between atoms: N_2  and  C_3
REMARK    2  A    between atoms: N_2  and  C_25
REMARK    3  A    between atoms: C_3  and  C_4
REMARK    4  A    between atoms: C_6  and  C_7
REMARK    5  A    between atoms: C_7  and  C_8
REMARK    6  A    between atoms: C_13  and  C_14
REMARK    7  A    between atoms: C_14  and  C_15
REMARK    8  A    between atoms: C_25  and  C_26
REMARK                            x       y       z     vdW  Elec       q    Type
REMARK                         _______ _______ _______ _____ _____    ______ ____
ROOT
ATOM      7  C   UNL     1      -2.332  -0.254  25.511  0.00  0.00    +0.051 C 
ENDROOT
BRANCH   7   8
ATOM      8  C   UNL     1      -2.766  -0.719  24.987  0.00  0.00    +0.024 C 
ATOM      9  C   UNL     1      -2.460  -1.438  24.723  0.00  0.00    +0.089 C 
ATOM     10  N   UNL     1      -2.894  -1.904  24.198  0.00  0.00    -0.218 NA
ATOM     11  C   UNL     1      -3.635  -1.650  23.938  0.00  0.00    +0.089 C 
ATOM     12  C   UNL     1      -3.941  -0.930  24.203  0.00  0.00    +0.019 C 
ATOM     13  C   UNL     1      -3.507  -0.465  24.727  0.00  0.00    +0.012 C 
BRANCH  13  14
ATOM     14  C   UNL     1      -3.812   0.254  24.991  0.00  0.00    +0.085 C 
BRANCH  14  15
ATOM     15  C   UNL     1      -4.627   0.382  24.986  0.00  0.00    +0.226 C 
ATOM     16  O   UNL     1      -5.146  -0.259  24.961  0.00  0.00    -0.275 OA
ATOM     17  N   UNL     1      -4.924   1.152  25.007  0.00  0.00    -0.274 N 
ATOM     18  C   UNL     1      -5.739   1.280  25.002  0.00  0.00    +0.125 C 
ATOM     19  C   UNL     1      -6.035   2.050  25.023  0.00  0.00    +0.164 C 
ATOM     20  O   UNL     1      -5.517   2.691  25.048  0.00  0.00    -0.350 OA
ATOM     21  C   UNL     1      -4.701   2.562  25.053  0.00  0.00    +0.164 C 
ATOM     22  C   UNL     1      -4.405   1.793  25.033  0.00  0.00    +0.125 C 
ENDBRANCH  14  15
ENDBRANCH  13  14
ENDBRANCH   7   8
BRANCH   7   6
ATOM      4  C   UNL     1      -0.642   0.975  25.072  0.00  0.00    +0.170 A 
ATOM      5  C   UNL     1      -1.382   0.865  25.420  0.00  0.00    +0.055 A 
ATOM      6  C   UNL     1      -1.623   0.092  25.265  0.00  0.00    +0.100 A 
ATOM     23  N   UNL     1      -1.033  -0.276  24.822  0.00  0.00    -0.082 NA
ATOM     24  O   UNL     1      -0.427   0.270  24.703  0.00  0.00    -0.357 OA
BRANCH   4   3
ATOM      3  C   UNL     1      -0.196   1.669  25.090  0.00  0.00    +0.141 C 
BRANCH   3   2
ATOM      1  C   UNL     1      -0.817   2.551  24.152  0.00  0.00    +0.090 C 
ATOM      2  N   UNL     1      -0.553   2.394  24.918  0.00  0.00    -0.261 NA
BRANCH   2  25
ATOM     25  C   UNL     1      -0.644   2.960  25.510  0.00  0.00    +0.100 C 
BRANCH  25  26
ATOM     26  C   UNL     1      -0.865   3.730  25.314  0.00  0.00    -0.006 A 
ATOM     27  C   UNL     1      -0.346   4.212  24.891  0.00  0.00    -0.003 A 
ATOM     28  C   UNL     1      -0.566   4.984  24.695  0.00  0.00    -0.000 A 
ATOM     29  C   UNL     1      -1.305   5.271  24.921  0.00  0.00    -0.000 A 
ATOM     30  C   UNL     1      -1.824   4.789  25.344  0.00  0.00    -0.000 A 
ATOM     31  C   UNL     1      -1.604   4.019  25.540  0.00  0.00    -0.003 A 
ENDBRANCH  25  26
ENDBRANCH   2  25
ENDBRANCH   3   2
ENDBRANCH   4   3
ENDBRANCH   7   6
TORSDOF 8
ENDMDL
