MODEL 1
REMARK VINA RESULT:      -9.9      0.000      0.000
REMARK  Name = 
REMARK  5 active torsions:
REMARK  status: ('A' for Active; 'I' for Inactive)
REMARK    1  A    between atoms: C_2  and  C_5
REMARK    2  A    between atoms: C_5  and  C_6
REMARK    3  A    between atoms: N_8  and  C_9
REMARK    4  A    between atoms: C_9  and  C_10
REMARK    5  A    between atoms: C_17  and  C_18
REMARK                            x       y       z     vdW  Elec       q    Type
REMARK                         _______ _______ _______ _____ _____    ______ ____
ROOT
ATOM     10  C   UNL     1      -3.211   1.769  24.746  0.00  0.00    +0.079 C 
ATOM     11  C   UNL     1      -3.683   2.365  24.914  0.00  0.00    +0.018 C 
ATOM     12  C   UNL     1      -3.446   3.117  25.096  0.00  0.00    +0.008 C 
ATOM     13  C   UNL     1      -4.144   3.657  25.257  0.00  0.00    +0.018 C 
ATOM     14  C   UNL     1      -3.850   3.094  25.104  0.00  0.00    +0.072 C 
ATOM     15  N   UNL     1      -2.978   2.539  24.932  0.00  0.00    -0.272 NA
ATOM     16  C   UNL     1      -2.155   2.927  25.001  0.00  0.00    +0.076 C 
ATOM     17  C   UNL     1      -2.652   3.484  25.160  0.00  0.00    +0.038 C 
ENDROOT
BRANCH  17  18
ATOM     18  C   UNL     1      -2.478   4.268  25.352  0.00  0.00    -0.025 C 
ATOM     19  C   UNL     1      -1.700   4.539  25.314  0.00  0.00    -0.005 C 
ENDBRANCH  17  18
BRANCH  10   9
ATOM      9  C   UNL     1      -3.061   0.984  24.543  0.00  0.00    +0.131 C 
BRANCH   9   8
ATOM      6  C   UNL     1      -3.437  -0.394  24.570  0.00  0.00    +0.241 C 
ATOM      7  O   UNL     1      -2.718  -0.597  24.220  0.00  0.00    -0.273 OA
ATOM      8  N   UNL     1      -3.608   0.397  24.731  0.00  0.00    -0.204 NA
BRANCH   6   5
ATOM      5  C   UNL     1      -3.984  -0.981  24.758  0.00  0.00    +0.087 C 
BRANCH   5   2
ATOM      1  C   UNL     1      -3.645  -2.562  24.430  0.00  0.00    +0.000 C 
ATOM      2  C   UNL     1      -3.815  -1.772  24.594  0.00  0.00    +0.009 C 
ATOM      3  C   UNL     1      -3.425  -1.839  25.317  0.00  0.00    +0.000 C 
ATOM      4  C   UNL     1      -4.205  -1.705  23.870  0.00  0.00    +0.000 C 
ENDBRANCH   5   2
ENDBRANCH   6   5
ENDBRANCH   9   8
ENDBRANCH  10   9
TORSDOF 5
ENDMDL
MODEL 2
REMARK VINA RESULT:      -9.6      1.214      4.726
REMARK  Name = 
REMARK  5 active torsions:
REMARK  status: ('A' for Active; 'I' for Inactive)
REMARK    1  A    between atoms: C_2  and  C_5
REMARK    2  A    between atoms: C_5  and  C_6
REMARK    3  A    between atoms: N_8  and  C_9
REMARK    4  A    between atoms: C_9  and  C_10
REMARK    5  A    between atoms: C_17  and  C_18
REMARK                            x       y       z     vdW  Elec       q    Type
REMARK                         _______ _______ _______ _____ _____    ______ ____
ROOT
ATOM     10  C   UNL     1      -2.988   0.689  24.872  0.00  0.00    +0.079 C 
ATOM     11  C   UNL     1      -3.007   0.085  25.362  0.00  0.00    +0.018 C 
ATOM     12  C   UNL     1      -3.312  -0.647  25.197  0.00  0.00    +0.008 C 
ATOM     13  C   UNL     1      -3.238  -1.205  25.895  0.00  0.00    +0.018 C 
ATOM     14  C   UNL     1      -3.169  -0.640  25.575  0.00  0.00    +0.072 C 
ATOM     15  N   UNL     1      -3.297  -0.059  24.711  0.00  0.00    -0.272 NA
ATOM     16  C   UNL     1      -3.691  -0.410  23.966  0.00  0.00    +0.076 C 
ATOM     17  C   UNL     1      -3.690  -0.978  24.477  0.00  0.00    +0.038 C 
ENDROOT
BRANCH  17  18
ATOM     18  C   UNL     1      -3.983  -1.742  24.373  0.00  0.00    -0.025 C 
ATOM     19  C   UNL     1      -4.329  -1.957  23.655  0.00  0.00    -0.005 C 
ENDBRANCH  17  18
BRANCH  10   9
ATOM      9  C   UNL     1      -2.804   1.467  24.671  0.00  0.00    +0.131 C 
BRANCH   9   8
ATOM      6  C   UNL     1      -2.222   2.728  25.007  0.00  0.00    +0.241 C 
ATOM      7  O   UNL     1      -2.483   3.040  24.290  0.00  0.00    -0.273 OA
ATOM      8  N   UNL     1      -2.382   1.941  25.198  0.00  0.00    -0.204 NA
BRANCH   6   5
ATOM      5  C   UNL     1      -1.800   3.202  25.534  0.00  0.00    +0.087 C 
BRANCH   5   2
ATOM      1  C   UNL     1      -1.512   4.785  25.172  0.00  0.00    +0.000 C 
ATOM      2  C   UNL     1      -1.656   3.993  25.353  0.00  0.00    +0.009 C 
ATOM      3  C   UNL     1      -2.374   4.203  25.699  0.00  0.00    +0.000 C 
ATOM      4  C   UNL     1      -0.937   3.784  25.007  0.00  0.00    +0.000 C 
ENDBRANCH   5   2
ENDBRANCH   6   5
ENDBRANCH   9   8
ENDBRANCH  10   9
TORSDOF 5
ENDMDL
MODEL 3
REMARK VINA RESULT:      -9.6      1.666      4.667
REMARK  Name = 
REMARK  5 active torsions:
REMARK  status: ('A' for Active; 'I' for Inactive)
REMARK    1  A    between atoms: C_2  and  C_5
REMARK    2  A    between atoms: C_5  and  C_6
REMARK    3  A    between atoms: N_8  and  C_9
REMARK    4  A    between atoms: C_9  and  C_10
REMARK    5  A    between atoms: C_17  and  C_18
REMARK                            x       y       z     vdW  Elec       q    Type
REMARK                         _______ _______ _______ _____ _____    ______ ____
ROOT
ATOM     10  C   UNL     1      -3.804  -0.222  24.576  0.00  0.00    +0.079 C 
ATOM     11  C   UNL     1      -4.140  -0.846  24.255  0.00  0.00    +0.018 C 
ATOM     12  C   UNL     1      -3.815  -1.587  24.211  0.00  0.00    +0.008 C 
ATOM     13  C   UNL     1      -4.362  -2.168  23.802  0.00  0.00    +0.018 C 
ATOM     14  C   UNL     1      -4.181  -1.587  24.040  0.00  0.00    +0.072 C 
ATOM     15  N   UNL     1      -3.479  -0.980  24.528  0.00  0.00    -0.272 NA
ATOM     16  C   UNL     1      -2.681  -1.321  24.810  0.00  0.00    +0.076 C 
ATOM     17  C   UNL     1      -3.045  -1.908  24.485  0.00  0.00    +0.038 C 
ENDROOT
BRANCH  17  18
ATOM     18  C   UNL     1      -2.772  -2.684  24.408  0.00  0.00    -0.025 C 
ATOM     19  C   UNL     1      -1.971  -2.850  24.512  0.00  0.00    -0.005 C 
ENDBRANCH  17  18
BRANCH  10   9
ATOM      9  C   UNL     1      -3.786   0.573  24.794  0.00  0.00    +0.131 C 
BRANCH   9   8
ATOM      6  C   UNL     1      -4.438   1.838  24.917  0.00  0.00    +0.241 C 
ATOM      7  O   UNL     1      -3.749   2.163  25.234  0.00  0.00    -0.273 OA
ATOM      8  N   UNL     1      -4.457   1.043  24.697  0.00  0.00    -0.204 NA
BRANCH   6   5
ATOM      5  C   UNL     1      -5.109   2.308  24.821  0.00  0.00    +0.087 C 
BRANCH   5   2
ATOM      1  C   UNL     1      -5.239   3.739  25.632  0.00  0.00    +0.000 C 
ATOM      2  C   UNL     1      -5.174   3.023  25.226  0.00  0.00    +0.009 C 
ATOM      3  C   UNL     1      -5.623   2.652  25.809  0.00  0.00    +0.000 C 
ATOM      4  C   UNL     1      -4.724   3.395  24.642  0.00  0.00    +0.000 C 
ENDBRANCH   5   2
ENDBRANCH   6   5
ENDBRANCH   9   8
ENDBRANCH  10   9
TORSDOF 5
ENDMDL
