MODEL 1
REMARK VINA RESULT:     -12.8      0.000      0.000
REMARK  Name = 
REMARK  5 active torsions:
REMARK  status: ('A' for Active; 'I' for Inactive)
REMARK    1  A    between atoms: C_6  and  C_8
REMARK    2  A    between atoms: N_10  and  C_11
REMARK    3  A    between atoms: C_11  and  C_12
REMARK    4  A    between atoms: C_19  and  C_20
REMARK    5  A    between atoms: N_22  and  C_23
REMARK                            x       y       z     vdW  Elec       q    Type
REMARK                         _______ _______ _______ _____ _____    ______ ____
ROOT
ATOM     12  C   UNL     1      -4.741   2.609  24.909  0.00  0.00    +0.082 C 
ATOM     13  C   UNL     1      -5.153   2.059  25.274  0.00  0.00    +0.019 C 
ATOM     14  C   UNL     1      -5.074   1.261  25.164  0.00  0.00    +0.013 C 
ATOM     15  C   UNL     1      -5.642   0.795  25.680  0.00  0.00    +0.018 C 
ATOM     16  C   UNL     1      -5.362   1.334  25.439  0.00  0.00    +0.072 C 
ATOM     17  N   UNL     1      -4.667   1.794  24.802  0.00  0.00    -0.272 NA
ATOM     18  C   UNL     1      -4.123   1.295  24.266  0.00  0.00    +0.081 C 
ATOM     19  C   UNL     1      -4.548   0.787  24.645  0.00  0.00    +0.094 C 
ENDROOT
BRANCH  19  20
ATOM     20  C   UNL     1      -4.519  -0.035  24.581  0.00  0.00    +0.242 C 
ATOM     21  O   UNL     1      -5.217  -0.468  24.514  0.00  0.00    -0.273 OA
ATOM     22  N   UNL     1      -3.790  -0.423  24.583  0.00  0.00    -0.207 NA
BRANCH  22  23
ATOM     23  C   UNL     1      -3.762  -1.244  24.518  0.00  0.00    +0.095 C 
ATOM     24  C   UNL     1      -3.468  -1.698  25.143  0.00  0.00    +0.022 C 
ATOM     25  C   UNL     1      -3.439  -2.519  25.078  0.00  0.00    +0.002 C 
ATOM     26  C   UNL     1      -3.704  -2.889  24.390  0.00  0.00    +0.000 C 
ATOM     27  C   UNL     1      -3.997  -2.436  23.765  0.00  0.00    +0.002 C 
ATOM     28  C   UNL     1      -4.026  -1.615  23.830  0.00  0.00    +0.022 C 
ENDBRANCH  22  23
ENDBRANCH  19  20
BRANCH  12  11
ATOM     11  C   UNL     1      -4.537   3.393  24.751  0.00  0.00    +0.145 C 
BRANCH  11  10
ATOM      8  C   UNL     1      -2.625   4.152  25.318  0.00  0.00    +0.123 A 
ATOM      9  C   UNL     1      -3.121   3.781  24.772  0.00  0.00    +0.118 A 
ATOM     10  N   UNL     1      -3.872   3.726  25.107  0.00  0.00    -0.229 N 
ATOM     29  N   UNL     1      -3.841   4.061  25.860  0.00  0.00    -0.064 NA
ATOM     30  N   UNL     1      -3.070   4.325  25.991  0.00  0.00    -0.129 NA
BRANCH   8   6
ATOM      1  O   UNL     1       0.103   3.300  25.306  0.00  0.00    -0.287 OA
ATOM      2  C   UNL     1      -0.460   3.894  25.205  0.00  0.00    +0.196 A 
ATOM      3  C   UNL     1      -0.224   4.656  24.997  0.00  0.00    +0.042 A 
ATOM      4  C   UNL     1      -0.786   5.251  24.895  0.00  0.00    +0.003 A 
ATOM      5  C   UNL     1      -1.587   5.083  25.003  0.00  0.00    +0.002 A 
ATOM      6  C   UNL     1      -1.824   4.320  25.211  0.00  0.00    +0.024 A 
ATOM      7  C   UNL     1      -1.261   3.726  25.312  0.00  0.00    +0.044 A 
ENDBRANCH   8   6
ENDBRANCH  11  10
ENDBRANCH  12  11
TORSDOF 5
ENDMDL
MODEL 2
REMARK VINA RESULT:     -12.3      1.370      5.556
REMARK  Name = 
REMARK  5 active torsions:
REMARK  status: ('A' for Active; 'I' for Inactive)
REMARK    1  A    between atoms: C_6  and  C_8
REMARK    2  A    between atoms: N_10  and  C_11
REMARK    3  A    between atoms: C_11  and  C_12
REMARK    4  A    between atoms: C_19  and  C_20
REMARK    5  A    between atoms: N_22  and  C_23
REMARK                            x       y       z     vdW  Elec       q    Type
REMARK                         _______ _______ _______ _____ _____    ______ ____
ROOT
ATOM     12  C   UNL     1      -4.407   1.318  24.803  0.00  0.00    +0.082 C 
ATOM     13  C   UNL     1      -4.363   1.847  24.234  0.00  0.00    +0.019 C 
ATOM     14  C   UNL     1      -3.893   2.506  24.238  0.00  0.00    +0.013 C 
ATOM     15  C   UNL     1      -3.988   2.988  23.488  0.00  0.00    +0.018 C 
ATOM     16  C   UNL     1      -4.105   2.490  23.894  0.00  0.00    +0.072 C 
ATOM     17  N   UNL     1      -3.930   1.992  24.800  0.00  0.00    -0.272 NA
ATOM     18  C   UNL     1      -3.338   2.324  25.409  0.00  0.00    +0.081 C 
ATOM     19  C   UNL     1      -3.325   2.820  24.829  0.00  0.00    +0.094 C 
ENDROOT
BRANCH  19  20
ATOM     20  C   UNL     1      -2.871   3.507  24.770  0.00  0.00    +0.242 C 
ATOM     21  O   UNL     1      -3.195   4.186  24.433  0.00  0.00    -0.273 OA
ATOM     22  N   UNL     1      -2.094   3.513  25.048  0.00  0.00    -0.207 NA
BRANCH  22  23
ATOM     23  C   UNL     1      -1.642   4.200  24.988  0.00  0.00    +0.095 C 
ATOM     24  C   UNL     1      -0.907   4.178  24.613  0.00  0.00    +0.022 C 
ATOM     25  C   UNL     1      -0.454   4.865  24.554  0.00  0.00    +0.002 C 
ATOM     26  C   UNL     1      -0.736   5.574  24.869  0.00  0.00    +0.000 C 
ATOM     27  C   UNL     1      -1.470   5.595  25.244  0.00  0.00    +0.002 C 
ATOM     28  C   UNL     1      -1.923   4.909  25.303  0.00  0.00    +0.022 C 
ENDBRANCH  22  23
ENDBRANCH  19  20
BRANCH  12  11
ATOM     11  C   UNL     1      -4.699   0.626  25.144  0.00  0.00    +0.145 C 
BRANCH  11  10
ATOM      8  C   UNL     1      -3.894  -1.260  24.550  0.00  0.00    +0.123 A 
ATOM      9  C   UNL     1      -3.867  -0.577  25.014  0.00  0.00    +0.118 A 
ATOM     10  N   UNL     1      -4.513  -0.107  24.814  0.00  0.00    -0.229 N 
ATOM     29  N   UNL     1      -4.941  -0.497  24.227  0.00  0.00    -0.064 NA
ATOM     30  N   UNL     1      -4.559  -1.210  24.064  0.00  0.00    -0.129 NA
BRANCH   8   6
ATOM      1  O   UNL     1      -1.193  -2.190  24.597  0.00  0.00    -0.287 OA
ATOM      2  C   UNL     1      -2.002  -2.347  24.592  0.00  0.00    +0.196 A 
ATOM      3  C   UNL     1      -2.272  -3.126  24.607  0.00  0.00    +0.042 A 
ATOM      4  C   UNL     1      -3.081  -3.285  24.603  0.00  0.00    +0.003 A 
ATOM      5  C   UNL     1      -3.622  -2.662  24.584  0.00  0.00    +0.002 A 
ATOM      6  C   UNL     1      -3.353  -1.882  24.569  0.00  0.00    +0.024 A 
ATOM      7  C   UNL     1      -2.544  -1.725  24.573  0.00  0.00    +0.044 A 
ENDBRANCH   8   6
ENDBRANCH  11  10
ENDBRANCH  12  11
TORSDOF 5
ENDMDL
MODEL 3
REMARK VINA RESULT:     -12.0      2.469      3.212
REMARK  Name = 
REMARK  5 active torsions:
REMARK  status: ('A' for Active; 'I' for Inactive)
REMARK    1  A    between atoms: C_6  and  C_8
REMARK    2  A    between atoms: N_10  and  C_11
REMARK    3  A    between atoms: C_11  and  C_12
REMARK    4  A    between atoms: C_19  and  C_20
REMARK    5  A    between atoms: N_22  and  C_23
REMARK                            x       y       z     vdW  Elec       q    Type
REMARK                         _______ _______ _______ _____ _____    ______ ____
ROOT
ATOM     12  C   UNL     1      -0.181   0.711  24.523  0.00  0.00    +0.082 C 
ATOM     13  C   UNL     1      -0.197   0.037  24.913  0.00  0.00    +0.019 C 
ATOM     14  C   UNL     1      -0.741  -0.554  24.812  0.00  0.00    +0.013 C 
ATOM     15  C   UNL     1      -0.585  -1.248  25.358  0.00  0.00    +0.018 C 
ATOM     16  C   UNL     1      -0.475  -0.659  25.098  0.00  0.00    +0.072 C 
ATOM     17  N   UNL     1      -0.732   0.104  24.426  0.00  0.00    -0.272 NA
ATOM     18  C   UNL     1      -1.454   0.017  23.874  0.00  0.00    +0.081 C 
ATOM     19  C   UNL     1      -1.434  -0.630  24.278  0.00  0.00    +0.094 C 
ENDROOT
BRANCH  19  20
ATOM     20  C   UNL     1      -1.954  -1.269  24.225  0.00  0.00    +0.242 C 
ATOM     21  O   UNL     1      -1.679  -2.005  23.976  0.00  0.00    -0.273 OA
ATOM     22  N   UNL     1      -2.750  -1.169  24.420  0.00  0.00    -0.207 NA
BRANCH  22  23
ATOM     23  C   UNL     1      -3.270  -1.807  24.367  0.00  0.00    +0.095 C 
ATOM     24  C   UNL     1      -3.205  -2.438  24.895  0.00  0.00    +0.022 C 
ATOM     25  C   UNL     1      -3.725  -3.075  24.842  0.00  0.00    +0.002 C 
ATOM     26  C   UNL     1      -4.310  -3.083  24.260  0.00  0.00    +0.000 C 
ATOM     27  C   UNL     1      -4.375  -2.453  23.732  0.00  0.00    +0.002 C 
ATOM     28  C   UNL     1      -3.855  -1.815  23.785  0.00  0.00    +0.022 C 
ENDBRANCH  22  23
ENDBRANCH  19  20
BRANCH  12  11
ATOM     11  C   UNL     1       0.136   1.451  24.346  0.00  0.00    +0.145 C 
BRANCH  11  10
ATOM      8  C   UNL     1      -0.636   3.214  25.267  0.00  0.00    +0.123 A 
ATOM      9  C   UNL     1      -0.640   2.658  24.657  0.00  0.00    +0.118 A 
ATOM     10  N   UNL     1      -0.051   2.103  24.814  0.00  0.00    -0.229 N 
ATOM     29  N   UNL     1       0.317   2.315  25.521  0.00  0.00    -0.064 NA
ATOM     30  N   UNL     1      -0.045   3.001  25.801  0.00  0.00    -0.129 NA
BRANCH   8   6
ATOM      1  O   UNL     1      -3.083   4.378  26.174  0.00  0.00    -0.287 OA
ATOM      2  C   UNL     1      -2.359   4.450  25.786  0.00  0.00    +0.196 A 
ATOM      3  C   UNL     1      -2.134   5.174  25.462  0.00  0.00    +0.042 A 
ATOM      4  C   UNL     1      -1.411   5.246  25.073  0.00  0.00    +0.003 A 
ATOM      5  C   UNL     1      -0.911   4.593  25.008  0.00  0.00    +0.002 A 
ATOM      6  C   UNL     1      -1.136   3.868  25.332  0.00  0.00    +0.024 A 
ATOM      7  C   UNL     1      -1.860   3.796  25.721  0.00  0.00    +0.044 A 
ENDBRANCH   8   6
ENDBRANCH  11  10
ENDBRANCH  12  11
TORSDOF 5
ENDMDL
MODEL 4
REMARK VINA RESULT:     -11.9      2.191      6.298
REMARK  Name = 
REMARK  5 active torsions:
REMARK  status: ('A' for Active; 'I' for Inactive)
REMARK    1  A    between atoms: C_6  and  C_8
REMARK    2  A    between atoms: N_10  and  C_11
REMARK    3  A    between atoms: C_11  and  C_12
REMARK    4  A    between atoms: C_19  and  C_20
REMARK    5  A    between atoms: N_22  and  C_23
REMARK                            x       y       z     vdW  Elec       q    Type
REMARK                         _______ _______ _______ _____ _____    ______ ____
ROOT
ATOM     12  C   UNL     1      -0.694   0.116  25.272  0.00  0.00    +0.082 C 
ATOM     13  C   UNL     1      -0.355   0.572  24.740  0.00  0.00    +0.019 C 
ATOM     14  C   UNL     1      -0.511   1.359  24.626  0.00  0.00    +0.013 C 
ATOM     15  C   UNL     1      -0.015   1.705  23.964  0.00  0.00    +0.018 C 
ATOM     16  C   UNL     1      -0.229   1.235  24.365  0.00  0.00    +0.072 C 
ATOM     17  N   UNL     1      -0.847   0.918  25.150  0.00  0.00    -0.272 NA
ATOM     18  C   UNL     1      -1.417   1.500  25.560  0.00  0.00    +0.081 C 
ATOM     19  C   UNL     1      -1.062   1.913  25.026  0.00  0.00    +0.094 C 
ENDROOT
BRANCH  19  20
ATOM     20  C   UNL     1      -1.173   2.714  24.858  0.00  0.00    +0.242 C 
ATOM     21  O   UNL     1      -1.332   2.955  24.086  0.00  0.00    -0.273 OA
ATOM     22  N   UNL     1      -1.124   3.272  25.464  0.00  0.00    -0.207 NA
BRANCH  22  23
ATOM     23  C   UNL     1      -1.235   4.072  25.297  0.00  0.00    +0.095 C 
ATOM     24  C   UNL     1      -1.972   4.421  25.422  0.00  0.00    +0.022 C 
ATOM     25  C   UNL     1      -2.083   5.221  25.255  0.00  0.00    +0.002 C 
ATOM     26  C   UNL     1      -1.458   5.672  24.961  0.00  0.00    +0.000 C 
ATOM     27  C   UNL     1      -0.721   5.323  24.836  0.00  0.00    +0.002 C 
ATOM     28  C   UNL     1      -0.610   4.523  25.003  0.00  0.00    +0.022 C 
ENDBRANCH  22  23
ENDBRANCH  19  20
BRANCH  12  11
ATOM     11  C   UNL     1      -0.809  -0.604  25.657  0.00  0.00    +0.145 C 
BRANCH  11  10
ATOM      8  C   UNL     1      -2.218  -1.920  24.740  0.00  0.00    +0.123 A 
ATOM      9  C   UNL     1      -2.034  -1.208  25.116  0.00  0.00    +0.118 A 
ATOM     10  N   UNL     1      -1.227  -1.209  25.283  0.00  0.00    -0.229 N 
ATOM     29  N   UNL     1      -0.911  -1.921  25.011  0.00  0.00    -0.064 NA
ATOM     30  N   UNL     1      -1.523  -2.360  24.675  0.00  0.00    -0.129 NA
BRANCH   8   6
ATOM      1  O   UNL     1      -4.816  -1.243  23.761  0.00  0.00    -0.287 OA
ATOM      2  C   UNL     1      -4.264  -1.813  23.986  0.00  0.00    +0.196 A 
ATOM      3  C   UNL     1      -4.457  -2.613  23.948  0.00  0.00    +0.042 A 
ATOM      4  C   UNL     1      -3.906  -3.184  24.173  0.00  0.00    +0.003 A 
ATOM      5  C   UNL     1      -3.159  -2.953  24.437  0.00  0.00    +0.002 A 
ATOM      6  C   UNL     1      -2.965  -2.151  24.476  0.00  0.00    +0.024 A 
ATOM      7  C   UNL     1      -3.517  -1.582  24.250  0.00  0.00    +0.044 A 
ENDBRANCH   8   6
ENDBRANCH  11  10
ENDBRANCH  12  11
TORSDOF 5
ENDMDL
MODEL 5
REMARK VINA RESULT:     -11.0      4.204      5.541
REMARK  Name = 
REMARK  5 active torsions:
REMARK  status: ('A' for Active; 'I' for Inactive)
REMARK    1  A    between atoms: C_6  and  C_8
REMARK    2  A    between atoms: N_10  and  C_11
REMARK    3  A    between atoms: C_11  and  C_12
REMARK    4  A    between atoms: C_19  and  C_20
REMARK    5  A    between atoms: N_22  and  C_23
REMARK                            x       y       z     vdW  Elec       q    Type
REMARK                         _______ _______ _______ _____ _____    ______ ____
ROOT
ATOM     12  C   UNL     1      -0.039   0.268  23.651  0.00  0.00    +0.082 C 
ATOM     13  C   UNL     1      -0.156   1.004  23.875  0.00  0.00    +0.019 C 
ATOM     14  C   UNL     1      -0.861   1.316  24.122  0.00  0.00    +0.013 C 
ATOM     15  C   UNL     1      -0.786   2.184  24.336  0.00  0.00    +0.018 C 
ATOM     16  C   UNL     1      -0.574   1.601  24.131  0.00  0.00    +0.072 C 
ATOM     17  N   UNL     1      -0.755   0.593  23.904  0.00  0.00    -0.272 NA
ATOM     18  C   UNL     1      -1.588   0.234  24.001  0.00  0.00    +0.081 C 
ATOM     19  C   UNL     1      -1.660   0.964  24.213  0.00  0.00    +0.094 C 
ENDROOT
BRANCH  19  20
ATOM     20  C   UNL     1      -2.346   1.343  24.473  0.00  0.00    +0.242 C 
ATOM     21  O   UNL     1      -2.332   1.789  25.165  0.00  0.00    -0.273 OA
ATOM     22  N   UNL     1      -3.045   1.273  24.039  0.00  0.00    -0.207 NA
BRANCH  22  23
ATOM     23  C   UNL     1      -3.729   1.652  24.299  0.00  0.00    +0.095 C 
ATOM     24  C   UNL     1      -3.915   2.407  24.022  0.00  0.00    +0.022 C 
ATOM     25  C   UNL     1      -4.600   2.785  24.282  0.00  0.00    +0.002 C 
ATOM     26  C   UNL     1      -5.100   2.409  24.820  0.00  0.00    +0.000 C 
ATOM     27  C   UNL     1      -4.915   1.655  25.097  0.00  0.00    +0.002 C 
ATOM     28  C   UNL     1      -4.230   1.276  24.837  0.00  0.00    +0.022 C 
ENDBRANCH  22  23
ENDBRANCH  19  20
BRANCH  12  11
ATOM     11  C   UNL     1       0.431  -0.351  23.376  0.00  0.00    +0.145 C 
BRANCH  11  10
ATOM      8  C   UNL     1       2.429   0.071  22.757  0.00  0.00    +0.123 A 
ATOM      9  C   UNL     1       1.873  -0.074  23.350  0.00  0.00    +0.118 A 
ATOM     10  N   UNL     1       1.141  -0.190  22.989  0.00  0.00    -0.229 N 
ATOM     29  N   UNL     1       1.244  -0.118  22.174  0.00  0.00    -0.064 NA
ATOM     30  N   UNL     1       2.040   0.043  22.031  0.00  0.00    -0.129 NA
BRANCH   8   6
ATOM      1  O   UNL     1       4.997  -0.789  23.671  0.00  0.00    -0.287 OA
ATOM      2  C   UNL     1       4.517  -0.213  23.328  0.00  0.00    +0.196 A 
ATOM      3  C   UNL     1       4.840   0.510  23.099  0.00  0.00    +0.042 A 
ATOM      4  C   UNL     1       4.361   1.088  22.757  0.00  0.00    +0.003 A 
ATOM      5  C   UNL     1       3.557   0.941  22.642  0.00  0.00    +0.002 A 
ATOM      6  C   UNL     1       3.233   0.218  22.871  0.00  0.00    +0.024 A 
ATOM      7  C   UNL     1       3.713  -0.359  23.214  0.00  0.00    +0.044 A 
ENDBRANCH   8   6
ENDBRANCH  11  10
ENDBRANCH  12  11
TORSDOF 5
ENDMDL
