MODEL 1
REMARK VINA RESULT:     -11.1      0.000      0.000
REMARK  Name = 
REMARK  6 active torsions:
REMARK  status: ('A' for Active; 'I' for Inactive)
REMARK    1  A    between atoms: C_2  and  C_5
REMARK    2  A    between atoms: C_7  and  C_8
REMARK    3  A    between atoms: C_8  and  C_9
REMARK    4  A    between atoms: C_9  and  N_13
REMARK    5  A    between atoms: N_13  and  C_14
REMARK    6  A    between atoms: C_14  and  C_15
REMARK                            x       y       z     vdW  Elec       q    Type
REMARK                         _______ _______ _______ _____ _____    ______ ____
ROOT
ATOM      9  C   UNL     1      -4.583   1.688  24.724  0.00  0.00    +0.120 C 
ATOM     10  C   UNL     1      -5.292   1.397  25.032  0.00  0.00    +0.161 C 
ATOM     11  O   UNL     1      -5.669   2.103  24.831  0.00  0.00    -0.351 OA
ATOM     12  C   UNL     1      -4.961   2.394  24.524  0.00  0.00    +0.161 C 
ENDROOT
BRANCH   9   8
ATOM      8  C   UNL     1      -3.876   1.979  24.416  0.00  0.00    +0.070 C 
BRANCH   8   7
ATOM      5  C   UNL     1      -2.440   3.321  25.250  0.00  0.00    +0.153 A 
ATOM      6  C   UNL     1      -2.657   2.755  24.691  0.00  0.00    +0.054 A 
ATOM      7  C   UNL     1      -3.437   2.533  24.842  0.00  0.00    +0.102 A 
ATOM     22  N   UNL     1      -3.703   2.962  25.494  0.00  0.00    -0.082 NA
ATOM     23  O   UNL     1      -3.086   3.450  25.747  0.00  0.00    -0.358 OA
BRANCH   5   2
ATOM      1  C   UNL     1      -0.972   4.066  25.357  0.00  0.00    +0.008 C 
ATOM      2  C   UNL     1      -1.706   3.694  25.303  0.00  0.00    +0.054 C 
ATOM      3  C   UNL     1      -2.043   4.397  25.034  0.00  0.00    +0.008 C 
ATOM      4  C   UNL     1      -1.370   2.991  25.573  0.00  0.00    +0.008 C 
ENDBRANCH   5   2
ENDBRANCH   8   7
ENDBRANCH   9   8
BRANCH   9  13
ATOM     13  N   UNL     1      -4.206   0.982  24.924  0.00  0.00    -0.211 NA
BRANCH  13  14
ATOM     14  C   UNL     1      -4.449   0.273  24.578  0.00  0.00    +0.117 C 
BRANCH  14  15
ATOM     15  C   UNL     1      -4.075  -0.434  24.783  0.00  0.00    +0.023 A 
ATOM     16  C   UNL     1      -3.792  -0.542  25.550  0.00  0.00    -0.001 A 
ATOM     17  C   UNL     1      -3.418  -1.249  25.756  0.00  0.00    -0.000 A 
ATOM     18  C   UNL     1      -3.329  -1.846  25.194  0.00  0.00    +0.002 A 
ATOM     19  C   UNL     1      -3.612  -1.738  24.426  0.00  0.00    +0.029 A 
ATOM     20  C   UNL     1      -3.986  -1.031  24.222  0.00  0.00    +0.137 A 
ATOM     21  F   UNL     1      -4.269  -0.922  23.455  0.00  0.00    -0.204 F 
ENDBRANCH  14  15
ENDBRANCH  13  14
ENDBRANCH   9  13
TORSDOF 6
ENDMDL
MODEL 2
REMARK VINA RESULT:     -10.7      1.512      4.306
REMARK  Name = 
REMARK  6 active torsions:
REMARK  status: ('A' for Active; 'I' for Inactive)
REMARK    1  A    between atoms: C_2  and  C_5
REMARK    2  A    between atoms: C_7  and  C_8
REMARK    3  A    between atoms: C_8  and  C_9
REMARK    4  A    between atoms: C_9  and  N_13
REMARK    5  A    between atoms: N_13  and  C_14
REMARK    6  A    between atoms: C_14  and  C_15
REMARK                            x       y       z     vdW  Elec       q    Type
REMARK                         _______ _______ _______ _____ _____    ______ ____
ROOT
ATOM      9  C   UNL     1      -4.590   1.812  24.912  0.00  0.00    +0.120 C 
ATOM     10  C   UNL     1      -4.952   2.455  24.541  0.00  0.00    +0.161 C 
ATOM     11  O   UNL     1      -5.676   2.061  24.566  0.00  0.00    -0.351 OA
ATOM     12  C   UNL     1      -5.315   1.419  24.936  0.00  0.00    +0.161 C 
ENDROOT
BRANCH   9   8
ATOM      8  C   UNL     1      -4.228   1.170  25.282  0.00  0.00    +0.070 C 
BRANCH   8   7
ATOM      5  C   UNL     1      -3.855  -0.801  24.554  0.00  0.00    +0.153 A 
ATOM      6  C   UNL     1      -4.002  -0.278  25.175  0.00  0.00    +0.054 A 
ATOM      7  C   UNL     1      -4.078   0.479  24.857  0.00  0.00    +0.102 A 
ATOM     22  N   UNL     1      -3.979   0.425  24.041  0.00  0.00    -0.082 NA
ATOM     23  O   UNL     1      -3.841  -0.366  23.853  0.00  0.00    -0.358 OA
BRANCH   5   2
ATOM      1  C   UNL     1      -3.629  -2.430  24.688  0.00  0.00    +0.008 C 
ATOM      2  C   UNL     1      -3.742  -1.615  24.621  0.00  0.00    +0.054 C 
ATOM      3  C   UNL     1      -3.296  -1.498  25.305  0.00  0.00    +0.008 C 
ATOM      4  C   UNL     1      -4.188  -1.733  23.937  0.00  0.00    +0.008 C 
ENDBRANCH   5   2
ENDBRANCH   8   7
ENDBRANCH   9   8
BRANCH   9  13
ATOM     13  N   UNL     1      -3.865   2.207  24.887  0.00  0.00    -0.211 NA
BRANCH  13  14
ATOM     14  C   UNL     1      -3.788   2.949  25.239  0.00  0.00    +0.117 C 
BRANCH  14  15
ATOM     15  C   UNL     1      -3.052   3.321  25.259  0.00  0.00    +0.023 A 
ATOM     16  C   UNL     1      -2.488   3.148  24.682  0.00  0.00    -0.001 A 
ATOM     17  C   UNL     1      -1.751   3.519  24.701  0.00  0.00    -0.000 A 
ATOM     18  C   UNL     1      -1.579   4.063  25.297  0.00  0.00    +0.002 A 
ATOM     19  C   UNL     1      -2.143   4.236  25.874  0.00  0.00    +0.029 A 
ATOM     20  C   UNL     1      -2.880   3.864  25.854  0.00  0.00    +0.137 A 
ATOM     21  F   UNL     1      -3.444   4.037  26.431  0.00  0.00    -0.204 F 
ENDBRANCH  14  15
ENDBRANCH  13  14
ENDBRANCH   9  13
TORSDOF 6
ENDMDL
MODEL 3
REMARK VINA RESULT:      -9.9      2.086      4.427
REMARK  Name = 
REMARK  6 active torsions:
REMARK  status: ('A' for Active; 'I' for Inactive)
REMARK    1  A    between atoms: C_2  and  C_5
REMARK    2  A    between atoms: C_7  and  C_8
REMARK    3  A    between atoms: C_8  and  C_9
REMARK    4  A    between atoms: C_9  and  N_13
REMARK    5  A    between atoms: N_13  and  C_14
REMARK    6  A    between atoms: C_14  and  C_15
REMARK                            x       y       z     vdW  Elec       q    Type
REMARK                         _______ _______ _______ _____ _____    ______ ____
ROOT
ATOM      9  C   UNL     1      -3.131   1.321  23.902  0.00  0.00    +0.120 C 
ATOM     10  C   UNL     1      -3.178   1.915  23.330  0.00  0.00    +0.161 C 
ATOM     11  O   UNL     1      -2.502   1.615  22.964  0.00  0.00    -0.351 OA
ATOM     12  C   UNL     1      -2.455   1.022  23.534  0.00  0.00    +0.161 C 
ENDROOT
BRANCH   9   8
ATOM      8  C   UNL     1      -3.084   0.728  24.472  0.00  0.00    +0.070 C 
BRANCH   8   7
ATOM      5  C   UNL     1      -3.592  -1.344  24.378  0.00  0.00    +0.153 A 
ATOM      6  C   UNL     1      -3.215  -0.710  24.748  0.00  0.00    +0.054 A 
ATOM      7  C   UNL     1      -3.358  -0.032  24.302  0.00  0.00    +0.102 A 
ATOM     22  N   UNL     1      -3.823  -0.245  23.656  0.00  0.00    -0.082 NA
ATOM     23  O   UNL     1      -3.968  -1.056  23.702  0.00  0.00    -0.358 OA
BRANCH   5   2
ATOM      1  C   UNL     1      -3.595  -2.910  24.894  0.00  0.00    +0.008 C 
ATOM      2  C   UNL     1      -3.593  -2.127  24.636  0.00  0.00    +0.054 C 
ATOM      3  C   UNL     1      -3.218  -1.898  25.335  0.00  0.00    +0.008 C 
ATOM      4  C   UNL     1      -3.968  -2.356  23.938  0.00  0.00    +0.008 C 
ENDBRANCH   5   2
ENDBRANCH   8   7
ENDBRANCH   9   8
BRANCH   9  13
ATOM     13  N   UNL     1      -3.807   1.621  24.268  0.00  0.00    -0.211 NA
BRANCH  13  14
ATOM     14  C   UNL     1      -3.830   2.411  24.505  0.00  0.00    +0.117 C 
BRANCH  14  15
ATOM     15  C   UNL     1      -4.483   2.697  24.920  0.00  0.00    +0.023 A 
ATOM     16  C   UNL     1      -5.190   2.272  24.918  0.00  0.00    -0.001 A 
ATOM     17  C   UNL     1      -5.845   2.557  25.333  0.00  0.00    -0.000 A 
ATOM     18  C   UNL     1      -5.790   3.268  25.748  0.00  0.00    +0.002 A 
ATOM     19  C   UNL     1      -5.083   3.694  25.750  0.00  0.00    +0.029 A 
ATOM     20  C   UNL     1      -4.430   3.407  25.335  0.00  0.00    +0.137 A 
ATOM     21  F   UNL     1      -3.723   3.833  25.336  0.00  0.00    -0.204 F 
ENDBRANCH  14  15
ENDBRANCH  13  14
ENDBRANCH   9  13
TORSDOF 6
ENDMDL
