MODEL 1
REMARK VINA RESULT:     -10.4      0.000      0.000
REMARK  Name = 
REMARK  6 active torsions:
REMARK  status: ('A' for Active; 'I' for Inactive)
REMARK    1  A    between atoms: C_4  and  C_5
REMARK    2  A    between atoms: N_7  and  C_8
REMARK    3  A    between atoms: C_11  and  C_14
REMARK    4  A    between atoms: N_19  and  C_20
REMARK    5  A    between atoms: C_20  and  C_21
REMARK    6  A    between atoms: C_27  and  C_28
REMARK                            x       y       z     vdW  Elec       q    Type
REMARK                         _______ _______ _______ _____ _____    ______ ____
ROOT
ATOM      8  C   UNL     1      -1.103   1.958  24.917  0.00  0.00    +0.074 A 
ATOM      9  C   UNL     1      -1.426   1.609  24.244  0.00  0.00    +0.016 A 
ATOM     10  C   UNL     1      -1.505   0.789  24.201  0.00  0.00    -0.001 A 
ATOM     11  C   UNL     1      -1.261   0.317  24.832  0.00  0.00    +0.006 A 
ATOM     12  C   UNL     1      -0.938   0.667  25.507  0.00  0.00    -0.001 A 
ATOM     13  C   UNL     1      -0.859   1.487  25.549  0.00  0.00    +0.016 A 
ENDROOT
BRANCH  11  14
ATOM     14  C   UNL     1      -1.340  -0.502  24.789  0.00  0.00    +0.159 C 
ATOM     15  O   UNL     1      -0.721  -0.962  24.497  0.00  0.00    -0.341 OA
ATOM     16  C   UNL     1      -0.801  -1.782  24.454  0.00  0.00    +0.227 C 
ATOM     17  C   UNL     1      -1.500  -2.142  24.704  0.00  0.00    +0.256 C 
ATOM     18  O   UNL     1      -1.580  -2.962  24.661  0.00  0.00    -0.272 OA
ATOM     19  N   UNL     1      -2.119  -1.682  24.996  0.00  0.00    -0.270 N 
ATOM     27  C   UNL     1      -2.040  -0.863  25.039  0.00  0.00    +0.140 C 
BRANCH  27  28
ATOM     28  C   UNL     1      -2.659  -0.403  25.331  0.00  0.00    +0.205 C 
ATOM     29  O   UNL     1      -2.867  -0.450  26.128  0.00  0.00    -0.218 OA
ENDBRANCH  27  28
BRANCH  19  20
ATOM     20  C   UNL     1      -2.818  -2.043  25.246  0.00  0.00    +0.122 C 
BRANCH  20  21
ATOM     21  C   UNL     1      -3.372  -2.297  24.691  0.00  0.00    +0.017 A 
ATOM     22  C   UNL     1      -3.863  -1.749  24.317  0.00  0.00    +0.001 A 
ATOM     23  C   UNL     1      -4.418  -2.003  23.762  0.00  0.00    +0.020 A 
ATOM     24  C   UNL     1      -4.482  -2.805  23.580  0.00  0.00    +0.099 A 
ATOM     25  N   UNL     1      -3.991  -3.353  23.953  0.00  0.00    -0.243 NA
ATOM     26  C   UNL     1      -3.436  -3.099  24.509  0.00  0.00    +0.096 A 
ENDBRANCH  20  21
ENDBRANCH  19  20
ENDBRANCH  11  14
BRANCH   8   7
ATOM      5  C   UNL     1      -1.682   3.249  25.121  0.00  0.00    +0.272 C 
ATOM      6  O   UNL     1      -2.420   2.898  25.239  0.00  0.00    -0.268 OA
ATOM      7  N   UNL     1      -1.024   2.778  24.960  0.00  0.00    -0.175 NA
BRANCH   5   4
ATOM      1  C   UNL     1      -0.686   5.950  24.745  0.00  0.00    +0.072 C 
ATOM      2  C   UNL     1      -1.145   5.310  24.991  0.00  0.00    +0.123 A 
ATOM      3  C   UNL     1      -1.013   4.518  24.803  0.00  0.00    +0.040 A 
ATOM      4  C   UNL     1      -1.603   4.069  25.164  0.00  0.00    +0.088 A 
ATOM     30  C   UNL     1      -2.099   4.583  25.576  0.00  0.00    +0.127 A 
ATOM     31  C   UNL     1      -2.762   4.367  26.017  0.00  0.00    +0.073 C 
ATOM     32  O   UNL     1      -1.816   5.350  25.469  0.00  0.00    -0.462 OA
ENDBRANCH   5   4
ENDBRANCH   8   7
TORSDOF 6
ENDMDL
MODEL 2
REMARK VINA RESULT:      -9.5      1.630      6.270
REMARK  Name = 
REMARK  6 active torsions:
REMARK  status: ('A' for Active; 'I' for Inactive)
REMARK    1  A    between atoms: C_4  and  C_5
REMARK    2  A    between atoms: N_7  and  C_8
REMARK    3  A    between atoms: C_11  and  C_14
REMARK    4  A    between atoms: N_19  and  C_20
REMARK    5  A    between atoms: C_20  and  C_21
REMARK    6  A    between atoms: C_27  and  C_28
REMARK                            x       y       z     vdW  Elec       q    Type
REMARK                         _______ _______ _______ _____ _____    ______ ____
ROOT
ATOM      8  C   UNL     1      -4.024   0.197  24.228  0.00  0.00    +0.074 A 
ATOM      9  C   UNL     1      -3.465   0.584  23.761  0.00  0.00    +0.016 A 
ATOM     10  C   UNL     1      -3.368   1.401  23.825  0.00  0.00    -0.001 A 
ATOM     11  C   UNL     1      -3.831   1.831  24.355  0.00  0.00    +0.006 A 
ATOM     12  C   UNL     1      -4.391   1.444  24.822  0.00  0.00    -0.001 A 
ATOM     13  C   UNL     1      -4.488   0.627  24.758  0.00  0.00    +0.016 A 
ENDROOT
BRANCH  11  14
ATOM     14  C   UNL     1      -3.735   2.648  24.419  0.00  0.00    +0.159 C 
ATOM     15  O   UNL     1      -4.207   3.155  23.973  0.00  0.00    -0.341 OA
ATOM     16  C   UNL     1      -4.110   3.972  24.037  0.00  0.00    +0.227 C 
ATOM     17  C   UNL     1      -3.540   4.281  24.547  0.00  0.00    +0.256 C 
ATOM     18  O   UNL     1      -3.443   5.098  24.611  0.00  0.00    -0.272 OA
ATOM     19  N   UNL     1      -3.068   3.773  24.993  0.00  0.00    -0.270 N 
ATOM     27  C   UNL     1      -3.164   2.957  24.930  0.00  0.00    +0.140 C 
BRANCH  27  28
ATOM     28  C   UNL     1      -2.692   2.449  25.376  0.00  0.00    +0.205 C 
ATOM     29  O   UNL     1      -2.755   2.442  26.198  0.00  0.00    -0.218 OA
ENDBRANCH  27  28
BRANCH  19  20
ATOM     20  C   UNL     1      -2.497   4.082  25.504  0.00  0.00    +0.122 C 
BRANCH  20  21
ATOM     21  C   UNL     1      -1.798   4.396  25.200  0.00  0.00    +0.017 A 
ATOM     22  C   UNL     1      -1.676   5.213  25.206  0.00  0.00    +0.001 A 
ATOM     23  C   UNL     1      -0.977   5.527  24.901  0.00  0.00    +0.020 A 
ATOM     24  C   UNL     1      -0.400   5.026  24.592  0.00  0.00    +0.099 A 
ATOM     25  N   UNL     1      -0.521   4.210  24.586  0.00  0.00    -0.243 NA
ATOM     26  C   UNL     1      -1.221   3.895  24.890  0.00  0.00    +0.096 A 
ENDBRANCH  20  21
ENDBRANCH  19  20
ENDBRANCH  11  14
BRANCH   8   7
ATOM      5  C   UNL     1      -3.584  -1.129  24.529  0.00  0.00    +0.272 C 
ATOM      6  O   UNL     1      -2.950  -0.820  24.958  0.00  0.00    -0.268 OA
ATOM      7  N   UNL     1      -4.121  -0.619  24.164  0.00  0.00    -0.175 NA
BRANCH   5   4
ATOM      1  C   UNL     1      -4.256  -3.758  23.494  0.00  0.00    +0.072 C 
ATOM      2  C   UNL     1      -3.990  -3.154  23.989  0.00  0.00    +0.123 A 
ATOM      3  C   UNL     1      -3.996  -2.347  23.817  0.00  0.00    +0.040 A 
ATOM      4  C   UNL     1      -3.681  -1.946  24.465  0.00  0.00    +0.088 A 
ATOM     30  C   UNL     1      -3.481  -2.505  25.038  0.00  0.00    +0.127 A 
ATOM     31  C   UNL     1      -3.148  -2.343  25.776  0.00  0.00    +0.073 C 
ATOM     32  O   UNL     1      -3.672  -3.250  24.744  0.00  0.00    -0.462 OA
ENDBRANCH   5   4
ENDBRANCH   8   7
TORSDOF 6
ENDMDL
MODEL 3
REMARK VINA RESULT:      -9.4      3.019      4.940
REMARK  Name = 
REMARK  6 active torsions:
REMARK  status: ('A' for Active; 'I' for Inactive)
REMARK    1  A    between atoms: C_4  and  C_5
REMARK    2  A    between atoms: N_7  and  C_8
REMARK    3  A    between atoms: C_11  and  C_14
REMARK    4  A    between atoms: N_19  and  C_20
REMARK    5  A    between atoms: C_20  and  C_21
REMARK    6  A    between atoms: C_27  and  C_28
REMARK                            x       y       z     vdW  Elec       q    Type
REMARK                         _______ _______ _______ _____ _____    ______ ____
ROOT
ATOM      8  C   UNL     1       0.075   1.982  24.429  0.00  0.00    +0.074 A 
ATOM      9  C   UNL     1      -0.408   1.593  24.973  0.00  0.00    +0.016 A 
ATOM     10  C   UNL     1      -1.096   1.955  25.247  0.00  0.00    -0.001 A 
ATOM     11  C   UNL     1      -1.302   2.708  24.978  0.00  0.00    +0.006 A 
ATOM     12  C   UNL     1      -0.818   3.097  24.434  0.00  0.00    -0.001 A 
ATOM     13  C   UNL     1      -0.130   2.734  24.160  0.00  0.00    +0.016 A 
ENDROOT
BRANCH  11  14
ATOM     14  C   UNL     1      -1.990   3.071  25.252  0.00  0.00    +0.159 C 
ATOM     15  O   UNL     1      -1.966   3.545  25.926  0.00  0.00    -0.341 OA
ATOM     16  C   UNL     1      -2.655   3.908  26.200  0.00  0.00    +0.227 C 
ATOM     17  C   UNL     1      -3.367   3.796  25.799  0.00  0.00    +0.256 C 
ATOM     18  O   UNL     1      -4.056   4.158  26.073  0.00  0.00    -0.272 OA
ATOM     19  N   UNL     1      -3.391   3.321  25.126  0.00  0.00    -0.270 N 
ATOM     27  C   UNL     1      -2.703   2.958  24.851  0.00  0.00    +0.140 C 
BRANCH  27  28
ATOM     28  C   UNL     1      -2.727   2.483  24.178  0.00  0.00    +0.205 C 
ATOM     29  O   UNL     1      -2.870   2.822  23.439  0.00  0.00    -0.218 OA
ENDBRANCH  27  28
BRANCH  19  20
ATOM     20  C   UNL     1      -4.104   3.208  24.725  0.00  0.00    +0.122 C 
BRANCH  20  21
ATOM     21  C   UNL     1      -4.691   2.734  25.055  0.00  0.00    +0.017 A 
ATOM     22  C   UNL     1      -4.669   1.915  24.950  0.00  0.00    +0.001 A 
ATOM     23  C   UNL     1      -5.257   1.441  25.280  0.00  0.00    +0.020 A 
ATOM     24  C   UNL     1      -5.868   1.783  25.715  0.00  0.00    +0.099 A 
ATOM     25  N   UNL     1      -5.891   2.601  25.821  0.00  0.00    -0.243 NA
ATOM     26  C   UNL     1      -5.302   3.076  25.491  0.00  0.00    +0.096 A 
ENDBRANCH  20  21
ENDBRANCH  19  20
ENDBRANCH  11  14
BRANCH   8   7
ATOM      5  C   UNL     1       0.729   1.098  23.516  0.00  0.00    +0.272 C 
ATOM      6  O   UNL     1       0.006   0.940  23.152  0.00  0.00    -0.268 OA
ATOM      7  N   UNL     1       0.763   1.619  24.155  0.00  0.00    -0.175 NA
BRANCH   5   4
ATOM      1  C   UNL     1       3.504   0.619  22.806  0.00  0.00    +0.072 C 
ATOM      2  C   UNL     1       2.693   0.515  22.916  0.00  0.00    +0.123 A 
ATOM      3  C   UNL     1       2.172   1.069  23.235  0.00  0.00    +0.040 A 
ATOM      4  C   UNL     1       1.418   0.735  23.242  0.00  0.00    +0.088 A 
ATOM     30  C   UNL     1       1.473  -0.025  22.927  0.00  0.00    +0.127 A 
ATOM     31  C   UNL     1       0.848  -0.556  22.831  0.00  0.00    +0.073 C 
ATOM     32  O   UNL     1       2.261  -0.161  22.726  0.00  0.00    -0.462 OA
ENDBRANCH   5   4
ENDBRANCH   8   7
TORSDOF 6
ENDMDL
MODEL 4
REMARK VINA RESULT:      -9.0      2.818      4.502
REMARK  Name = 
REMARK  6 active torsions:
REMARK  status: ('A' for Active; 'I' for Inactive)
REMARK    1  A    between atoms: C_4  and  C_5
REMARK    2  A    between atoms: N_7  and  C_8
REMARK    3  A    between atoms: C_11  and  C_14
REMARK    4  A    between atoms: N_19  and  C_20
REMARK    5  A    between atoms: C_20  and  C_21
REMARK    6  A    between atoms: C_27  and  C_28
REMARK                            x       y       z     vdW  Elec       q    Type
REMARK                         _______ _______ _______ _____ _____    ______ ____
ROOT
ATOM      8  C   UNL     1      -0.086   0.003  24.089  0.00  0.00    +0.074 A 
ATOM      9  C   UNL     1      -0.565  -0.655  23.954  0.00  0.00    +0.016 A 
ATOM     10  C   UNL     1      -1.349  -0.654  24.208  0.00  0.00    -0.001 A 
ATOM     11  C   UNL     1      -1.655   0.005  24.599  0.00  0.00    +0.006 A 
ATOM     12  C   UNL     1      -1.176   0.663  24.735  0.00  0.00    -0.001 A 
ATOM     13  C   UNL     1      -0.391   0.662  24.480  0.00  0.00    +0.016 A 
ENDROOT
BRANCH  11  14
ATOM     14  C   UNL     1      -2.440   0.006  24.854  0.00  0.00    +0.159 C 
ATOM     15  O   UNL     1      -2.676  -0.496  25.464  0.00  0.00    -0.341 OA
ATOM     16  C   UNL     1      -3.461  -0.494  25.718  0.00  0.00    +0.227 C 
ATOM     17  C   UNL     1      -4.009   0.009  25.363  0.00  0.00    +0.256 C 
ATOM     18  O   UNL     1      -4.794   0.010  25.617  0.00  0.00    -0.272 OA
ATOM     19  N   UNL     1      -3.772   0.511  24.753  0.00  0.00    -0.270 N 
ATOM     27  C   UNL     1      -2.988   0.510  24.498  0.00  0.00    +0.140 C 
BRANCH  27  28
ATOM     28  C   UNL     1      -2.752   1.012  23.888  0.00  0.00    +0.205 C 
ATOM     29  O   UNL     1      -3.046   0.902  23.126  0.00  0.00    -0.218 OA
ENDBRANCH  27  28
BRANCH  19  20
ATOM     20  C   UNL     1      -4.321   1.015  24.397  0.00  0.00    +0.122 C 
BRANCH  20  21
ATOM     21  C   UNL     1      -4.630   1.652  24.819  0.00  0.00    +0.017 A 
ATOM     22  C   UNL     1      -5.431   1.666  25.018  0.00  0.00    +0.001 A 
ATOM     23  C   UNL     1      -5.740   2.303  25.440  0.00  0.00    +0.020 A 
ATOM     24  C   UNL     1      -5.249   2.928  25.663  0.00  0.00    +0.099 A 
ATOM     25  N   UNL     1      -4.448   2.915  25.464  0.00  0.00    -0.243 NA
ATOM     26  C   UNL     1      -4.139   2.277  25.042  0.00  0.00    +0.096 A 
ENDBRANCH  20  21
ENDBRANCH  19  20
ENDBRANCH  11  14
BRANCH   8   7
ATOM      5  C   UNL     1       0.883   0.235  23.065  0.00  0.00    +0.272 C 
ATOM      6  O   UNL     1       0.282   0.469  22.550  0.00  0.00    -0.268 OA
ATOM      7  N   UNL     1       0.699   0.002  23.835  0.00  0.00    -0.175 NA
BRANCH   5   4
ATOM      1  C   UNL     1       3.744   0.716  22.931  0.00  0.00    +0.072 C 
ATOM      2  C   UNL     1       2.983   0.455  22.749  0.00  0.00    +0.123 A 
ATOM      3  C   UNL     1       2.303   0.594  23.194  0.00  0.00    +0.040 A 
ATOM      4  C   UNL     1       1.669   0.234  22.810  0.00  0.00    +0.088 A 
ATOM     30  C   UNL     1       1.956  -0.128  22.127  0.00  0.00    +0.127 A 
ATOM     31  C   UNL     1       1.508  -0.551  21.578  0.00  0.00    +0.073 C 
ATOM     32  O   UNL     1       2.768   0.009  22.089  0.00  0.00    -0.462 OA
ENDBRANCH   5   4
ENDBRANCH   8   7
TORSDOF 6
ENDMDL
MODEL 5
REMARK VINA RESULT:      -8.4      1.268      5.995
REMARK  Name = 
REMARK  6 active torsions:
REMARK  status: ('A' for Active; 'I' for Inactive)
REMARK    1  A    between atoms: C_4  and  C_5
REMARK    2  A    between atoms: N_7  and  C_8
REMARK    3  A    between atoms: C_11  and  C_14
REMARK    4  A    between atoms: N_19  and  C_20
REMARK    5  A    between atoms: C_20  and  C_21
REMARK    6  A    between atoms: C_27  and  C_28
REMARK                            x       y       z     vdW  Elec       q    Type
REMARK                         _______ _______ _______ _____ _____    ______ ____
ROOT
ATOM      8  C   UNL     1      -2.213  -0.373  24.527  0.00  0.00    +0.074 A 
ATOM      9  C   UNL     1      -2.615   0.291  24.804  0.00  0.00    +0.016 A 
ATOM     10  C   UNL     1      -2.193   0.948  25.071  0.00  0.00    -0.001 A 
ATOM     11  C   UNL     1      -1.368   0.941  25.059  0.00  0.00    +0.006 A 
ATOM     12  C   UNL     1      -0.966   0.276  24.781  0.00  0.00    -0.001 A 
ATOM     13  C   UNL     1      -1.388  -0.381  24.515  0.00  0.00    +0.016 A 
ENDROOT
BRANCH  11  14
ATOM     14  C   UNL     1      -0.946   1.597  25.325  0.00  0.00    +0.159 C 
ATOM     15  O   UNL     1      -0.553   1.569  26.050  0.00  0.00    -0.341 OA
ATOM     16  C   UNL     1      -0.130   2.227  26.316  0.00  0.00    +0.227 C 
ATOM     17  C   UNL     1      -0.102   2.911  25.857  0.00  0.00    +0.256 C 
ATOM     18  O   UNL     1       0.321   3.569  26.123  0.00  0.00    -0.272 OA
ATOM     19  N   UNL     1      -0.495   2.939  25.133  0.00  0.00    -0.270 N 
ATOM     27  C   UNL     1      -0.917   2.283  24.866  0.00  0.00    +0.140 C 
BRANCH  27  28
ATOM     28  C   UNL     1      -1.310   2.311  24.142  0.00  0.00    +0.205 C 
ATOM     29  O   UNL     1      -0.879   2.348  23.440  0.00  0.00    -0.218 OA
ENDBRANCH  27  28
BRANCH  19  20
ATOM     20  C   UNL     1      -0.466   3.625  24.674  0.00  0.00    +0.122 C 
BRANCH  20  21
ATOM     21  C   UNL     1      -0.931   4.275  24.874  0.00  0.00    +0.017 A 
ATOM     22  C   UNL     1      -0.661   5.040  24.719  0.00  0.00    +0.001 A 
ATOM     23  C   UNL     1      -1.126   5.690  24.920  0.00  0.00    +0.020 A 
ATOM     24  C   UNL     1      -1.862   5.578  25.276  0.00  0.00    +0.099 A 
ATOM     25  N   UNL     1      -2.133   4.814  25.431  0.00  0.00    -0.243 NA
ATOM     26  C   UNL     1      -1.667   4.163  25.230  0.00  0.00    +0.096 A 
ENDBRANCH  20  21
ENDBRANCH  19  20
ENDBRANCH  11  14
BRANCH   8   7
ATOM      5  C   UNL     1      -3.125  -1.444  24.779  0.00  0.00    +0.272 C 
ATOM      6  O   UNL     1      -3.192  -1.201  25.565  0.00  0.00    -0.268 OA
ATOM      7  N   UNL     1      -2.635  -1.029  24.260  0.00  0.00    -0.175 NA
BRANCH   5   4
ATOM      1  C   UNL     1      -4.924  -3.137  23.253  0.00  0.00    +0.072 C 
ATOM      2  C   UNL     1      -4.374  -2.879  23.811  0.00  0.00    +0.123 A 
ATOM      3  C   UNL     1      -4.082  -2.111  23.885  0.00  0.00    +0.040 A 
ATOM      4  C   UNL     1      -3.547  -2.101  24.512  0.00  0.00    +0.088 A 
ATOM     30  C   UNL     1      -3.508  -2.863  24.827  0.00  0.00    +0.127 A 
ATOM     31  C   UNL     1      -3.039  -3.101  25.462  0.00  0.00    +0.073 C 
ATOM     32  O   UNL     1      -4.018  -3.343  24.393  0.00  0.00    -0.462 OA
ENDBRANCH   5   4
ENDBRANCH   8   7
TORSDOF 6
ENDMDL
MODEL 6
REMARK VINA RESULT:      -8.2      2.630      3.985
REMARK  Name = 
REMARK  6 active torsions:
REMARK  status: ('A' for Active; 'I' for Inactive)
REMARK    1  A    between atoms: C_4  and  C_5
REMARK    2  A    between atoms: N_7  and  C_8
REMARK    3  A    between atoms: C_11  and  C_14
REMARK    4  A    between atoms: N_19  and  C_20
REMARK    5  A    between atoms: C_20  and  C_21
REMARK    6  A    between atoms: C_27  and  C_28
REMARK                            x       y       z     vdW  Elec       q    Type
REMARK                         _______ _______ _______ _____ _____    ______ ____
ROOT
ATOM      8  C   UNL     1       0.348   0.913  23.696  0.00  0.00    +0.074 A 
ATOM      9  C   UNL     1       0.178   1.071  24.487  0.00  0.00    +0.016 A 
ATOM     10  C   UNL     1      -0.593   0.995  24.767  0.00  0.00    -0.001 A 
ATOM     11  C   UNL     1      -1.197   0.761  24.256  0.00  0.00    +0.006 A 
ATOM     12  C   UNL     1      -1.028   0.603  23.464  0.00  0.00    -0.001 A 
ATOM     13  C   UNL     1      -0.256   0.678  23.184  0.00  0.00    +0.016 A 
ENDROOT
BRANCH  11  14
ATOM     14  C   UNL     1      -1.969   0.685  24.536  0.00  0.00    +0.159 C 
ATOM     15  O   UNL     1      -2.482   1.330  24.514  0.00  0.00    -0.341 OA
ATOM     16  C   UNL     1      -3.254   1.254  24.794  0.00  0.00    +0.227 C 
ATOM     17  C   UNL     1      -3.513   0.532  25.097  0.00  0.00    +0.256 C 
ATOM     18  O   UNL     1      -4.285   0.455  25.378  0.00  0.00    -0.272 OA
ATOM     19  N   UNL     1      -3.000  -0.113  25.120  0.00  0.00    -0.270 N 
ATOM     27  C   UNL     1      -2.228  -0.038  24.840  0.00  0.00    +0.140 C 
BRANCH  27  28
ATOM     28  C   UNL     1      -1.716  -0.683  24.863  0.00  0.00    +0.205 C 
ATOM     29  O   UNL     1      -1.387  -0.924  25.579  0.00  0.00    -0.218 OA
ENDBRANCH  27  28
BRANCH  19  20
ATOM     20  C   UNL     1      -3.259  -0.836  25.423  0.00  0.00    +0.122 C 
BRANCH  20  21
ATOM     21  C   UNL     1      -3.603  -1.394  24.923  0.00  0.00    +0.017 A 
ATOM     22  C   UNL     1      -3.368  -2.184  24.962  0.00  0.00    +0.001 A 
ATOM     23  C   UNL     1      -3.712  -2.742  24.461  0.00  0.00    +0.020 A 
ATOM     24  C   UNL     1      -4.291  -2.511  23.922  0.00  0.00    +0.099 A 
ATOM     25  N   UNL     1      -4.527  -1.721  23.882  0.00  0.00    -0.243 NA
ATOM     26  C   UNL     1      -4.183  -1.163  24.384  0.00  0.00    +0.096 A 
ENDBRANCH  20  21
ENDBRANCH  19  20
ENDBRANCH  11  14
BRANCH   8   7
ATOM      5  C   UNL     1       1.525   0.326  23.138  0.00  0.00    +0.272 C 
ATOM      6  O   UNL     1       1.158  -0.413  23.142  0.00  0.00    -0.268 OA
ATOM      7  N   UNL     1       1.119   0.989  23.416  0.00  0.00    -0.175 NA
BRANCH   5   4
ATOM      1  C   UNL     1       4.334   1.038  22.939  0.00  0.00    +0.072 C 
ATOM      2  C   UNL     1       3.588   0.729  22.767  0.00  0.00    +0.123 A 
ATOM      3  C   UNL     1       2.918   0.786  23.243  0.00  0.00    +0.040 A 
ATOM      4  C   UNL     1       2.298   0.402  22.858  0.00  0.00    +0.088 A 
ATOM     30  C   UNL     1       2.586   0.107  22.143  0.00  0.00    +0.127 A 
ATOM     31  C   UNL     1       2.151  -0.315  21.584  0.00  0.00    +0.073 C 
ATOM     32  O   UNL     1       3.383   0.310  22.087  0.00  0.00    -0.462 OA
ENDBRANCH   5   4
ENDBRANCH   8   7
TORSDOF 6
ENDMDL
MODEL 7
REMARK VINA RESULT:      -7.9      1.336      2.063
REMARK  Name = 
REMARK  6 active torsions:
REMARK  status: ('A' for Active; 'I' for Inactive)
REMARK    1  A    between atoms: C_4  and  C_5
REMARK    2  A    between atoms: N_7  and  C_8
REMARK    3  A    between atoms: C_11  and  C_14
REMARK    4  A    between atoms: N_19  and  C_20
REMARK    5  A    between atoms: C_20  and  C_21
REMARK    6  A    between atoms: C_27  and  C_28
REMARK                            x       y       z     vdW  Elec       q    Type
REMARK                         _______ _______ _______ _____ _____    ______ ____
ROOT
ATOM      8  C   UNL     1      -2.828   2.475  24.404  0.00  0.00    +0.074 A 
ATOM      9  C   UNL     1      -3.433   2.241  24.912  0.00  0.00    +0.016 A 
ATOM     10  C   UNL     1      -3.726   1.471  24.877  0.00  0.00    -0.001 A 
ATOM     11  C   UNL     1      -3.414   0.935  24.333  0.00  0.00    +0.006 A 
ATOM     12  C   UNL     1      -2.809   1.170  23.824  0.00  0.00    -0.001 A 
ATOM     13  C   UNL     1      -2.516   1.940  23.859  0.00  0.00    +0.016 A 
ENDROOT
BRANCH  11  14
ATOM     14  C   UNL     1      -3.708   0.165  24.298  0.00  0.00    +0.159 C 
ATOM     15  O   UNL     1      -4.369  -0.005  23.836  0.00  0.00    -0.341 OA
ATOM     16  C   UNL     1      -4.662  -0.776  23.801  0.00  0.00    +0.227 C 
ATOM     17  C   UNL     1      -4.293  -1.376  24.229  0.00  0.00    +0.256 C 
ATOM     18  O   UNL     1      -4.586  -2.147  24.195  0.00  0.00    -0.272 OA
ATOM     19  N   UNL     1      -3.632  -1.207  24.692  0.00  0.00    -0.270 N 
ATOM     27  C   UNL     1      -3.339  -0.437  24.727  0.00  0.00    +0.140 C 
BRANCH  27  28
ATOM     28  C   UNL     1      -2.678  -0.267  25.190  0.00  0.00    +0.205 C 
ATOM     29  O   UNL     1      -2.731  -0.297  26.012  0.00  0.00    -0.218 OA
ENDBRANCH  27  28
BRANCH  19  20
ATOM     20  C   UNL     1      -3.263  -1.808  25.121  0.00  0.00    +0.122 C 
BRANCH  20  21
ATOM     21  C   UNL     1      -2.730  -2.314  24.747  0.00  0.00    +0.017 A 
ATOM     22  C   UNL     1      -1.920  -2.155  24.776  0.00  0.00    +0.001 A 
ATOM     23  C   UNL     1      -1.387  -2.660  24.402  0.00  0.00    +0.020 A 
ATOM     24  C   UNL     1      -1.662  -3.325  23.999  0.00  0.00    +0.099 A 
ATOM     25  N   UNL     1      -2.471  -3.485  23.969  0.00  0.00    -0.243 NA
ATOM     26  C   UNL     1      -3.005  -2.978  24.344  0.00  0.00    +0.096 A 
ENDBRANCH  20  21
ENDBRANCH  19  20
ENDBRANCH  11  14
BRANCH   8   7
ATOM      5  C   UNL     1      -1.923   3.431  24.960  0.00  0.00    +0.272 C 
ATOM      6  O   UNL     1      -1.604   2.846  25.446  0.00  0.00    -0.268 OA
ATOM      7  N   UNL     1      -2.535   3.246  24.439  0.00  0.00    -0.175 NA
BRANCH   5   4
ATOM      1  C   UNL     1      -1.779   6.326  25.138  0.00  0.00    +0.072 C 
ATOM      2  C   UNL     1      -1.564   5.532  25.076  0.00  0.00    +0.123 A 
ATOM      3  C   UNL     1      -2.080   4.890  25.061  0.00  0.00    +0.040 A 
ATOM      4  C   UNL     1      -1.630   4.202  24.994  0.00  0.00    +0.088 A 
ATOM     30  C   UNL     1      -0.834   4.420  24.969  0.00  0.00    +0.127 A 
ATOM     31  C   UNL     1      -0.193   3.905  24.904  0.00  0.00    +0.073 C 
ATOM     32  O   UNL     1      -0.794   5.242  25.019  0.00  0.00    -0.462 OA
ENDBRANCH   5   4
ENDBRANCH   8   7
TORSDOF 6
ENDMDL
