MODEL 1
REMARK VINA RESULT:     -11.2      0.000      0.000
REMARK  Name = 
REMARK  8 active torsions:
REMARK  status: ('A' for Active; 'I' for Inactive)
REMARK    1  A    between atoms: O_2  and  C_3
REMARK    2  A    between atoms: C_6  and  C_7
REMARK    3  A    between atoms: C_7  and  C_8
REMARK    4  A    between atoms: C_8  and  N_9
REMARK    5  A    between atoms: C_8  and  C_32
REMARK    6  A    between atoms: C_10  and  C_12
REMARK    7  A    between atoms: C_19  and  N_21
REMARK    8  A    between atoms: N_24  and  C_25
REMARK                            x       y       z     vdW  Elec       q    Type
REMARK                         _______ _______ _______ _____ _____    ______ ____
ROOT
ATOM     12  C   UNL     1      -1.036   1.252  25.138  0.00  0.00    +0.200 C 
ATOM     13  O   UNL     1      -1.594   1.410  25.724  0.00  0.00    -0.216 OA
ATOM     14  C   UNL     1      -0.427   1.372  24.595  0.00  0.00    +0.075 C 
ATOM     15  C   UNL     1      -0.156   0.745  24.133  0.00  0.00    +0.187 C 
ATOM     16  O   UNL     1       0.453   0.865  23.589  0.00  0.00    -0.220 OA
ATOM     17  C   UNL     1      -0.493  -0.003  24.214  0.00  0.00    +0.202 C 
ATOM     18  O   UNL     1      -0.223  -0.632  23.753  0.00  0.00    -0.219 OA
ATOM     19  C   UNL     1      -1.102  -0.125  24.758  0.00  0.00    +0.133 C 
ATOM     20  C   UNL     1      -1.373   0.504  25.220  0.00  0.00    +0.064 C 
ENDROOT
BRANCH  19  21
ATOM     21  N   UNL     1      -1.440  -0.872  24.841  0.00  0.00    -0.186 NA
ATOM     22  C   UNL     1      -1.076  -1.439  25.317  0.00  0.00    +0.344 C 
ATOM     23  O   UNL     1      -0.375  -1.258  25.711  0.00  0.00    -0.249 OA
ATOM     24  N   UNL     1      -1.414  -2.188  25.399  0.00  0.00    -0.161 NA
BRANCH  24  25
ATOM     25  C   UNL     1      -2.115  -2.369  25.005  0.00  0.00    +0.075 A 
ATOM     26  C   UNL     1      -2.842  -2.153  25.333  0.00  0.00    +0.016 A 
ATOM     27  C   UNL     1      -3.543  -2.334  24.939  0.00  0.00    -0.003 A 
ATOM     28  C   UNL     1      -3.519  -2.731  24.217  0.00  0.00    -0.022 A 
ATOM     29  C   UNL     1      -4.221  -2.912  23.823  0.00  0.00    +0.031 C 
ATOM     30  C   UNL     1      -2.794  -2.947  23.887  0.00  0.00    -0.003 A 
ATOM     31  C   UNL     1      -2.093  -2.765  24.282  0.00  0.00    +0.016 A 
ENDBRANCH  24  25
ENDBRANCH  19  21
BRANCH  12  10
ATOM      9  N   UNL     1      -1.413   2.617  24.955  0.00  0.00    -0.195 NA
ATOM     10  C   UNL     1      -0.892   2.055  25.260  0.00  0.00    +0.269 C 
ATOM     11  O   UNL     1      -0.227   2.296  25.685  0.00  0.00    -0.271 OA
BRANCH   9   8
ATOM      8  C   UNL     1      -1.269   3.421  25.076  0.00  0.00    +0.179 C 
BRANCH   8  32
ATOM     32  C   UNL     1      -0.709   3.814  24.615  0.00  0.00    +0.281 C 
ATOM     33  N   UNL     1      -0.135   4.285  24.974  0.00  0.00    -0.086 NA
ATOM     34  O   UNL     1      -0.725   3.735  23.793  0.00  0.00    -0.270 OA
ENDBRANCH   8  32
BRANCH   8   7
ATOM      7  C   UNL     1      -1.685   3.832  25.659  0.00  0.00    +0.057 C 
BRANCH   7   6
ATOM      3  C   UNL     1      -4.143   4.061  25.494  0.00  0.00    +0.139 A 
ATOM      4  C   UNL     1      -3.679   4.101  24.813  0.00  0.00    +0.037 A 
ATOM      5  C   UNL     1      -2.860   4.024  24.868  0.00  0.00    -0.001 A 
ATOM      6  C   UNL     1      -2.504   3.908  25.604  0.00  0.00    -0.020 A 
ATOM     35  C   UNL     1      -2.969   3.868  26.284  0.00  0.00    -0.001 A 
ATOM     36  C   UNL     1      -3.789   3.945  26.229  0.00  0.00    +0.037 A 
BRANCH   3   2
ATOM      1  C   UNL     1      -5.447   3.476  25.534  0.00  0.00    +0.252 C 
ATOM      2  O   UNL     1      -4.963   4.138  25.439  0.00  0.00    -0.471 OA
ENDBRANCH   3   2
ENDBRANCH   7   6
ENDBRANCH   8   7
ENDBRANCH   9   8
ENDBRANCH  12  10
TORSDOF 8
ENDMDL
MODEL 2
REMARK VINA RESULT:     -10.3      2.520      4.979
REMARK  Name = 
REMARK  8 active torsions:
REMARK  status: ('A' for Active; 'I' for Inactive)
REMARK    1  A    between atoms: O_2  and  C_3
REMARK    2  A    between atoms: C_6  and  C_7
REMARK    3  A    between atoms: C_7  and  C_8
REMARK    4  A    between atoms: C_8  and  N_9
REMARK    5  A    between atoms: C_8  and  C_32
REMARK    6  A    between atoms: C_10  and  C_12
REMARK    7  A    between atoms: C_19  and  N_21
REMARK    8  A    between atoms: N_24  and  C_25
REMARK                            x       y       z     vdW  Elec       q    Type
REMARK                         _______ _______ _______ _____ _____    ______ ____
ROOT
ATOM     12  C   UNL     1      -0.447   0.658  24.404  0.00  0.00    +0.200 C 
ATOM     13  O   UNL     1      -0.653  -0.138  24.338  0.00  0.00    -0.216 OA
ATOM     14  C   UNL     1      -0.496   1.457  24.600  0.00  0.00    +0.075 C 
ATOM     15  C   UNL     1       0.118   1.970  24.399  0.00  0.00    +0.187 C 
ATOM     16  O   UNL     1       0.069   2.770  24.594  0.00  0.00    -0.220 OA
ATOM     17  C   UNL     1       0.781   1.684  24.002  0.00  0.00    +0.202 C 
ATOM     18  O   UNL     1       1.396   2.196  23.801  0.00  0.00    -0.219 OA
ATOM     19  C   UNL     1       0.832   0.883  23.806  0.00  0.00    +0.133 C 
ATOM     20  C   UNL     1       0.217   0.371  24.008  0.00  0.00    +0.064 C 
ENDROOT
BRANCH  19  21
ATOM     21  N   UNL     1       1.495   0.596  23.410  0.00  0.00    -0.186 NA
ATOM     22  C   UNL     1       1.405   0.175  22.706  0.00  0.00    +0.344 C 
ATOM     23  O   UNL     1       0.651   0.042  22.399  0.00  0.00    -0.249 OA
ATOM     24  N   UNL     1       2.069  -0.112  22.309  0.00  0.00    -0.161 NA
BRANCH  24  25
ATOM     25  C   UNL     1       2.822   0.021  22.616  0.00  0.00    +0.075 A 
ATOM     26  C   UNL     1       3.151  -0.514  23.152  0.00  0.00    +0.016 A 
ATOM     27  C   UNL     1       3.905  -0.380  23.459  0.00  0.00    -0.003 A 
ATOM     28  C   UNL     1       4.330   0.288  23.230  0.00  0.00    -0.022 A 
ATOM     29  C   UNL     1       5.084   0.422  23.538  0.00  0.00    +0.031 C 
ATOM     30  C   UNL     1       4.003   0.824  22.695  0.00  0.00    -0.003 A 
ATOM     31  C   UNL     1       3.248   0.690  22.388  0.00  0.00    +0.016 A 
ENDBRANCH  24  25
ENDBRANCH  19  21
BRANCH  12  10
ATOM      9  N   UNL     1      -1.864   0.488  24.351  0.00  0.00    -0.195 NA
ATOM     10  C   UNL     1      -1.182   0.668  24.778  0.00  0.00    +0.269 C 
ATOM     11  O   UNL     1      -1.235   0.860  25.579  0.00  0.00    -0.271 OA
BRANCH   9   8
ATOM      8  C   UNL     1      -2.600   0.499  24.725  0.00  0.00    +0.179 C 
BRANCH   8  32
ATOM     32  C   UNL     1      -3.103   1.145  24.626  0.00  0.00    +0.281 C 
ATOM     33  N   UNL     1      -3.456   1.499  25.283  0.00  0.00    -0.086 NA
ATOM     34  O   UNL     1      -3.253   1.438  23.869  0.00  0.00    -0.270 OA
ENDBRANCH   8  32
BRANCH   8   7
ATOM      7  C   UNL     1      -2.833  -0.137  25.197  0.00  0.00    +0.057 C 
BRANCH   7   6
ATOM      3  C   UNL     1      -4.001  -2.068  24.185  0.00  0.00    +0.139 A 
ATOM      4  C   UNL     1      -4.153  -1.305  23.911  0.00  0.00    +0.037 A 
ATOM      5  C   UNL     1      -3.764  -0.661  24.249  0.00  0.00    -0.001 A 
ATOM      6  C   UNL     1      -3.222  -0.780  24.860  0.00  0.00    -0.020 A 
ATOM     35  C   UNL     1      -3.070  -1.544  25.133  0.00  0.00    -0.001 A 
ATOM     36  C   UNL     1      -3.460  -2.188  24.795  0.00  0.00    +0.037 A 
BRANCH   3   2
ATOM      1  C   UNL     1      -4.000  -3.435  23.765  0.00  0.00    +0.252 C 
ATOM      2  O   UNL     1      -4.391  -2.713  23.847  0.00  0.00    -0.471 OA
ENDBRANCH   3   2
ENDBRANCH   7   6
ENDBRANCH   8   7
ENDBRANCH   9   8
ENDBRANCH  12  10
TORSDOF 8
ENDMDL
MODEL 3
REMARK VINA RESULT:     -10.3      2.576      4.641
REMARK  Name = 
REMARK  8 active torsions:
REMARK  status: ('A' for Active; 'I' for Inactive)
REMARK    1  A    between atoms: O_2  and  C_3
REMARK    2  A    between atoms: C_6  and  C_7
REMARK    3  A    between atoms: C_7  and  C_8
REMARK    4  A    between atoms: C_8  and  N_9
REMARK    5  A    between atoms: C_8  and  C_32
REMARK    6  A    between atoms: C_10  and  C_12
REMARK    7  A    between atoms: C_19  and  N_21
REMARK    8  A    between atoms: N_24  and  C_25
REMARK                            x       y       z     vdW  Elec       q    Type
REMARK                         _______ _______ _______ _____ _____    ______ ____
ROOT
ATOM     12  C   UNL     1      -0.409  -0.250  24.436  0.00  0.00    +0.200 C 
ATOM     13  O   UNL     1      -0.463  -1.046  24.228  0.00  0.00    -0.216 OA
ATOM     14  C   UNL     1      -0.597   0.476  24.779  0.00  0.00    +0.075 C 
ATOM     15  C   UNL     1      -0.104   1.127  24.663  0.00  0.00    +0.187 C 
ATOM     16  O   UNL     1      -0.292   1.854  25.005  0.00  0.00    -0.220 OA
ATOM     17  C   UNL     1       0.577   1.053  24.204  0.00  0.00    +0.202 C 
ATOM     18  O   UNL     1       1.070   1.704  24.087  0.00  0.00    -0.219 OA
ATOM     19  C   UNL     1       0.766   0.327  23.860  0.00  0.00    +0.133 C 
ATOM     20  C   UNL     1       0.272  -0.324  23.977  0.00  0.00    +0.064 C 
ENDROOT
BRANCH  19  21
ATOM     21  N   UNL     1       1.446   0.252  23.401  0.00  0.00    -0.186 NA
ATOM     22  C   UNL     1       1.385   0.059  22.601  0.00  0.00    +0.344 C 
ATOM     23  O   UNL     1       0.643  -0.059  22.261  0.00  0.00    -0.249 OA
ATOM     24  N   UNL     1       2.067  -0.016  22.142  0.00  0.00    -0.161 NA
BRANCH  24  25
ATOM     25  C   UNL     1       2.809   0.102  22.482  0.00  0.00    +0.075 A 
ATOM     26  C   UNL     1       3.188   0.831  22.406  0.00  0.00    +0.016 A 
ATOM     27  C   UNL     1       3.929   0.949  22.746  0.00  0.00    -0.003 A 
ATOM     28  C   UNL     1       4.293   0.338  23.163  0.00  0.00    -0.022 A 
ATOM     29  C   UNL     1       5.035   0.456  23.504  0.00  0.00    +0.031 C 
ATOM     30  C   UNL     1       3.915  -0.392  23.241  0.00  0.00    -0.003 A 
ATOM     31  C   UNL     1       3.173  -0.509  22.900  0.00  0.00    +0.016 A 
ENDBRANCH  24  25
ENDBRANCH  19  21
BRANCH  12  10
ATOM      9  N   UNL     1      -1.825  -0.433  24.415  0.00  0.00    -0.195 NA
ATOM     10  C   UNL     1      -1.108  -0.452  24.823  0.00  0.00    +0.269 C 
ATOM     11  O   UNL     1      -1.092  -0.672  25.618  0.00  0.00    -0.271 OA
BRANCH   9   8
ATOM      8  C   UNL     1      -2.526  -0.635  24.802  0.00  0.00    +0.179 C 
BRANCH   8  32
ATOM     32  C   UNL     1      -2.888  -1.360  24.648  0.00  0.00    +0.281 C 
ATOM     33  N   UNL     1      -3.063  -1.874  25.268  0.00  0.00    -0.086 NA
ATOM     34  O   UNL     1      -3.074  -1.570  23.871  0.00  0.00    -0.270 OA
ENDBRANCH   8  32
BRANCH   8   7
ATOM      7  C   UNL     1      -2.864  -0.111  25.343  0.00  0.00    +0.057 C 
BRANCH   7   6
ATOM      3  C   UNL     1      -4.837   1.234  24.694  0.00  0.00    +0.139 A 
ATOM      4  C   UNL     1      -4.091   1.427  24.398  0.00  0.00    +0.037 A 
ATOM      5  C   UNL     1      -3.434   0.979  24.615  0.00  0.00    -0.001 A 
ATOM      6  C   UNL     1      -3.521   0.337  25.126  0.00  0.00    -0.020 A 
ATOM     35  C   UNL     1      -4.267   0.144  25.422  0.00  0.00    -0.001 A 
ATOM     36  C   UNL     1      -4.925   0.593  25.205  0.00  0.00    +0.037 A 
BRANCH   3   2
ATOM      1  C   UNL     1      -5.885   2.142  25.041  0.00  0.00    +0.252 C 
ATOM      2  O   UNL     1      -5.495   1.683  24.477  0.00  0.00    -0.471 OA
ENDBRANCH   3   2
ENDBRANCH   7   6
ENDBRANCH   8   7
ENDBRANCH   9   8
ENDBRANCH  12  10
TORSDOF 8
ENDMDL
MODEL 4
REMARK VINA RESULT:     -10.0      1.371      5.127
REMARK  Name = 
REMARK  8 active torsions:
REMARK  status: ('A' for Active; 'I' for Inactive)
REMARK    1  A    between atoms: O_2  and  C_3
REMARK    2  A    between atoms: C_6  and  C_7
REMARK    3  A    between atoms: C_7  and  C_8
REMARK    4  A    between atoms: C_8  and  N_9
REMARK    5  A    between atoms: C_8  and  C_32
REMARK    6  A    between atoms: C_10  and  C_12
REMARK    7  A    between atoms: C_19  and  N_21
REMARK    8  A    between atoms: N_24  and  C_25
REMARK                            x       y       z     vdW  Elec       q    Type
REMARK                         _______ _______ _______ _____ _____    ______ ____
ROOT
ATOM     12  C   UNL     1      -0.915   1.583  24.556  0.00  0.00    +0.200 C 
ATOM     13  O   UNL     1      -1.213   1.307  23.838  0.00  0.00    -0.216 OA
ATOM     14  C   UNL     1      -0.412   1.671  25.204  0.00  0.00    +0.075 C 
ATOM     15  C   UNL     1      -0.601   2.206  25.803  0.00  0.00    +0.187 C 
ATOM     16  O   UNL     1      -0.099   2.295  26.452  0.00  0.00    -0.220 OA
ATOM     17  C   UNL     1      -1.292   2.654  25.754  0.00  0.00    +0.202 C 
ATOM     18  O   UNL     1      -1.482   3.189  26.352  0.00  0.00    -0.219 OA
ATOM     19  C   UNL     1      -1.795   2.566  25.105  0.00  0.00    +0.133 C 
ATOM     20  C   UNL     1      -1.606   2.031  24.507  0.00  0.00    +0.064 C 
ENDROOT
BRANCH  19  21
ATOM     21  N   UNL     1      -2.486   3.013  25.055  0.00  0.00    -0.186 NA
ATOM     22  C   UNL     1      -2.465   3.769  24.726  0.00  0.00    +0.344 C 
ATOM     23  O   UNL     1      -1.754   4.078  24.447  0.00  0.00    -0.249 OA
ATOM     24  N   UNL     1      -3.157   4.217  24.677  0.00  0.00    -0.161 NA
BRANCH  24  25
ATOM     25  C   UNL     1      -3.869   3.908  24.956  0.00  0.00    +0.075 A 
ATOM     26  C   UNL     1      -4.325   3.417  24.473  0.00  0.00    +0.016 A 
ATOM     27  C   UNL     1      -5.036   3.108  24.752  0.00  0.00    -0.003 A 
ATOM     28  C   UNL     1      -5.293   3.289  25.514  0.00  0.00    -0.022 A 
ATOM     29  C   UNL     1      -6.005   2.980  25.793  0.00  0.00    +0.031 C 
ATOM     30  C   UNL     1      -4.839   3.780  25.998  0.00  0.00    -0.003 A 
ATOM     31  C   UNL     1      -4.127   4.088  25.718  0.00  0.00    +0.016 A 
ENDBRANCH  24  25
ENDBRANCH  19  21
BRANCH  12  10
ATOM      9  N   UNL     1      -0.534   0.300  24.057  0.00  0.00    -0.195 NA
ATOM     10  C   UNL     1      -0.327   1.040  24.356  0.00  0.00    +0.269 C 
ATOM     11  O   UNL     1       0.468   1.237  24.456  0.00  0.00    -0.271 OA
BRANCH   9   8
ATOM      8  C   UNL     1       0.054  -0.244  23.857  0.00  0.00    +0.179 C 
BRANCH   8  32
ATOM     32  C   UNL     1       0.542  -0.103  23.207  0.00  0.00    +0.281 C 
ATOM     33  N   UNL     1       1.362  -0.120  23.295  0.00  0.00    -0.086 NA
ATOM     34  O   UNL     1       0.208   0.056  22.469  0.00  0.00    -0.270 OA
ENDBRANCH   8  32
BRANCH   8   7
ATOM      7  C   UNL     1       0.153  -0.928  24.308  0.00  0.00    +0.057 C 
BRANCH   7   6
ATOM      3  C   UNL     1      -1.771  -2.430  24.717  0.00  0.00    +0.139 A 
ATOM      4  C   UNL     1      -1.517  -2.285  23.946  0.00  0.00    +0.037 A 
ATOM      5  C   UNL     1      -0.876  -1.785  23.809  0.00  0.00    -0.001 A 
ATOM      6  C   UNL     1      -0.488  -1.428  24.444  0.00  0.00    -0.020 A 
ATOM     35  C   UNL     1      -0.741  -1.573  25.216  0.00  0.00    -0.001 A 
ATOM     36  C   UNL     1      -1.383  -2.074  25.353  0.00  0.00    +0.037 A 
BRANCH   3   2
ATOM      1  C   UNL     1      -3.182  -2.640  24.796  0.00  0.00    +0.252 C 
ATOM      2  O   UNL     1      -2.412  -2.931  24.854  0.00  0.00    -0.471 OA
ENDBRANCH   3   2
ENDBRANCH   7   6
ENDBRANCH   8   7
ENDBRANCH   9   8
ENDBRANCH  12  10
TORSDOF 8
ENDMDL
MODEL 5
REMARK VINA RESULT:      -9.9      2.180      3.286
REMARK  Name = 
REMARK  8 active torsions:
REMARK  status: ('A' for Active; 'I' for Inactive)
REMARK    1  A    between atoms: O_2  and  C_3
REMARK    2  A    between atoms: C_6  and  C_7
REMARK    3  A    between atoms: C_7  and  C_8
REMARK    4  A    between atoms: C_8  and  N_9
REMARK    5  A    between atoms: C_8  and  C_32
REMARK    6  A    between atoms: C_10  and  C_12
REMARK    7  A    between atoms: C_19  and  N_21
REMARK    8  A    between atoms: N_24  and  C_25
REMARK                            x       y       z     vdW  Elec       q    Type
REMARK                         _______ _______ _______ _____ _____    ______ ____
ROOT
ATOM     12  C   UNL     1      -4.338   1.290  24.648  0.00  0.00    +0.200 C 
ATOM     13  O   UNL     1      -4.702   1.158  25.376  0.00  0.00    -0.216 OA
ATOM     14  C   UNL     1      -4.094   1.679  23.963  0.00  0.00    +0.075 C 
ATOM     15  C   UNL     1      -3.631   1.283  23.407  0.00  0.00    +0.187 C 
ATOM     16  O   UNL     1      -3.386   1.671  22.721  0.00  0.00    -0.220 OA
ATOM     17  C   UNL     1      -3.410   0.499  23.536  0.00  0.00    +0.202 C 
ATOM     18  O   UNL     1      -2.947   0.103  22.981  0.00  0.00    -0.219 OA
ATOM     19  C   UNL     1      -3.654   0.110  24.222  0.00  0.00    +0.133 C 
ATOM     20  C   UNL     1      -4.118   0.506  24.777  0.00  0.00    +0.064 C 
ENDROOT
BRANCH  19  21
ATOM     21  N   UNL     1      -3.434  -0.674  24.352  0.00  0.00    -0.186 NA
ATOM     22  C   UNL     1      -3.998  -1.274  24.302  0.00  0.00    +0.344 C 
ATOM     23  O   UNL     1      -4.782  -1.090  24.123  0.00  0.00    -0.249 OA
ATOM     24  N   UNL     1      -3.778  -2.059  24.433  0.00  0.00    -0.161 NA
BRANCH  24  25
ATOM     25  C   UNL     1      -2.994  -2.243  24.612  0.00  0.00    +0.075 A 
ATOM     26  C   UNL     1      -2.499  -2.555  24.030  0.00  0.00    +0.016 A 
ATOM     27  C   UNL     1      -1.715  -2.739  24.210  0.00  0.00    -0.003 A 
ATOM     28  C   UNL     1      -1.426  -2.611  24.971  0.00  0.00    -0.022 A 
ATOM     29  C   UNL     1      -0.643  -2.795  25.151  0.00  0.00    +0.031 C 
ATOM     30  C   UNL     1      -1.921  -2.300  25.554  0.00  0.00    -0.003 A 
ATOM     31  C   UNL     1      -2.705  -2.116  25.374  0.00  0.00    +0.016 A 
ENDBRANCH  24  25
ENDBRANCH  19  21
BRANCH  12  10
ATOM      9  N   UNL     1      -4.352   2.555  25.313  0.00  0.00    -0.195 NA
ATOM     10  C   UNL     1      -4.684   2.028  24.771  0.00  0.00    +0.269 C 
ATOM     11  O   UNL     1      -5.363   2.241  24.353  0.00  0.00    -0.271 OA
BRANCH   9   8
ATOM      8  C   UNL     1      -4.699   3.294  25.436  0.00  0.00    +0.179 C 
BRANCH   8  32
ATOM     32  C   UNL     1      -5.352   3.364  25.934  0.00  0.00    +0.281 C 
ATOM     33  N   UNL     1      -5.996   3.827  25.707  0.00  0.00    -0.086 NA
ATOM     34  O   UNL     1      -5.362   2.971  26.660  0.00  0.00    -0.270 OA
ENDBRANCH   8  32
BRANCH   8   7
ATOM      7  C   UNL     1      -4.391   3.961  25.061  0.00  0.00    +0.057 C 
BRANCH   7   6
ATOM      3  C   UNL     1      -2.036   4.618  25.441  0.00  0.00    +0.139 A 
ATOM      4  C   UNL     1      -2.494   4.342  26.069  0.00  0.00    +0.037 A 
ATOM      5  C   UNL     1      -3.278   4.124  25.943  0.00  0.00    -0.001 A 
ATOM      6  C   UNL     1      -3.606   4.180  25.188  0.00  0.00    -0.020 A 
ATOM     35  C   UNL     1      -3.149   4.456  24.559  0.00  0.00    -0.001 A 
ATOM     36  C   UNL     1      -2.363   4.675  24.686  0.00  0.00    +0.037 A 
BRANCH   3   2
ATOM      1  C   UNL     1      -0.661   4.577  25.052  0.00  0.00    +0.252 C 
ATOM      2  O   UNL     1      -1.250   4.837  25.567  0.00  0.00    -0.471 OA
ENDBRANCH   3   2
ENDBRANCH   7   6
ENDBRANCH   8   7
ENDBRANCH   9   8
ENDBRANCH  12  10
TORSDOF 8
ENDMDL
MODEL 6
REMARK VINA RESULT:      -9.7      2.500      4.236
REMARK  Name = 
REMARK  8 active torsions:
REMARK  status: ('A' for Active; 'I' for Inactive)
REMARK    1  A    between atoms: O_2  and  C_3
REMARK    2  A    between atoms: C_6  and  C_7
REMARK    3  A    between atoms: C_7  and  C_8
REMARK    4  A    between atoms: C_8  and  N_9
REMARK    5  A    between atoms: C_8  and  C_32
REMARK    6  A    between atoms: C_10  and  C_12
REMARK    7  A    between atoms: C_19  and  N_21
REMARK    8  A    between atoms: N_24  and  C_25
REMARK                            x       y       z     vdW  Elec       q    Type
REMARK                         _______ _______ _______ _____ _____    ______ ____
ROOT
ATOM     12  C   UNL     1      -0.639   0.519  23.827  0.00  0.00    +0.200 C 
ATOM     13  O   UNL     1      -0.736   1.216  23.398  0.00  0.00    -0.216 OA
ATOM     14  C   UNL     1      -0.805  -0.105  24.340  0.00  0.00    +0.075 C 
ATOM     15  C   UNL     1      -0.245  -0.698  24.464  0.00  0.00    +0.187 C 
ATOM     16  O   UNL     1      -0.412  -1.323  24.978  0.00  0.00    -0.220 OA
ATOM     17  C   UNL     1       0.481  -0.668  24.076  0.00  0.00    +0.202 C 
ATOM     18  O   UNL     1       1.042  -1.260  24.199  0.00  0.00    -0.219 OA
ATOM     19  C   UNL     1       0.649  -0.044  23.562  0.00  0.00    +0.133 C 
ATOM     20  C   UNL     1       0.088   0.549  23.439  0.00  0.00    +0.064 C 
ENDROOT
BRANCH  19  21
ATOM     21  N   UNL     1       1.375  -0.012  23.173  0.00  0.00    -0.186 NA
ATOM     22  C   UNL     1       1.415  -0.159  22.363  0.00  0.00    +0.344 C 
ATOM     23  O   UNL     1       0.729  -0.338  21.941  0.00  0.00    -0.249 OA
ATOM     24  N   UNL     1       2.143  -0.128  21.973  0.00  0.00    -0.161 NA
BRANCH  24  25
ATOM     25  C   UNL     1       2.828   0.050  22.395  0.00  0.00    +0.075 A 
ATOM     26  C   UNL     1       3.288  -0.557  22.713  0.00  0.00    +0.016 A 
ATOM     27  C   UNL     1       3.974  -0.379  23.135  0.00  0.00    -0.003 A 
ATOM     28  C   UNL     1       4.201   0.407  23.239  0.00  0.00    -0.022 A 
ATOM     29  C   UNL     1       4.887   0.585  23.660  0.00  0.00    +0.031 C 
ATOM     30  C   UNL     1       3.742   1.015  22.921  0.00  0.00    -0.003 A 
ATOM     31  C   UNL     1       3.056   0.836  22.500  0.00  0.00    +0.016 A 
ENDBRANCH  24  25
ENDBRANCH  19  21
BRANCH  12  10
ATOM      9  N   UNL     1      -1.662   1.505  23.969  0.00  0.00    -0.195 NA
ATOM     10  C   UNL     1      -1.399   0.729  24.067  0.00  0.00    +0.269 C 
ATOM     11  O   UNL     1      -1.897   0.165  24.405  0.00  0.00    -0.271 OA
BRANCH   9   8
ATOM      8  C   UNL     1      -2.423   1.717  24.209  0.00  0.00    +0.179 C 
BRANCH   8  32
ATOM     32  C   UNL     1      -3.063   1.592  23.705  0.00  0.00    +0.281 C 
ATOM     33  N   UNL     1      -3.734   1.197  23.978  0.00  0.00    -0.086 NA
ATOM     34  O   UNL     1      -3.033   1.862  22.925  0.00  0.00    -0.270 OA
ENDBRANCH   8  32
BRANCH   8   7
ATOM      7  C   UNL     1      -2.543   2.053  24.953  0.00  0.00    +0.057 C 
BRANCH   7   6
ATOM      3  C   UNL     1      -1.942   4.420  25.352  0.00  0.00    +0.139 A 
ATOM      4  C   UNL     1      -1.498   3.817  25.699  0.00  0.00    +0.037 A 
ATOM      5  C   UNL     1      -1.698   3.029  25.566  0.00  0.00    -0.001 A 
ATOM      6  C   UNL     1      -2.342   2.841  25.086  0.00  0.00    -0.020 A 
ATOM     35  C   UNL     1      -2.787   3.443  24.740  0.00  0.00    -0.001 A 
ATOM     36  C   UNL     1      -2.587   4.233  24.873  0.00  0.00    +0.037 A 
BRANCH   3   2
ATOM      1  C   UNL     1      -1.205   5.589  24.986  0.00  0.00    +0.252 C 
ATOM      2  O   UNL     1      -1.742   5.209  25.485  0.00  0.00    -0.471 OA
ENDBRANCH   3   2
ENDBRANCH   7   6
ENDBRANCH   8   7
ENDBRANCH   9   8
ENDBRANCH  12  10
TORSDOF 8
ENDMDL
MODEL 7
REMARK VINA RESULT:      -9.7      1.968      6.110
REMARK  Name = 
REMARK  8 active torsions:
REMARK  status: ('A' for Active; 'I' for Inactive)
REMARK    1  A    between atoms: O_2  and  C_3
REMARK    2  A    between atoms: C_6  and  C_7
REMARK    3  A    between atoms: C_7  and  C_8
REMARK    4  A    between atoms: C_8  and  N_9
REMARK    5  A    between atoms: C_8  and  C_32
REMARK    6  A    between atoms: C_10  and  C_12
REMARK    7  A    between atoms: C_19  and  N_21
REMARK    8  A    between atoms: N_24  and  C_25
REMARK                            x       y       z     vdW  Elec       q    Type
REMARK                         _______ _______ _______ _____ _____    ______ ____
ROOT
ATOM     12  C   UNL     1      -3.733   1.232  25.043  0.00  0.00    +0.200 C 
ATOM     13  O   UNL     1      -3.108   0.846  25.419  0.00  0.00    -0.216 OA
ATOM     14  C   UNL     1      -4.442   1.346  24.638  0.00  0.00    +0.075 C 
ATOM     15  C   UNL     1      -4.691   2.109  24.449  0.00  0.00    +0.187 C 
ATOM     16  O   UNL     1      -5.401   2.223  24.044  0.00  0.00    -0.220 OA
ATOM     17  C   UNL     1      -4.232   2.759  24.665  0.00  0.00    +0.202 C 
ATOM     18  O   UNL     1      -4.480   3.522  24.476  0.00  0.00    -0.219 OA
ATOM     19  C   UNL     1      -3.522   2.645  25.070  0.00  0.00    +0.133 C 
ATOM     20  C   UNL     1      -3.273   1.882  25.259  0.00  0.00    +0.064 C 
ENDROOT
BRANCH  19  21
ATOM     21  N   UNL     1      -3.061   3.294  25.286  0.00  0.00    -0.186 NA
ATOM     22  C   UNL     1      -3.217   3.694  25.990  0.00  0.00    +0.344 C 
ATOM     23  O   UNL     1      -3.833   3.445  26.479  0.00  0.00    -0.249 OA
ATOM     24  N   UNL     1      -2.757   4.344  26.207  0.00  0.00    -0.161 NA
BRANCH  24  25
ATOM     25  C   UNL     1      -2.141   4.594  25.718  0.00  0.00    +0.075 A 
ATOM     26  C   UNL     1      -1.452   4.142  25.658  0.00  0.00    +0.016 A 
ATOM     27  C   UNL     1      -0.836   4.391  25.169  0.00  0.00    -0.003 A 
ATOM     28  C   UNL     1      -0.908   5.092  24.741  0.00  0.00    -0.022 A 
ATOM     29  C   UNL     1      -0.292   5.341  24.253  0.00  0.00    +0.031 C 
ATOM     30  C   UNL     1      -1.595   5.545  24.801  0.00  0.00    -0.003 A 
ATOM     31  C   UNL     1      -2.211   5.295  25.290  0.00  0.00    +0.016 A 
ENDBRANCH  24  25
ENDBRANCH  19  21
BRANCH  12  10
ATOM      9  N   UNL     1      -3.496  -0.090  24.558  0.00  0.00    -0.195 NA
ATOM     10  C   UNL     1      -3.976   0.449  24.958  0.00  0.00    +0.269 C 
ATOM     11  O   UNL     1      -4.698   0.204  25.272  0.00  0.00    -0.271 OA
BRANCH   9   8
ATOM      8  C   UNL     1      -3.740  -0.875  24.472  0.00  0.00    +0.179 C 
BRANCH   8  32
ATOM     32  C   UNL     1      -4.201  -1.094  23.824  0.00  0.00    +0.281 C 
ATOM     33  N   UNL     1      -4.884  -1.543  23.936  0.00  0.00    -0.086 NA
ATOM     34  O   UNL     1      -3.979  -0.864  23.063  0.00  0.00    -0.270 OA
ENDBRANCH   8  32
BRANCH   8   7
ATOM      7  C   UNL     1      -3.521  -1.438  25.033  0.00  0.00    +0.057 C 
BRANCH   7   6
ATOM      3  C   UNL     1      -1.264  -2.449  24.958  0.00  0.00    +0.139 A 
ATOM      4  C   UNL     1      -1.404  -1.786  25.430  0.00  0.00    +0.037 A 
ATOM      5  C   UNL     1      -2.156  -1.450  25.454  0.00  0.00    -0.001 A 
ATOM      6  C   UNL     1      -2.769  -1.775  25.008  0.00  0.00    -0.020 A 
ATOM     35  C   UNL     1      -2.629  -2.437  24.537  0.00  0.00    -0.001 A 
ATOM     36  C   UNL     1      -1.876  -2.775  24.512  0.00  0.00    +0.037 A 
BRANCH   3   2
ATOM      1  C   UNL     1       0.118  -2.421  25.324  0.00  0.00    +0.252 C 
ATOM      2  O   UNL     1      -0.511  -2.786  24.933  0.00  0.00    -0.471 OA
ENDBRANCH   3   2
ENDBRANCH   7   6
ENDBRANCH   8   7
ENDBRANCH   9   8
ENDBRANCH  12  10
TORSDOF 8
ENDMDL
MODEL 8
REMARK VINA RESULT:      -9.2      2.251      3.348
REMARK  Name = 
REMARK  8 active torsions:
REMARK  status: ('A' for Active; 'I' for Inactive)
REMARK    1  A    between atoms: O_2  and  C_3
REMARK    2  A    between atoms: C_6  and  C_7
REMARK    3  A    between atoms: C_7  and  C_8
REMARK    4  A    between atoms: C_8  and  N_9
REMARK    5  A    between atoms: C_8  and  C_32
REMARK    6  A    between atoms: C_10  and  C_12
REMARK    7  A    between atoms: C_19  and  N_21
REMARK    8  A    between atoms: N_24  and  C_25
REMARK                            x       y       z     vdW  Elec       q    Type
REMARK                         _______ _______ _______ _____ _____    ______ ____
ROOT
ATOM     12  C   UNL     1      -1.264   2.605  24.457  0.00  0.00    +0.200 C 
ATOM     13  O   UNL     1      -1.827   2.456  23.873  0.00  0.00    -0.216 OA
ATOM     14  C   UNL     1      -0.891   2.960  25.101  0.00  0.00    +0.075 C 
ATOM     15  C   UNL     1      -0.168   2.669  25.371  0.00  0.00    +0.187 C 
ATOM     16  O   UNL     1       0.206   3.024  26.015  0.00  0.00    -0.220 OA
ATOM     17  C   UNL     1       0.184   2.024  24.996  0.00  0.00    +0.202 C 
ATOM     18  O   UNL     1       0.907   1.733  25.265  0.00  0.00    -0.219 OA
ATOM     19  C   UNL     1      -0.189   1.668  24.351  0.00  0.00    +0.133 C 
ATOM     20  C   UNL     1      -0.913   1.959  24.083  0.00  0.00    +0.064 C 
ENDROOT
BRANCH  19  21
ATOM     21  N   UNL     1       0.161   1.023  23.976  0.00  0.00    -0.186 NA
ATOM     22  C   UNL     1      -0.163   0.269  24.063  0.00  0.00    +0.344 C 
ATOM     23  O   UNL     1      -0.838   0.161  24.525  0.00  0.00    -0.249 OA
ATOM     24  N   UNL     1       0.187  -0.377  23.688  0.00  0.00    -0.161 NA
BRANCH  24  25
ATOM     25  C   UNL     1       0.862  -0.269  23.226  0.00  0.00    +0.075 A 
ATOM     26  C   UNL     1       0.791  -0.127  22.416  0.00  0.00    +0.016 A 
ATOM     27  C   UNL     1       1.466  -0.019  21.954  0.00  0.00    -0.003 A 
ATOM     28  C   UNL     1       2.212  -0.053  22.302  0.00  0.00    -0.022 A 
ATOM     29  C   UNL     1       2.887   0.055  21.840  0.00  0.00    +0.031 C 
ATOM     30  C   UNL     1       2.285  -0.194  23.112  0.00  0.00    -0.003 A 
ATOM     31  C   UNL     1       1.610  -0.302  23.573  0.00  0.00    +0.016 A 
ENDBRANCH  24  25
ENDBRANCH  19  21
BRANCH  12  10
ATOM      9  N   UNL     1      -2.481   3.024  25.076  0.00  0.00    -0.195 NA
ATOM     10  C   UNL     1      -1.810   3.198  24.629  0.00  0.00    +0.269 C 
ATOM     11  O   UNL     1      -1.685   3.966  24.354  0.00  0.00    -0.271 OA
BRANCH   9   8
ATOM      8  C   UNL     1      -3.027   3.619  25.249  0.00  0.00    +0.179 C 
BRANCH   8  32
ATOM     32  C   UNL     1      -2.906   4.114  25.898  0.00  0.00    +0.281 C 
ATOM     33  N   UNL     1      -2.825   4.927  25.787  0.00  0.00    -0.086 NA
ATOM     34  O   UNL     1      -2.867   3.794  26.658  0.00  0.00    -0.270 OA
ENDBRANCH   8  32
BRANCH   8   7
ATOM      7  C   UNL     1      -3.694   3.717  24.773  0.00  0.00    +0.057 C 
BRANCH   7   6
ATOM      3  C   UNL     1      -5.722   2.362  25.189  0.00  0.00    +0.139 A 
ATOM      4  C   UNL     1      -5.186   2.134  24.604  0.00  0.00    +0.037 A 
ATOM      5  C   UNL     1      -4.511   2.585  24.466  0.00  0.00    -0.001 A 
ATOM      6  C   UNL     1      -4.369   3.266  24.911  0.00  0.00    -0.020 A 
ATOM     35  C   UNL     1      -4.905   3.494  25.496  0.00  0.00    -0.001 A 
ATOM     36  C   UNL     1      -5.582   3.041  25.635  0.00  0.00    +0.037 A 
BRANCH   3   2
ATOM      1  C   UNL     1      -6.534   1.588  26.075  0.00  0.00    +0.252 C 
ATOM      2  O   UNL     1      -6.399   1.910  25.327  0.00  0.00    -0.471 OA
ENDBRANCH   3   2
ENDBRANCH   7   6
ENDBRANCH   8   7
ENDBRANCH   9   8
ENDBRANCH  12  10
TORSDOF 8
ENDMDL
