MODEL 1
REMARK VINA RESULT:     -10.9      0.000      0.000
REMARK  Name = 
REMARK  6 active torsions:
REMARK  status: ('A' for Active; 'I' for Inactive)
REMARK    1  A    between atoms: O_2  and  C_3
REMARK    2  A    between atoms: C_6  and  C_9
REMARK    3  A    between atoms: C_12  and  C_14
REMARK    4  A    between atoms: N_18  and  C_19
REMARK    5  A    between atoms: C_19  and  C_20
REMARK    6  A    between atoms: C_23  and  C_26
REMARK                            x       y       z     vdW  Elec       q    Type
REMARK                         _______ _______ _______ _____ _____    ______ ____
ROOT
ATOM     14  C   UNL     1      -4.826   1.777  24.938  0.00  0.00    +0.138 C 
ATOM     15  C   UNL     1      -5.542   1.893  25.331  0.00  0.00    +0.027 C 
ATOM     16  C   UNL     1      -5.855   1.153  25.514  0.00  0.00    +0.019 C 
ATOM     17  C   UNL     1      -5.333   0.578  25.234  0.00  0.00    +0.073 C 
ATOM     18  N   UNL     1      -4.696   0.965  24.877  0.00  0.00    -0.263 NA
ENDROOT
BRANCH  14  12
ATOM      9  C   UNL     1      -3.324   3.246  24.557  0.00  0.00    +0.205 A 
ATOM     10  N   UNL     1      -3.793   3.319  23.882  0.00  0.00    -0.056 NA
ATOM     11  O   UNL     1      -4.413   2.777  23.942  0.00  0.00    -0.336 OA
ATOM     12  C   UNL     1      -4.327   2.370  24.655  0.00  0.00    +0.251 A 
ATOM     13  N   UNL     1      -3.654   2.660  25.034  0.00  0.00    -0.190 NA
BRANCH   9   6
ATOM      3  C   UNL     1      -1.287   4.558  25.061  0.00  0.00    +0.225 A 
ATOM      4  N   UNL     1      -1.237   3.881  24.592  0.00  0.00    -0.210 NA
ATOM      5  C   UNL     1      -1.916   3.444  24.424  0.00  0.00    +0.105 A 
ATOM      6  C   UNL     1      -2.645   3.683  24.725  0.00  0.00    +0.058 A 
ATOM      7  C   UNL     1      -2.696   4.360  25.194  0.00  0.00    +0.010 A 
ATOM      8  C   UNL     1      -2.017   4.798  25.362  0.00  0.00    +0.058 A 
BRANCH   3   2
ATOM      1  C   UNL     1      -0.238   5.427  24.631  0.00  0.00    +0.254 C 
ATOM      2  O   UNL     1      -0.607   4.995  25.228  0.00  0.00    -0.456 OA
ENDBRANCH   3   2
ENDBRANCH   9   6
ENDBRANCH  14  12
BRANCH  18  19
ATOM     19  C   UNL     1      -4.046   0.602  24.524  0.00  0.00    +0.099 C 
BRANCH  19  20
ATOM     20  C   UNL     1      -3.959  -0.217  24.561  0.00  0.00    -0.006 A 
ATOM     21  C   UNL     1      -4.220  -0.689  23.938  0.00  0.00    -0.003 A 
ATOM     22  C   UNL     1      -4.133  -1.509  23.975  0.00  0.00    +0.006 A 
ATOM     23  C   UNL     1      -3.784  -1.856  24.638  0.00  0.00    +0.080 A 
ATOM     24  C   UNL     1      -3.523  -1.384  25.261  0.00  0.00    +0.006 A 
ATOM     25  C   UNL     1      -3.610  -0.565  25.224  0.00  0.00    -0.003 A 
BRANCH  23  26
ATOM     26  C   UNL     1      -3.697  -2.676  24.675  0.00  0.00    +0.388 C 
ATOM     27  O   UNL     1      -3.966  -3.149  24.054  0.00  0.00    -0.241 OA
ATOM     28  O   UNL     1      -3.341  -3.022  25.334  0.00  0.00    -0.241 OA
ENDBRANCH  23  26
ENDBRANCH  19  20
ENDBRANCH  18  19
TORSDOF 6
ENDMDL
MODEL 2
REMARK VINA RESULT:     -10.3      1.163      5.343
REMARK  Name = 
REMARK  6 active torsions:
REMARK  status: ('A' for Active; 'I' for Inactive)
REMARK    1  A    between atoms: O_2  and  C_3
REMARK    2  A    between atoms: C_6  and  C_9
REMARK    3  A    between atoms: C_12  and  C_14
REMARK    4  A    between atoms: N_18  and  C_19
REMARK    5  A    between atoms: C_19  and  C_20
REMARK    6  A    between atoms: C_23  and  C_26
REMARK                            x       y       z     vdW  Elec       q    Type
REMARK                         _______ _______ _______ _____ _____    ______ ____
ROOT
ATOM     14  C   UNL     1      -4.568   1.975  24.798  0.00  0.00    +0.138 C 
ATOM     15  C   UNL     1      -5.219   2.275  24.389  0.00  0.00    +0.027 C 
ATOM     16  C   UNL     1      -5.103   3.084  24.281  0.00  0.00    +0.019 C 
ATOM     17  C   UNL     1      -4.379   3.285  24.623  0.00  0.00    +0.073 C 
ATOM     18  N   UNL     1      -4.049   2.599  24.943  0.00  0.00    -0.263 NA
ENDROOT
BRANCH  14  12
ATOM      9  C   UNL     1      -4.039  -0.079  25.041  0.00  0.00    +0.205 A 
ATOM     10  N   UNL     1      -4.530   0.038  25.694  0.00  0.00    -0.056 NA
ATOM     11  O   UNL     1      -4.788   0.822  25.683  0.00  0.00    -0.336 OA
ATOM     12  C   UNL     1      -4.457   1.189  25.023  0.00  0.00    +0.251 A 
ATOM     13  N   UNL     1      -3.994   0.633  24.626  0.00  0.00    -0.190 NA
BRANCH   9   6
ATOM      3  C   UNL     1      -2.903  -2.192  24.434  0.00  0.00    +0.225 A 
ATOM      4  N   UNL     1      -2.511  -1.629  24.891  0.00  0.00    -0.210 NA
ATOM      5  C   UNL     1      -2.890  -0.925  25.094  0.00  0.00    +0.105 A 
ATOM      6  C   UNL     1      -3.661  -0.783  24.838  0.00  0.00    +0.058 A 
ATOM      7  C   UNL     1      -4.054  -1.346  24.381  0.00  0.00    +0.010 A 
ATOM      8  C   UNL     1      -3.676  -2.050  24.178  0.00  0.00    +0.058 A 
BRANCH   3   2
ATOM      1  C   UNL     1      -1.701  -2.925  24.192  0.00  0.00    +0.254 C 
ATOM      2  O   UNL     1      -2.525  -2.897  24.231  0.00  0.00    -0.456 OA
ENDBRANCH   3   2
ENDBRANCH   9   6
ENDBRANCH  14  12
BRANCH  18  19
ATOM     19  C   UNL     1      -3.327   2.548  25.338  0.00  0.00    +0.099 C 
BRANCH  19  20
ATOM     20  C   UNL     1      -2.773   3.155  25.266  0.00  0.00    -0.006 A 
ATOM     21  C   UNL     1      -2.207   3.129  24.668  0.00  0.00    -0.003 A 
ATOM     22  C   UNL     1      -1.653   3.737  24.596  0.00  0.00    +0.006 A 
ATOM     23  C   UNL     1      -1.666   4.370  25.125  0.00  0.00    +0.080 A 
ATOM     24  C   UNL     1      -2.232   4.396  25.724  0.00  0.00    +0.006 A 
ATOM     25  C   UNL     1      -2.786   3.789  25.795  0.00  0.00    -0.003 A 
BRANCH  23  26
ATOM     26  C   UNL     1      -1.112   4.978  25.053  0.00  0.00    +0.388 C 
ATOM     27  O   UNL     1      -0.320   4.799  24.907  0.00  0.00    -0.241 OA
ATOM     28  O   UNL     1      -1.351   5.764  25.128  0.00  0.00    -0.241 OA
ENDBRANCH  23  26
ENDBRANCH  19  20
ENDBRANCH  18  19
TORSDOF 6
ENDMDL
MODEL 3
REMARK VINA RESULT:     -10.0      2.126      2.997
REMARK  Name = 
REMARK  6 active torsions:
REMARK  status: ('A' for Active; 'I' for Inactive)
REMARK    1  A    between atoms: O_2  and  C_3
REMARK    2  A    between atoms: C_6  and  C_9
REMARK    3  A    between atoms: C_12  and  C_14
REMARK    4  A    between atoms: N_18  and  C_19
REMARK    5  A    between atoms: C_19  and  C_20
REMARK    6  A    between atoms: C_23  and  C_26
REMARK                            x       y       z     vdW  Elec       q    Type
REMARK                         _______ _______ _______ _____ _____    ______ ____
ROOT
ATOM     14  C   UNL     1      -0.495   0.351  24.659  0.00  0.00    +0.138 C 
ATOM     15  C   UNL     1       0.134   0.187  24.150  0.00  0.00    +0.027 C 
ATOM     16  C   UNL     1       0.013  -0.563  23.829  0.00  0.00    +0.019 C 
ATOM     17  C   UNL     1      -0.691  -0.863  24.140  0.00  0.00    +0.073 C 
ATOM     18  N   UNL     1      -1.004  -0.297  24.653  0.00  0.00    -0.263 NA
ENDROOT
BRANCH  14  12
ATOM      9  C   UNL     1      -0.896   2.299  25.435  0.00  0.00    +0.205 A 
ATOM     10  N   UNL     1      -0.605   1.917  26.106  0.00  0.00    -0.056 NA
ATOM     11  O   UNL     1      -0.419   1.141  25.897  0.00  0.00    -0.336 OA
ATOM     12  C   UNL     1      -0.595   1.043  25.097  0.00  0.00    +0.251 A 
ATOM     13  N   UNL     1      -0.890   1.759  24.811  0.00  0.00    -0.190 NA
BRANCH   9   6
ATOM      3  C   UNL     1      -1.654   4.652  25.314  0.00  0.00    +0.225 A 
ATOM      4  N   UNL     1      -2.123   4.086  25.689  0.00  0.00    -0.210 NA
ATOM      5  C   UNL     1      -1.870   3.302  25.729  0.00  0.00    +0.105 A 
ATOM      6  C   UNL     1      -1.149   3.084  25.394  0.00  0.00    +0.058 A 
ATOM      7  C   UNL     1      -0.679   3.649  25.019  0.00  0.00    +0.010 A 
ATOM      8  C   UNL     1      -0.932   4.433  24.979  0.00  0.00    +0.058 A 
BRANCH   3   2
ATOM      1  C   UNL     1      -1.434   6.003  24.905  0.00  0.00    +0.254 C 
ATOM      2  O   UNL     1      -1.907   5.437  25.274  0.00  0.00    -0.456 OA
ENDBRANCH   3   2
ENDBRANCH   9   6
ENDBRANCH  14  12
BRANCH  18  19
ATOM     19  C   UNL     1      -1.704  -0.369  25.084  0.00  0.00    +0.099 C 
BRANCH  19  20
ATOM     20  C   UNL     1      -2.282  -0.906  24.846  0.00  0.00    -0.006 A 
ATOM     21  C   UNL     1      -2.233  -1.696  25.080  0.00  0.00    -0.003 A 
ATOM     22  C   UNL     1      -2.811  -2.234  24.842  0.00  0.00    +0.006 A 
ATOM     23  C   UNL     1      -3.439  -1.982  24.370  0.00  0.00    +0.080 A 
ATOM     24  C   UNL     1      -3.488  -1.192  24.136  0.00  0.00    +0.006 A 
ATOM     25  C   UNL     1      -2.910  -0.655  24.373  0.00  0.00    -0.003 A 
BRANCH  23  26
ATOM     26  C   UNL     1      -4.018  -2.520  24.131  0.00  0.00    +0.388 C 
ATOM     27  O   UNL     1      -4.692  -2.254  23.737  0.00  0.00    -0.241 OA
ATOM     28  O   UNL     1      -3.921  -3.324  24.288  0.00  0.00    -0.241 OA
ENDBRANCH  23  26
ENDBRANCH  19  20
ENDBRANCH  18  19
TORSDOF 6
ENDMDL
MODEL 4
REMARK VINA RESULT:      -9.9      2.332      6.194
REMARK  Name = 
REMARK  6 active torsions:
REMARK  status: ('A' for Active; 'I' for Inactive)
REMARK    1  A    between atoms: O_2  and  C_3
REMARK    2  A    between atoms: C_6  and  C_9
REMARK    3  A    between atoms: C_12  and  C_14
REMARK    4  A    between atoms: N_18  and  C_19
REMARK    5  A    between atoms: C_19  and  C_20
REMARK    6  A    between atoms: C_23  and  C_26
REMARK                            x       y       z     vdW  Elec       q    Type
REMARK                         _______ _______ _______ _____ _____    ______ ____
ROOT
ATOM     14  C   UNL     1      -0.219   0.609  24.460  0.00  0.00    +0.138 C 
ATOM     15  C   UNL     1       0.367   0.565  23.880  0.00  0.00    +0.027 C 
ATOM     16  C   UNL     1       0.659   1.326  23.754  0.00  0.00    +0.019 C 
ATOM     17  C   UNL     1       0.253   1.841  24.256  0.00  0.00    +0.073 C 
ATOM     18  N   UNL     1      -0.290   1.398  24.692  0.00  0.00    -0.263 NA
ENDROOT
BRANCH  14  12
ATOM      9  C   UNL     1      -1.575  -0.987  24.874  0.00  0.00    +0.205 A 
ATOM     10  N   UNL     1      -1.091  -1.012  25.542  0.00  0.00    -0.056 NA
ATOM     11  O   UNL     1      -0.524  -0.417  25.468  0.00  0.00    -0.336 OA
ATOM     12  C   UNL     1      -0.658  -0.024  24.755  0.00  0.00    +0.251 A 
ATOM     13  N   UNL     1      -1.307  -0.377  24.388  0.00  0.00    -0.190 NA
BRANCH   9   6
ATOM      3  C   UNL     1      -3.493  -2.481  24.412  0.00  0.00    +0.225 A 
ATOM      4  N   UNL     1      -2.724  -2.779  24.394  0.00  0.00    -0.210 NA
ATOM      5  C   UNL     1      -2.085  -2.281  24.548  0.00  0.00    +0.105 A 
ATOM      6  C   UNL     1      -2.214  -1.485  24.720  0.00  0.00    +0.058 A 
ATOM      7  C   UNL     1      -2.983  -1.186  24.738  0.00  0.00    +0.010 A 
ATOM      8  C   UNL     1      -3.623  -1.684  24.584  0.00  0.00    +0.058 A 
BRANCH   3   2
ATOM      1  C   UNL     1      -4.631  -2.824  23.619  0.00  0.00    +0.254 C 
ATOM      2  O   UNL     1      -4.132  -2.979  24.258  0.00  0.00    -0.456 OA
ENDBRANCH   3   2
ENDBRANCH   9   6
ENDBRANCH  14  12
BRANCH  18  19
ATOM     19  C   UNL     1      -0.811   1.691  25.260  0.00  0.00    +0.099 C 
BRANCH  19  20
ATOM     20  C   UNL     1      -1.007   2.492  25.265  0.00  0.00    -0.006 A 
ATOM     21  C   UNL     1      -0.541   3.028  25.685  0.00  0.00    -0.003 A 
ATOM     22  C   UNL     1      -0.738   3.830  25.690  0.00  0.00    +0.006 A 
ATOM     23  C   UNL     1      -1.400   4.095  25.275  0.00  0.00    +0.080 A 
ATOM     24  C   UNL     1      -1.865   3.559  24.855  0.00  0.00    +0.006 A 
ATOM     25  C   UNL     1      -1.669   2.758  24.850  0.00  0.00    -0.003 A 
BRANCH  23  26
ATOM     26  C   UNL     1      -1.596   4.897  25.280  0.00  0.00    +0.388 C 
ATOM     27  O   UNL     1      -1.083   5.449  24.945  0.00  0.00    -0.241 OA
ATOM     28  O   UNL     1      -2.305   5.145  25.621  0.00  0.00    -0.241 OA
ENDBRANCH  23  26
ENDBRANCH  19  20
ENDBRANCH  18  19
TORSDOF 6
ENDMDL
MODEL 5
REMARK VINA RESULT:      -9.8      3.060      5.035
REMARK  Name = 
REMARK  6 active torsions:
REMARK  status: ('A' for Active; 'I' for Inactive)
REMARK    1  A    between atoms: O_2  and  C_3
REMARK    2  A    between atoms: C_6  and  C_9
REMARK    3  A    between atoms: C_12  and  C_14
REMARK    4  A    between atoms: N_18  and  C_19
REMARK    5  A    between atoms: C_19  and  C_20
REMARK    6  A    between atoms: C_23  and  C_26
REMARK                            x       y       z     vdW  Elec       q    Type
REMARK                         _______ _______ _______ _____ _____    ______ ____
ROOT
ATOM     14  C   UNL     1      -0.984   3.934  25.145  0.00  0.00    +0.138 C 
ATOM     15  C   UNL     1      -0.738   4.691  24.924  0.00  0.00    +0.027 C 
ATOM     16  C   UNL     1      -1.372   5.207  25.029  0.00  0.00    +0.019 C 
ATOM     17  C   UNL     1      -2.012   4.769  25.314  0.00  0.00    +0.073 C 
ATOM     18  N   UNL     1      -1.771   3.983  25.386  0.00  0.00    -0.263 NA
ENDROOT
BRANCH  14  12
ATOM      9  C   UNL     1       0.076   2.134  24.706  0.00  0.00    +0.205 A 
ATOM     10  N   UNL     1       0.296   2.261  25.491  0.00  0.00    -0.056 NA
ATOM     11  O   UNL     1      -0.075   2.951  25.751  0.00  0.00    -0.336 OA
ATOM     12  C   UNL     1      -0.523   3.251  25.127  0.00  0.00    +0.251 A 
ATOM     13  N   UNL     1      -0.430   2.745  24.481  0.00  0.00    -0.190 NA
BRANCH   9   6
ATOM      3  C   UNL     1       0.807   0.250  23.278  0.00  0.00    +0.225 A 
ATOM      4  N   UNL     1       1.307   0.894  23.400  0.00  0.00    -0.210 NA
ATOM      5  C   UNL     1       1.064   1.522  23.876  0.00  0.00    +0.105 A 
ATOM      6  C   UNL     1       0.319   1.506  24.230  0.00  0.00    +0.058 A 
ATOM      7  C   UNL     1      -0.182   0.862  24.109  0.00  0.00    +0.010 A 
ATOM      8  C   UNL     1       0.061   0.234  23.633  0.00  0.00    +0.058 A 
BRANCH   3   2
ATOM      1  C   UNL     1       1.685  -0.281  22.283  0.00  0.00    +0.254 C 
ATOM      2  O   UNL     1       1.050  -0.379  22.802  0.00  0.00    -0.456 OA
ENDBRANCH   3   2
ENDBRANCH   9   6
ENDBRANCH  14  12
BRANCH  18  19
ATOM     19  C   UNL     1      -2.237   3.356  25.651  0.00  0.00    +0.099 C 
BRANCH  19  20
ATOM     20  C   UNL     1      -3.059   3.407  25.613  0.00  0.00    -0.006 A 
ATOM     21  C   UNL     1      -3.482   3.728  26.244  0.00  0.00    -0.003 A 
ATOM     22  C   UNL     1      -4.305   3.779  26.206  0.00  0.00    +0.006 A 
ATOM     23  C   UNL     1      -4.704   3.509  25.536  0.00  0.00    +0.080 A 
ATOM     24  C   UNL     1      -4.280   3.188  24.905  0.00  0.00    +0.006 A 
ATOM     25  C   UNL     1      -3.458   3.137  24.943  0.00  0.00    -0.003 A 
BRANCH  23  26
ATOM     26  C   UNL     1      -5.527   3.560  25.497  0.00  0.00    +0.388 C 
ATOM     27  O   UNL     1      -5.901   4.285  25.621  0.00  0.00    -0.241 OA
ATOM     28  O   UNL     1      -5.974   2.886  25.335  0.00  0.00    -0.241 OA
ENDBRANCH  23  26
ENDBRANCH  19  20
ENDBRANCH  18  19
TORSDOF 6
ENDMDL
MODEL 6
REMARK VINA RESULT:      -9.4      2.265      5.059
REMARK  Name = 
REMARK  6 active torsions:
REMARK  status: ('A' for Active; 'I' for Inactive)
REMARK    1  A    between atoms: O_2  and  C_3
REMARK    2  A    between atoms: C_6  and  C_9
REMARK    3  A    between atoms: C_12  and  C_14
REMARK    4  A    between atoms: N_18  and  C_19
REMARK    5  A    between atoms: C_19  and  C_20
REMARK    6  A    between atoms: C_23  and  C_26
REMARK                            x       y       z     vdW  Elec       q    Type
REMARK                         _______ _______ _______ _____ _____    ______ ____
ROOT
ATOM     14  C   UNL     1      -1.212   3.250  24.835  0.00  0.00    +0.138 C 
ATOM     15  C   UNL     1      -0.752   3.838  25.187  0.00  0.00    +0.027 C 
ATOM     16  C   UNL     1      -1.243   4.477  25.362  0.00  0.00    +0.019 C 
ATOM     17  C   UNL     1      -2.008   4.284  25.117  0.00  0.00    +0.073 C 
ATOM     18  N   UNL     1      -1.988   3.526  24.792  0.00  0.00    -0.263 NA
ENDROOT
BRANCH  14  12
ATOM      9  C   UNL     1      -0.709   1.204  24.494  0.00  0.00    +0.205 A 
ATOM     10  N   UNL     1      -0.348   1.567  23.846  0.00  0.00    -0.056 NA
ATOM     11  O   UNL     1      -0.492   2.378  23.896  0.00  0.00    -0.336 OA
ATOM     12  C   UNL     1      -0.943   2.516  24.573  0.00  0.00    +0.251 A 
ATOM     13  N   UNL     1      -1.076   1.790  24.943  0.00  0.00    -0.190 NA
BRANCH   9   6
ATOM      3  C   UNL     1      -0.692  -1.219  24.999  0.00  0.00    +0.225 A 
ATOM      4  N   UNL     1      -0.299  -0.933  24.332  0.00  0.00    -0.210 NA
ATOM      5  C   UNL     1      -0.304  -0.125  24.164  0.00  0.00    +0.105 A 
ATOM      6  C   UNL     1      -0.703   0.396  24.662  0.00  0.00    +0.058 A 
ATOM      7  C   UNL     1      -1.097   0.112  25.329  0.00  0.00    +0.010 A 
ATOM      8  C   UNL     1      -1.091  -0.696  25.497  0.00  0.00    +0.058 A 
BRANCH   3   2
ATOM      1  C   UNL     1      -1.305  -2.506  24.907  0.00  0.00    +0.254 C 
ATOM      2  O   UNL     1      -0.686  -2.027  25.167  0.00  0.00    -0.456 OA
ENDBRANCH   3   2
ENDBRANCH   9   6
ENDBRANCH  14  12
BRANCH  18  19
ATOM     19  C   UNL     1      -2.632   3.116  24.479  0.00  0.00    +0.099 C 
BRANCH  19  20
ATOM     20  C   UNL     1      -3.388   3.243  24.781  0.00  0.00    -0.006 A 
ATOM     21  C   UNL     1      -3.652   2.806  25.429  0.00  0.00    -0.003 A 
ATOM     22  C   UNL     1      -4.410   2.932  25.731  0.00  0.00    +0.006 A 
ATOM     23  C   UNL     1      -4.903   3.497  25.386  0.00  0.00    +0.080 A 
ATOM     24  C   UNL     1      -4.638   3.934  24.738  0.00  0.00    +0.006 A 
ATOM     25  C   UNL     1      -3.882   3.807  24.436  0.00  0.00    -0.003 A 
BRANCH  23  26
ATOM     26  C   UNL     1      -5.660   3.623  25.688  0.00  0.00    +0.388 C 
ATOM     27  O   UNL     1      -6.011   4.368  25.624  0.00  0.00    -0.241 OA
ATOM     28  O   UNL     1      -6.065   3.005  26.055  0.00  0.00    -0.241 OA
ENDBRANCH  23  26
ENDBRANCH  19  20
ENDBRANCH  18  19
TORSDOF 6
ENDMDL
MODEL 7
REMARK VINA RESULT:      -9.3      2.939      4.375
REMARK  Name = 
REMARK  6 active torsions:
REMARK  status: ('A' for Active; 'I' for Inactive)
REMARK    1  A    between atoms: O_2  and  C_3
REMARK    2  A    between atoms: C_6  and  C_9
REMARK    3  A    between atoms: C_12  and  C_14
REMARK    4  A    between atoms: N_18  and  C_19
REMARK    5  A    between atoms: C_19  and  C_20
REMARK    6  A    between atoms: C_23  and  C_26
REMARK                            x       y       z     vdW  Elec       q    Type
REMARK                         _______ _______ _______ _____ _____    ______ ____
ROOT
ATOM     14  C   UNL     1      -2.823  -1.174  24.542  0.00  0.00    +0.138 C 
ATOM     15  C   UNL     1      -3.152  -1.885  24.282  0.00  0.00    +0.027 C 
ATOM     16  C   UNL     1      -3.972  -1.804  24.289  0.00  0.00    +0.019 C 
ATOM     17  C   UNL     1      -4.151  -1.043  24.553  0.00  0.00    +0.073 C 
ATOM     18  N   UNL     1      -3.440  -0.654  24.709  0.00  0.00    -0.263 NA
ENDROOT
BRANCH  14  12
ATOM      9  C   UNL     1      -0.772  -0.609  24.357  0.00  0.00    +0.205 A 
ATOM     10  N   UNL     1      -0.784  -0.919  25.122  0.00  0.00    -0.056 NA
ATOM     11  O   UNL     1      -1.554  -1.168  25.285  0.00  0.00    -0.336 OA
ATOM     12  C   UNL     1      -2.018  -1.013  24.620  0.00  0.00    +0.251 A 
ATOM     13  N   UNL     1      -1.534  -0.668  24.047  0.00  0.00    -0.190 NA
BRANCH   9   6
ATOM      3  C   UNL     1       1.203   0.328  23.197  0.00  0.00    +0.225 A 
ATOM      4  N   UNL     1       1.016  -0.471  23.115  0.00  0.00    -0.210 NA
ATOM      5  C   UNL     1       0.358  -0.784  23.501  0.00  0.00    +0.105 A 
ATOM      6  C   UNL     1      -0.114  -0.297  23.970  0.00  0.00    +0.058 A 
ATOM      7  C   UNL     1       0.072   0.503  24.054  0.00  0.00    +0.010 A 
ATOM      8  C   UNL     1       0.730   0.815  23.668  0.00  0.00    +0.058 A 
BRANCH   3   2
ATOM      1  C   UNL     1       2.539   0.179  22.713  0.00  0.00    +0.254 C 
ATOM      2  O   UNL     1       1.862   0.640  22.811  0.00  0.00    -0.456 OA
ENDBRANCH   3   2
ENDBRANCH   9   6
ENDBRANCH  14  12
BRANCH  18  19
ATOM     19  C   UNL     1      -3.362   0.120  24.985  0.00  0.00    +0.099 C 
BRANCH  19  20
ATOM     20  C   UNL     1      -4.014   0.624  24.992  0.00  0.00    -0.006 A 
ATOM     21  C   UNL     1      -4.589   0.546  25.577  0.00  0.00    -0.003 A 
ATOM     22  C   UNL     1      -5.243   1.051  25.584  0.00  0.00    +0.006 A 
ATOM     23  C   UNL     1      -5.320   1.633  25.005  0.00  0.00    +0.080 A 
ATOM     24  C   UNL     1      -4.744   1.710  24.419  0.00  0.00    +0.006 A 
ATOM     25  C   UNL     1      -4.092   1.207  24.412  0.00  0.00    -0.003 A 
BRANCH  23  26
ATOM     26  C   UNL     1      -5.973   2.137  25.012  0.00  0.00    +0.388 C 
ATOM     27  O   UNL     1      -6.705   1.869  24.740  0.00  0.00    -0.241 OA
ATOM     28  O   UNL     1      -5.894   2.910  25.291  0.00  0.00    -0.241 OA
ENDBRANCH  23  26
ENDBRANCH  19  20
ENDBRANCH  18  19
TORSDOF 6
ENDMDL
