MODEL 1
REMARK VINA RESULT:      -8.9      0.000      0.000
REMARK  Name = 
REMARK  7 active torsions:
REMARK  status: ('A' for Active; 'I' for Inactive)
REMARK    1  A    between atoms: C_2  and  N_3
REMARK    2  A    between atoms: N_6  and  C_7
REMARK    3  A    between atoms: C_7  and  C_8
REMARK    4  A    between atoms: C_10  and  C_11
REMARK    5  A    between atoms: C_11  and  C_12
REMARK    6  A    between atoms: C_15  and  C_16
REMARK    7  A    between atoms: C_16  and  O_17
REMARK                            x       y       z     vdW  Elec       q    Type
REMARK                         _______ _______ _______ _____ _____    ______ ____
ROOT
ATOM      8  C   UNL     1      -4.509   2.720  25.417  0.00  0.00    +0.167 C 
ATOM      9  O   UNL     1      -4.173   2.083  25.013  0.00  0.00    -0.354 OA
ATOM     10  C   UNL     1      -4.639   1.433  24.808  0.00  0.00    +0.121 C 
ATOM     20  C   UNL     1      -5.440   1.421  25.006  0.00  0.00    +0.033 C 
ATOM     21  C   UNL     1      -5.775   2.058  25.410  0.00  0.00    +0.038 C 
ATOM     22  C   UNL     1      -5.309   2.707  25.615  0.00  0.00    +0.181 C 
ATOM     23  O   UNL     1      -5.644   3.344  26.019  0.00  0.00    -0.220 OA
ENDROOT
BRANCH   8   7
ATOM      7  C   UNL     1      -4.042   3.369  25.622  0.00  0.00    +0.149 C 
BRANCH   7   6
ATOM      3  N   UNL     1      -2.153   4.275  25.010  0.00  0.00    -0.187 NA
ATOM      4  C   UNL     1      -2.814   4.082  25.465  0.00  0.00    +0.339 C 
ATOM      5  O   UNL     1      -2.906   4.406  26.217  0.00  0.00    -0.249 OA
ATOM      6  N   UNL     1      -3.382   3.563  25.167  0.00  0.00    -0.185 NA
BRANCH   3   2
ATOM      1  C   UNL     1      -0.900   4.948  24.876  0.00  0.00    +0.025 C 
ATOM      2  C   UNL     1      -1.585   4.794  25.309  0.00  0.00    +0.117 C 
ENDBRANCH   3   2
ENDBRANCH   7   6
ENDBRANCH   8   7
BRANCH  10  11
ATOM     11  C   UNL     1      -4.304   0.797  24.404  0.00  0.00    +0.079 C 
BRANCH  11  12
ATOM     12  C   UNL     1      -3.885   0.221  24.818  0.00  0.00    +0.103 A 
ATOM     13  N   UNL     1      -4.202  -0.315  25.358  0.00  0.00    -0.082 NA
ATOM     14  O   UNL     1      -3.587  -0.789  25.639  0.00  0.00    -0.356 OA
ATOM     15  C   UNL     1      -2.889  -0.545  25.272  0.00  0.00    +0.184 A 
ATOM     19  C   UNL     1      -3.073   0.079  24.764  0.00  0.00    +0.056 A 
BRANCH  15  16
ATOM     16  C   UNL     1      -2.140  -0.868  25.391  0.00  0.00    +0.209 C 
BRANCH  16  17
ATOM     17  O   UNL     1      -1.880  -1.492  24.919  0.00  0.00    -0.343 OA
ATOM     18  C   UNL     1      -1.116  -1.790  25.013  0.00  0.00    +0.175 C 
ENDBRANCH  16  17
ENDBRANCH  15  16
ENDBRANCH  11  12
ENDBRANCH  10  11
TORSDOF 7
ENDMDL
MODEL 2
REMARK VINA RESULT:      -8.6      1.303      3.967
REMARK  Name = 
REMARK  7 active torsions:
REMARK  status: ('A' for Active; 'I' for Inactive)
REMARK    1  A    between atoms: C_2  and  N_3
REMARK    2  A    between atoms: N_6  and  C_7
REMARK    3  A    between atoms: C_7  and  C_8
REMARK    4  A    between atoms: C_10  and  C_11
REMARK    5  A    between atoms: C_11  and  C_12
REMARK    6  A    between atoms: C_15  and  C_16
REMARK    7  A    between atoms: C_16  and  O_17
REMARK                            x       y       z     vdW  Elec       q    Type
REMARK                         _______ _______ _______ _____ _____    ______ ____
ROOT
ATOM      8  C   UNL     1      -4.897   1.815  24.972  0.00  0.00    +0.167 C 
ATOM      9  O   UNL     1      -4.260   2.275  24.720  0.00  0.00    -0.354 OA
ATOM     10  C   UNL     1      -4.252   3.087  24.871  0.00  0.00    +0.121 C 
ATOM     20  C   UNL     1      -4.881   3.438  25.273  0.00  0.00    +0.033 C 
ATOM     21  C   UNL     1      -5.518   2.977  25.525  0.00  0.00    +0.038 C 
ATOM     22  C   UNL     1      -5.526   2.166  25.375  0.00  0.00    +0.181 C 
ATOM     23  O   UNL     1      -6.162   1.706  25.626  0.00  0.00    -0.220 OA
ENDROOT
BRANCH   8   7
ATOM      7  C   UNL     1      -4.905   1.003  24.822  0.00  0.00    +0.149 C 
BRANCH   7   6
ATOM      3  N   UNL     1      -3.586  -0.718  25.072  0.00  0.00    -0.187 NA
ATOM      4  C   UNL     1      -4.208  -0.244  24.808  0.00  0.00    +0.339 C 
ATOM      5  O   UNL     1      -4.753  -0.543  24.267  0.00  0.00    -0.249 OA
ATOM      6  N   UNL     1      -4.283   0.530  25.086  0.00  0.00    -0.185 NA
BRANCH   3   2
ATOM      1  C   UNL     1      -2.915  -1.979  25.089  0.00  0.00    +0.025 C 
ATOM      2  C   UNL     1      -3.511  -1.492  24.794  0.00  0.00    +0.117 C 
ENDBRANCH   3   2
ENDBRANCH   7   6
ENDBRANCH   8   7
BRANCH  10  11
ATOM     11  C   UNL     1      -3.615   3.546  24.619  0.00  0.00    +0.079 C 
BRANCH  11  12
ATOM     12  C   UNL     1      -2.950   3.628  25.098  0.00  0.00    +0.103 A 
ATOM     13  N   UNL     1      -2.912   4.048  25.807  0.00  0.00    -0.082 NA
ATOM     14  O   UNL     1      -2.144   3.984  26.101  0.00  0.00    -0.356 OA
ATOM     15  C   UNL     1      -1.707   3.524  25.574  0.00  0.00    +0.184 A 
ATOM     19  C   UNL     1      -2.205   3.304  24.954  0.00  0.00    +0.056 A 
BRANCH  15  16
ATOM     16  C   UNL     1      -0.911   3.320  25.652  0.00  0.00    +0.209 C 
BRANCH  16  17
ATOM     17  O   UNL     1      -0.690   2.711  26.161  0.00  0.00    -0.343 OA
ATOM     18  C   UNL     1       0.096   2.458  26.185  0.00  0.00    +0.175 C 
ENDBRANCH  16  17
ENDBRANCH  15  16
ENDBRANCH  11  12
ENDBRANCH  10  11
TORSDOF 7
ENDMDL
MODEL 3
REMARK VINA RESULT:      -8.5      1.734      3.517
REMARK  Name = 
REMARK  7 active torsions:
REMARK  status: ('A' for Active; 'I' for Inactive)
REMARK    1  A    between atoms: C_2  and  N_3
REMARK    2  A    between atoms: N_6  and  C_7
REMARK    3  A    between atoms: C_7  and  C_8
REMARK    4  A    between atoms: C_10  and  C_11
REMARK    5  A    between atoms: C_11  and  C_12
REMARK    6  A    between atoms: C_15  and  C_16
REMARK    7  A    between atoms: C_16  and  O_17
REMARK                            x       y       z     vdW  Elec       q    Type
REMARK                         _______ _______ _______ _____ _____    ______ ____
ROOT
ATOM      8  C   UNL     1      -2.166   3.790  25.487  0.00  0.00    +0.167 C 
ATOM      9  O   UNL     1      -1.776   3.107  25.737  0.00  0.00    -0.354 OA
ATOM     10  C   UNL     1      -0.953   3.062  25.690  0.00  0.00    +0.121 C 
ATOM     20  C   UNL     1      -0.521   3.699  25.393  0.00  0.00    +0.033 C 
ATOM     21  C   UNL     1      -0.912   4.381  25.143  0.00  0.00    +0.038 C 
ATOM     22  C   UNL     1      -1.734   4.427  25.190  0.00  0.00    +0.181 C 
ATOM     23  O   UNL     1      -2.125   5.109  24.940  0.00  0.00    -0.220 OA
ENDROOT
BRANCH   8   7
ATOM      7  C   UNL     1      -2.989   3.835  25.534  0.00  0.00    +0.149 C 
BRANCH   7   6
ATOM      3  N   UNL     1      -4.728   2.558  25.205  0.00  0.00    -0.187 NA
ATOM      4  C   UNL     1      -4.266   3.201  25.435  0.00  0.00    +0.339 C 
ATOM      5  O   UNL     1      -4.618   3.853  25.796  0.00  0.00    -0.249 OA
ATOM      6  N   UNL     1      -3.451   3.192  25.304  0.00  0.00    -0.185 NA
BRANCH   3   2
ATOM      1  C   UNL     1      -6.004   1.921  25.111  0.00  0.00    +0.025 C 
ATOM      2  C   UNL     1      -5.543   2.567  25.336  0.00  0.00    +0.117 C 
ENDBRANCH   3   2
ENDBRANCH   7   6
ENDBRANCH   8   7
BRANCH  10  11
ATOM     11  C   UNL     1      -0.563   2.379  25.940  0.00  0.00    +0.079 C 
BRANCH  11  12
ATOM     12  C   UNL     1      -0.491   1.735  25.431  0.00  0.00    +0.103 A 
ATOM     13  N   UNL     1      -0.024   1.703  24.753  0.00  0.00    -0.082 NA
ATOM     14  O   UNL     1      -0.118   0.957  24.413  0.00  0.00    -0.356 OA
ATOM     15  C   UNL     1      -0.644   0.528  24.882  0.00  0.00    +0.184 A 
ATOM     19  C   UNL     1      -0.875   1.009  25.511  0.00  0.00    +0.056 A 
BRANCH  15  16
ATOM     16  C   UNL     1      -0.895  -0.246  24.745  0.00  0.00    +0.209 C 
BRANCH  16  17
ATOM     17  O   UNL     1      -0.494  -0.877  25.092  0.00  0.00    -0.343 OA
ATOM     18  C   UNL     1      -0.786  -1.645  25.012  0.00  0.00    +0.175 C 
ENDBRANCH  16  17
ENDBRANCH  15  16
ENDBRANCH  11  12
ENDBRANCH  10  11
TORSDOF 7
ENDMDL
MODEL 4
REMARK VINA RESULT:      -8.1      1.850      3.770
REMARK  Name = 
REMARK  7 active torsions:
REMARK  status: ('A' for Active; 'I' for Inactive)
REMARK    1  A    between atoms: C_2  and  N_3
REMARK    2  A    between atoms: N_6  and  C_7
REMARK    3  A    between atoms: C_7  and  C_8
REMARK    4  A    between atoms: C_10  and  C_11
REMARK    5  A    between atoms: C_11  and  C_12
REMARK    6  A    between atoms: C_15  and  C_16
REMARK    7  A    between atoms: C_16  and  O_17
REMARK                            x       y       z     vdW  Elec       q    Type
REMARK                         _______ _______ _______ _____ _____    ______ ____
ROOT
ATOM      8  C   UNL     1      -3.790  -0.608  24.781  0.00  0.00    +0.167 C 
ATOM      9  O   UNL     1      -3.070  -0.440  25.148  0.00  0.00    -0.354 OA
ATOM     10  C   UNL     1      -2.464  -1.000  25.140  0.00  0.00    +0.121 C 
ATOM     20  C   UNL     1      -2.577  -1.727  24.766  0.00  0.00    +0.033 C 
ATOM     21  C   UNL     1      -3.297  -1.894  24.400  0.00  0.00    +0.038 C 
ATOM     22  C   UNL     1      -3.903  -1.335  24.407  0.00  0.00    +0.181 C 
ATOM     23  O   UNL     1      -4.624  -1.502  24.041  0.00  0.00    -0.220 OA
ENDROOT
BRANCH   8   7
ATOM      7  C   UNL     1      -4.397  -0.048  24.788  0.00  0.00    +0.149 C 
BRANCH   7   6
ATOM      3  N   UNL     1      -4.653   2.092  25.129  0.00  0.00    -0.187 NA
ATOM      4  C   UNL     1      -4.830   1.295  25.014  0.00  0.00    +0.339 C 
ATOM      5  O   UNL     1      -5.614   1.043  25.009  0.00  0.00    -0.249 OA
ATOM      6  N   UNL     1      -4.220   0.749  24.904  0.00  0.00    -0.185 NA
BRANCH   3   2
ATOM      1  C   UNL     1      -5.086   3.418  25.441  0.00  0.00    +0.025 C 
ATOM      2  C   UNL     1      -5.263   2.638  25.239  0.00  0.00    +0.117 C 
ENDBRANCH   3   2
ENDBRANCH   7   6
ENDBRANCH   8   7
BRANCH  10  11
ATOM     11  C   UNL     1      -1.744  -0.832  25.507  0.00  0.00    +0.079 C 
BRANCH  11  12
ATOM     12  C   UNL     1      -1.191  -0.351  25.130  0.00  0.00    +0.103 A 
ATOM     13  N   UNL     1      -0.690  -0.578  24.516  0.00  0.00    -0.082 NA
ATOM     14  O   UNL     1      -0.231   0.075  24.306  0.00  0.00    -0.356 OA
ATOM     15  C   UNL     1      -0.448   0.705  24.792  0.00  0.00    +0.184 A 
ATOM     19  C   UNL     1      -1.042   0.442  25.301  0.00  0.00    +0.056 A 
BRANCH  15  16
ATOM     16  C   UNL     1      -0.128   1.465  24.772  0.00  0.00    +0.209 C 
BRANCH  16  17
ATOM     17  O   UNL     1      -0.543   2.078  24.410  0.00  0.00    -0.343 OA
ATOM     18  C   UNL     1      -0.239   2.846  24.421  0.00  0.00    +0.175 C 
ENDBRANCH  16  17
ENDBRANCH  15  16
ENDBRANCH  11  12
ENDBRANCH  10  11
TORSDOF 7
ENDMDL
MODEL 5
REMARK VINA RESULT:      -8.1      1.901      4.767
REMARK  Name = 
REMARK  7 active torsions:
REMARK  status: ('A' for Active; 'I' for Inactive)
REMARK    1  A    between atoms: C_2  and  N_3
REMARK    2  A    between atoms: N_6  and  C_7
REMARK    3  A    between atoms: C_7  and  C_8
REMARK    4  A    between atoms: C_10  and  C_11
REMARK    5  A    between atoms: C_11  and  C_12
REMARK    6  A    between atoms: C_15  and  C_16
REMARK    7  A    between atoms: C_16  and  O_17
REMARK                            x       y       z     vdW  Elec       q    Type
REMARK                         _______ _______ _______ _____ _____    ______ ____
ROOT
ATOM      8  C   UNL     1      -0.787   2.077  25.210  0.00  0.00    +0.167 C 
ATOM      9  O   UNL     1      -1.462   2.398  24.860  0.00  0.00    -0.354 OA
ATOM     10  C   UNL     1      -1.636   3.199  24.959  0.00  0.00    +0.121 C 
ATOM     20  C   UNL     1      -1.136   3.678  25.407  0.00  0.00    +0.033 C 
ATOM     21  C   UNL     1      -0.462   3.356  25.757  0.00  0.00    +0.038 C 
ATOM     22  C   UNL     1      -0.287   2.556  25.658  0.00  0.00    +0.181 C 
ATOM     23  O   UNL     1       0.387   2.234  26.008  0.00  0.00    -0.220 OA
ENDROOT
BRANCH   8   7
ATOM      7  C   UNL     1      -0.613   1.276  25.111  0.00  0.00    +0.149 C 
BRANCH   7   6
ATOM      3  N   UNL     1      -1.676  -0.625  24.977  0.00  0.00    -0.187 NA
ATOM      4  C   UNL     1      -1.074  -0.063  24.924  0.00  0.00    +0.339 C 
ATOM      5  O   UNL     1      -0.334  -0.277  24.631  0.00  0.00    -0.249 OA
ATOM      6  N   UNL     1      -1.214   0.714  25.164  0.00  0.00    -0.185 NA
BRANCH   3   2
ATOM      1  C   UNL     1      -2.144  -1.959  24.768  0.00  0.00    +0.025 C 
ATOM      2  C   UNL     1      -1.536  -1.403  24.737  0.00  0.00    +0.117 C 
ENDBRANCH   3   2
ENDBRANCH   7   6
ENDBRANCH   8   7
BRANCH  10  11
ATOM     11  C   UNL     1      -2.311   3.520  24.609  0.00  0.00    +0.079 C 
BRANCH  11  12
ATOM     12  C   UNL     1      -3.035   3.487  25.001  0.00  0.00    +0.103 A 
ATOM     13  N   UNL     1      -3.210   3.842  25.725  0.00  0.00    -0.082 NA
ATOM     14  O   UNL     1      -3.995   3.668  25.911  0.00  0.00    -0.356 OA
ATOM     15  C   UNL     1      -4.305   3.206  25.302  0.00  0.00    +0.184 A 
ATOM     19  C   UNL     1      -3.711   3.094  24.739  0.00  0.00    +0.056 A 
BRANCH  15  16
ATOM     16  C   UNL     1      -5.073   2.908  25.261  0.00  0.00    +0.209 C 
BRANCH  16  17
ATOM     17  O   UNL     1      -5.370   2.448  25.878  0.00  0.00    -0.343 OA
ATOM     18  C   UNL     1      -6.113   2.096  25.809  0.00  0.00    +0.175 C 
ENDBRANCH  16  17
ENDBRANCH  15  16
ENDBRANCH  11  12
ENDBRANCH  10  11
TORSDOF 7
ENDMDL
MODEL 6
REMARK VINA RESULT:      -8.1      1.503      2.367
REMARK  Name = 
REMARK  7 active torsions:
REMARK  status: ('A' for Active; 'I' for Inactive)
REMARK    1  A    between atoms: C_2  and  N_3
REMARK    2  A    between atoms: N_6  and  C_7
REMARK    3  A    between atoms: C_7  and  C_8
REMARK    4  A    between atoms: C_10  and  C_11
REMARK    5  A    between atoms: C_11  and  C_12
REMARK    6  A    between atoms: C_15  and  C_16
REMARK    7  A    between atoms: C_16  and  O_17
REMARK                            x       y       z     vdW  Elec       q    Type
REMARK                         _______ _______ _______ _____ _____    ______ ____
ROOT
ATOM      8  C   UNL     1      -3.580   0.960  24.910  0.00  0.00    +0.167 C 
ATOM      9  O   UNL     1      -2.899   0.581  25.181  0.00  0.00    -0.354 OA
ATOM     10  C   UNL     1      -2.915  -0.228  25.344  0.00  0.00    +0.121 C 
ATOM     20  C   UNL     1      -3.612  -0.657  25.236  0.00  0.00    +0.033 C 
ATOM     21  C   UNL     1      -4.292  -0.277  24.965  0.00  0.00    +0.038 C 
ATOM     22  C   UNL     1      -4.276   0.531  24.802  0.00  0.00    +0.181 C 
ATOM     23  O   UNL     1      -4.956   0.912  24.530  0.00  0.00    -0.220 OA
ENDROOT
BRANCH   8   7
ATOM      7  C   UNL     1      -3.563   1.769  24.747  0.00  0.00    +0.149 C 
BRANCH   7   6
ATOM      3  N   UNL     1      -2.350   3.520  25.222  0.00  0.00    -0.187 NA
ATOM      4  C   UNL     1      -2.926   3.042  24.876  0.00  0.00    +0.339 C 
ATOM      5  O   UNL     1      -3.441   3.357  24.315  0.00  0.00    -0.249 OA
ATOM      6  N   UNL     1      -2.987   2.247  25.092  0.00  0.00    -0.185 NA
BRANCH   3   2
ATOM      1  C   UNL     1      -1.667   4.773  25.292  0.00  0.00    +0.025 C 
ATOM      2  C   UNL     1      -2.290   4.315  25.005  0.00  0.00    +0.117 C 
ENDBRANCH   3   2
ENDBRANCH   7   6
ENDBRANCH   8   7
BRANCH  10  11
ATOM     11  C   UNL     1      -2.235  -0.607  25.615  0.00  0.00    +0.079 C 
BRANCH  11  12
ATOM     12  C   UNL     1      -1.663  -0.862  25.080  0.00  0.00    +0.103 A 
ATOM     13  N   UNL     1      -1.704  -1.539  24.611  0.00  0.00    -0.082 NA
ATOM     14  O   UNL     1      -1.015  -1.580  24.159  0.00  0.00    -0.356 OA
ATOM     15  C   UNL     1      -0.547  -0.927  24.348  0.00  0.00    +0.184 A 
ATOM     19  C   UNL     1      -0.948  -0.483  24.917  0.00  0.00    +0.056 A 
BRANCH  15  16
ATOM     16  C   UNL     1       0.190  -0.749  24.026  0.00  0.00    +0.209 C 
BRANCH  16  17
ATOM     17  O   UNL     1       0.252  -0.197  23.417  0.00  0.00    -0.343 OA
ATOM     18  C   UNL     1       0.980  -0.070  23.048  0.00  0.00    +0.175 C 
ENDBRANCH  16  17
ENDBRANCH  15  16
ENDBRANCH  11  12
ENDBRANCH  10  11
TORSDOF 7
ENDMDL
MODEL 7
REMARK VINA RESULT:      -8.0      1.692      4.240
REMARK  Name = 
REMARK  7 active torsions:
REMARK  status: ('A' for Active; 'I' for Inactive)
REMARK    1  A    between atoms: C_2  and  N_3
REMARK    2  A    between atoms: N_6  and  C_7
REMARK    3  A    between atoms: C_7  and  C_8
REMARK    4  A    between atoms: C_10  and  C_11
REMARK    5  A    between atoms: C_11  and  C_12
REMARK    6  A    between atoms: C_15  and  C_16
REMARK    7  A    between atoms: C_16  and  O_17
REMARK                            x       y       z     vdW  Elec       q    Type
REMARK                         _______ _______ _______ _____ _____    ______ ____
ROOT
ATOM      8  C   UNL     1      -2.823  -0.206  24.917  0.00  0.00    +0.167 C 
ATOM      9  O   UNL     1      -3.042   0.503  24.556  0.00  0.00    -0.354 OA
ATOM     10  C   UNL     1      -3.820   0.773  24.614  0.00  0.00    +0.121 C 
ATOM     20  C   UNL     1      -4.378   0.333  25.033  0.00  0.00    +0.033 C 
ATOM     21  C   UNL     1      -4.159  -0.376  25.394  0.00  0.00    +0.038 C 
ATOM     22  C   UNL     1      -3.382  -0.645  25.335  0.00  0.00    +0.181 C 
ATOM     23  O   UNL     1      -3.162  -1.354  25.696  0.00  0.00    -0.220 OA
ENDROOT
BRANCH   8   7
ATOM      7  C   UNL     1      -2.045  -0.475  24.858  0.00  0.00    +0.149 C 
BRANCH   7   6
ATOM      3  N   UNL     1      -0.233  -0.047  23.719  0.00  0.00    -0.187 NA
ATOM      4  C   UNL     1      -0.754  -0.406  24.248  0.00  0.00    +0.339 C 
ATOM      5  O   UNL     1      -0.508  -1.051  24.697  0.00  0.00    -0.249 OA
ATOM      6  N   UNL     1      -1.524  -0.117  24.329  0.00  0.00    -0.185 NA
BRANCH   3   2
ATOM      1  C   UNL     1       1.031  -0.033  23.052  0.00  0.00    +0.025 C 
ATOM      2  C   UNL     1       0.536  -0.336  23.639  0.00  0.00    +0.117 C 
ENDBRANCH   3   2
ENDBRANCH   7   6
ENDBRANCH   8   7
BRANCH  10  11
ATOM     11  C   UNL     1      -4.038   1.482  24.254  0.00  0.00    +0.079 C 
BRANCH  11  12
ATOM     12  C   UNL     1      -3.891   2.199  24.631  0.00  0.00    +0.103 A 
ATOM     13  N   UNL     1      -4.278   2.483  25.302  0.00  0.00    -0.082 NA
ATOM     14  O   UNL     1      -3.956   3.219  25.490  0.00  0.00    -0.356 OA
ATOM     15  C   UNL     1      -3.370   3.391  24.935  0.00  0.00    +0.184 A 
ATOM     19  C   UNL     1      -3.329   2.760  24.404  0.00  0.00    +0.056 A 
BRANCH  15  16
ATOM     16  C   UNL     1      -2.906   4.072  24.914  0.00  0.00    +0.209 C 
BRANCH  16  17
ATOM     17  O   UNL     1      -2.218   4.117  25.366  0.00  0.00    -0.343 OA
ATOM     18  C   UNL     1      -1.711   4.763  25.283  0.00  0.00    +0.175 C 
ENDBRANCH  16  17
ENDBRANCH  15  16
ENDBRANCH  11  12
ENDBRANCH  10  11
TORSDOF 7
ENDMDL
MODEL 8
REMARK VINA RESULT:      -8.0      1.677      3.805
REMARK  Name = 
REMARK  7 active torsions:
REMARK  status: ('A' for Active; 'I' for Inactive)
REMARK    1  A    between atoms: C_2  and  N_3
REMARK    2  A    between atoms: N_6  and  C_7
REMARK    3  A    between atoms: C_7  and  C_8
REMARK    4  A    between atoms: C_10  and  C_11
REMARK    5  A    between atoms: C_11  and  C_12
REMARK    6  A    between atoms: C_15  and  C_16
REMARK    7  A    between atoms: C_16  and  O_17
REMARK                            x       y       z     vdW  Elec       q    Type
REMARK                         _______ _______ _______ _____ _____    ______ ____
ROOT
ATOM      8  C   UNL     1      -1.078  -0.217  25.058  0.00  0.00    +0.167 C 
ATOM      9  O   UNL     1      -1.848  -0.281  25.348  0.00  0.00    -0.354 OA
ATOM     10  C   UNL     1      -2.265  -0.987  25.256  0.00  0.00    +0.121 C 
ATOM     20  C   UNL     1      -1.913  -1.628  24.874  0.00  0.00    +0.033 C 
ATOM     21  C   UNL     1      -1.143  -1.562  24.584  0.00  0.00    +0.038 C 
ATOM     22  C   UNL     1      -0.726  -0.857  24.676  0.00  0.00    +0.181 C 
ATOM     23  O   UNL     1       0.044  -0.792  24.386  0.00  0.00    -0.220 OA
ENDROOT
BRANCH   8   7
ATOM      7  C   UNL     1      -0.660   0.490  25.150  0.00  0.00    +0.149 C 
BRANCH   7   6
ATOM      3  N   UNL     1      -1.045   2.637  25.112  0.00  0.00    -0.187 NA
ATOM      4  C   UNL     1      -0.668   1.916  25.242  0.00  0.00    +0.339 C 
ATOM      5  O   UNL     1       0.078   1.897  25.592  0.00  0.00    -0.249 OA
ATOM      6  N   UNL     1      -1.038   1.211  25.021  0.00  0.00    -0.185 NA
BRANCH   3   2
ATOM      1  C   UNL     1      -1.047   4.064  25.190  0.00  0.00    +0.025 C 
ATOM      2  C   UNL     1      -0.675   3.342  25.333  0.00  0.00    +0.117 C 
ENDBRANCH   3   2
ENDBRANCH   7   6
ENDBRANCH   8   7
BRANCH  10  11
ATOM     11  C   UNL     1      -3.035  -1.051  25.546  0.00  0.00    +0.079 C 
BRANCH  11  12
ATOM     12  C   UNL     1      -3.650  -0.644  25.178  0.00  0.00    +0.103 A 
ATOM     13  N   UNL     1      -3.999  -0.841  24.458  0.00  0.00    -0.082 NA
ATOM     14  O   UNL     1      -4.590  -0.287  24.300  0.00  0.00    -0.356 OA
ATOM     15  C   UNL     1      -4.605   0.254  24.923  0.00  0.00    +0.184 A 
ATOM     19  C   UNL     1      -4.024   0.033  25.466  0.00  0.00    +0.056 A 
BRANCH  15  16
ATOM     16  C   UNL     1      -5.112   0.900  24.991  0.00  0.00    +0.209 C 
BRANCH  16  17
ATOM     17  O   UNL     1      -4.858   1.650  24.761  0.00  0.00    -0.343 OA
ATOM     18  C   UNL     1      -5.357   2.301  24.851  0.00  0.00    +0.175 C 
ENDBRANCH  16  17
ENDBRANCH  15  16
ENDBRANCH  11  12
ENDBRANCH  10  11
TORSDOF 7
ENDMDL
