MODEL 1
REMARK VINA RESULT:     -10.4      0.000      0.000
REMARK  Name = 
REMARK  7 active torsions:
REMARK  status: ('A' for Active; 'I' for Inactive)
REMARK    1  A    between atoms: C_2  and  C_4
REMARK    2  A    between atoms: C_4  and  C_5
REMARK    3  A    between atoms: C_7  and  C_21
REMARK    4  A    between atoms: N_11  and  C_12
REMARK    5  A    between atoms: C_12  and  C_13
REMARK    6  A    between atoms: N_23  and  C_24
REMARK    7  A    between atoms: C_24  and  C_25
REMARK                            x       y       z     vdW  Elec       q    Type
REMARK                         _______ _______ _______ _____ _____    ______ ____
ROOT
ATOM      5  C   UNL     1      -4.152   1.027  24.745  0.00  0.00    +0.095 C 
ATOM      6  N   UNL     1      -3.774   1.744  24.596  0.00  0.00    -0.207 NA
ATOM      7  C   UNL     1      -2.967   1.893  24.511  0.00  0.00    +0.155 C 
ATOM      8  C   UNL     1      -2.338   1.360  24.555  0.00  0.00    +0.055 C 
ATOM      9  C   UNL     1      -2.361   0.547  24.694  0.00  0.00    -0.002 A 
ATOM     10  C   UNL     1      -1.688   0.074  24.725  0.00  0.00    +0.072 A 
ATOM     11  N   UNL     1      -1.929  -0.702  24.874  0.00  0.00    -0.322 N 
ATOM     15  C   UNL     1      -2.752  -0.705  24.935  0.00  0.00    +0.060 A 
ATOM     16  C   UNL     1      -3.018   0.067  24.824  0.00  0.00    +0.011 A 
ATOM     17  C   UNL     1      -3.816   0.280  24.847  0.00  0.00    -0.005 A 
ATOM     18  C   UNL     1      -4.367  -0.374  24.999  0.00  0.00    -0.003 A 
ATOM     19  C   UNL     1      -4.099  -1.147  25.110  0.00  0.00    +0.001 A 
ATOM     20  C   UNL     1      -3.292  -1.313  25.078  0.00  0.00    +0.017 A 
ENDROOT
BRANCH   7  21
ATOM     21  C   UNL     1      -2.762   2.679  24.363  0.00  0.00    +0.258 C 
ATOM     22  O   UNL     1      -2.868   2.998  23.609  0.00  0.00    -0.272 OA
ATOM     23  N   UNL     1      -2.450   3.145  24.968  0.00  0.00    -0.199 NA
BRANCH  23  24
ATOM     24  C   UNL     1      -2.245   3.930  24.820  0.00  0.00    +0.141 C 
BRANCH  24  25
ATOM     25  C   UNL     1      -1.925   4.393  25.423  0.00  0.00    -0.003 C 
ATOM     26  C   UNL     1      -1.492   5.071  25.236  0.00  0.00    -0.003 C 
ENDBRANCH  24  25
ENDBRANCH  23  24
ENDBRANCH   7  21
BRANCH   5   4
ATOM      4  C   UNL     1      -4.975   1.059  24.801  0.00  0.00    +0.022 C 
BRANCH   4   2
ATOM      1  C   UNL     1      -5.689   2.277  24.581  0.00  0.00    +0.000 C 
ATOM      2  C   UNL     1      -5.342   1.735  25.098  0.00  0.00    +0.002 C 
ATOM      3  C   UNL     1      -5.362   1.870  25.911  0.00  0.00    +0.000 C 
ENDBRANCH   4   2
ENDBRANCH   5   4
BRANCH  11  12
ATOM     12  C   UNL     1      -1.434  -1.358  24.948  0.00  0.00    +0.132 C 
BRANCH  12  13
ATOM     13  C   UNL     1      -0.625  -1.253  25.071  0.00  0.00    -0.002 C 
ATOM     14  C   UNL     1      -0.141  -1.906  25.215  0.00  0.00    -0.003 C 
ENDBRANCH  12  13
ENDBRANCH  11  12
TORSDOF 7
ENDMDL
MODEL 2
REMARK VINA RESULT:     -10.3      1.547      3.645
REMARK  Name = 
REMARK  7 active torsions:
REMARK  status: ('A' for Active; 'I' for Inactive)
REMARK    1  A    between atoms: C_2  and  C_4
REMARK    2  A    between atoms: C_4  and  C_5
REMARK    3  A    between atoms: C_7  and  C_21
REMARK    4  A    between atoms: N_11  and  C_12
REMARK    5  A    between atoms: C_12  and  C_13
REMARK    6  A    between atoms: N_23  and  C_24
REMARK    7  A    between atoms: C_24  and  C_25
REMARK                            x       y       z     vdW  Elec       q    Type
REMARK                         _______ _______ _______ _____ _____    ______ ____
ROOT
ATOM      5  C   UNL     1      -4.286   2.180  24.876  0.00  0.00    +0.095 C 
ATOM      6  N   UNL     1      -4.242   1.416  24.569  0.00  0.00    -0.207 NA
ATOM      7  C   UNL     1      -3.576   0.941  24.468  0.00  0.00    +0.155 C 
ATOM      8  C   UNL     1      -2.789   1.111  24.649  0.00  0.00    +0.055 C 
ATOM      9  C   UNL     1      -2.475   1.800  24.976  0.00  0.00    -0.002 A 
ATOM     10  C   UNL     1      -1.671   1.902  25.131  0.00  0.00    +0.072 A 
ATOM     11  N   UNL     1      -1.568   2.655  25.455  0.00  0.00    -0.322 N 
ATOM     15  C   UNL     1      -2.309   3.016  25.498  0.00  0.00    +0.060 A 
ATOM     16  C   UNL     1      -2.868   2.488  25.203  0.00  0.00    +0.011 A 
ATOM     17  C   UNL     1      -3.675   2.657  25.159  0.00  0.00    -0.005 A 
ATOM     18  C   UNL     1      -3.902   3.443  25.449  0.00  0.00    -0.003 A 
ATOM     19  C   UNL     1      -3.342   3.972  25.745  0.00  0.00    +0.001 A 
ATOM     20  C   UNL     1      -2.545   3.759  25.770  0.00  0.00    +0.017 A 
ENDROOT
BRANCH   7  21
ATOM     21  C   UNL     1      -3.715   0.195  24.142  0.00  0.00    +0.258 C 
ATOM     22  O   UNL     1      -3.833   0.115  23.329  0.00  0.00    -0.272 OA
ATOM     23  N   UNL     1      -3.737  -0.471  24.630  0.00  0.00    -0.199 NA
BRANCH  23  24
ATOM     24  C   UNL     1      -3.876  -1.216  24.304  0.00  0.00    +0.141 C 
BRANCH  24  25
ATOM     25  C   UNL     1      -3.774  -1.892  24.765  0.00  0.00    -0.003 C 
ATOM     26  C   UNL     1      -3.757  -2.636  24.407  0.00  0.00    -0.003 C 
ENDBRANCH  24  25
ENDBRANCH  23  24
ENDBRANCH   7  21
BRANCH   5   4
ATOM      4  C   UNL     1      -5.042   2.512  24.906  0.00  0.00    +0.022 C 
BRANCH   4   2
ATOM      1  C   UNL     1      -6.240   1.795  24.606  0.00  0.00    +0.000 C 
ATOM      2  C   UNL     1      -5.683   2.056  25.155  0.00  0.00    +0.002 C 
ATOM      3  C   UNL     1      -5.766   1.862  25.952  0.00  0.00    +0.000 C 
ENDBRANCH   4   2
ENDBRANCH   5   4
BRANCH  11  12
ATOM     12  C   UNL     1      -0.852   2.987  25.692  0.00  0.00    +0.132 C 
BRANCH  12  13
ATOM     13  C   UNL     1      -0.187   2.509  25.789  0.00  0.00    -0.002 C 
ATOM     14  C   UNL     1       0.438   2.762  26.265  0.00  0.00    -0.003 C 
ENDBRANCH  12  13
ENDBRANCH  11  12
TORSDOF 7
ENDMDL
MODEL 3
REMARK VINA RESULT:     -10.3      1.344      3.886
REMARK  Name = 
REMARK  7 active torsions:
REMARK  status: ('A' for Active; 'I' for Inactive)
REMARK    1  A    between atoms: C_2  and  C_4
REMARK    2  A    between atoms: C_4  and  C_5
REMARK    3  A    between atoms: C_7  and  C_21
REMARK    4  A    between atoms: N_11  and  C_12
REMARK    5  A    between atoms: C_12  and  C_13
REMARK    6  A    between atoms: N_23  and  C_24
REMARK    7  A    between atoms: C_24  and  C_25
REMARK                            x       y       z     vdW  Elec       q    Type
REMARK                         _______ _______ _______ _____ _____    ______ ____
ROOT
ATOM      5  C   UNL     1      -3.290   0.788  24.603  0.00  0.00    +0.095 C 
ATOM      6  N   UNL     1      -2.556   0.413  24.631  0.00  0.00    -0.207 NA
ATOM      7  C   UNL     1      -1.813   0.747  24.759  0.00  0.00    +0.155 C 
ATOM      8  C   UNL     1      -1.620   1.539  24.891  0.00  0.00    +0.055 C 
ATOM      9  C   UNL     1      -2.123   2.192  24.928  0.00  0.00    -0.002 A 
ATOM     10  C   UNL     1      -1.859   2.960  25.064  0.00  0.00    +0.072 A 
ATOM     11  N   UNL     1      -2.517   3.460  25.062  0.00  0.00    -0.322 N 
ATOM     15  C   UNL     1      -3.186   2.997  24.924  0.00  0.00    +0.060 A 
ATOM     16  C   UNL     1      -2.942   2.214  24.841  0.00  0.00    +0.011 A 
ATOM     17  C   UNL     1      -3.463   1.590  24.697  0.00  0.00    -0.005 A 
ATOM     18  C   UNL     1      -4.299   1.814  24.637  0.00  0.00    -0.003 A 
ATOM     19  C   UNL     1      -4.542   2.598  24.720  0.00  0.00    +0.001 A 
ATOM     20  C   UNL     1      -3.986   3.190  24.863  0.00  0.00    +0.017 A 
ENDROOT
BRANCH   7  21
ATOM     21  C   UNL     1      -1.178   0.220  24.755  0.00  0.00    +0.258 C 
ATOM     22  O   UNL     1      -0.988  -0.203  25.437  0.00  0.00    -0.272 OA
ATOM     23  N   UNL     1      -0.733   0.116  24.067  0.00  0.00    -0.199 NA
BRANCH  23  24
ATOM     24  C   UNL     1      -0.098  -0.412  24.063  0.00  0.00    +0.141 C 
BRANCH  24  25
ATOM     25  C   UNL     1       0.255  -0.624  23.349  0.00  0.00    -0.003 C 
ATOM     26  C   UNL     1       0.961  -0.264  23.116  0.00  0.00    -0.003 C 
ENDBRANCH  24  25
ENDBRANCH  23  24
ENDBRANCH   7  21
BRANCH   5   4
ATOM      4  C   UNL     1      -3.938   0.297  24.464  0.00  0.00    +0.022 C 
BRANCH   4   2
ATOM      1  C   UNL     1      -3.827  -1.080  24.098  0.00  0.00    +0.000 C 
ATOM      2  C   UNL     1      -3.907  -0.499  24.679  0.00  0.00    +0.002 C 
ATOM      3  C   UNL     1      -3.955  -0.714  25.473  0.00  0.00    +0.000 C 
ENDBRANCH   4   2
ENDBRANCH   5   4
BRANCH  11  12
ATOM     12  C   UNL     1      -2.506   4.276  25.177  0.00  0.00    +0.132 C 
BRANCH  12  13
ATOM     13  C   UNL     1      -1.787   4.673  25.260  0.00  0.00    -0.002 C 
ATOM     14  C   UNL     1      -1.762   5.496  25.210  0.00  0.00    -0.003 C 
ENDBRANCH  12  13
ENDBRANCH  11  12
TORSDOF 7
ENDMDL
MODEL 4
REMARK VINA RESULT:     -10.2      1.252      2.811
REMARK  Name = 
REMARK  7 active torsions:
REMARK  status: ('A' for Active; 'I' for Inactive)
REMARK    1  A    between atoms: C_2  and  C_4
REMARK    2  A    between atoms: C_4  and  C_5
REMARK    3  A    between atoms: C_7  and  C_21
REMARK    4  A    between atoms: N_11  and  C_12
REMARK    5  A    between atoms: C_12  and  C_13
REMARK    6  A    between atoms: N_23  and  C_24
REMARK    7  A    between atoms: C_24  and  C_25
REMARK                            x       y       z     vdW  Elec       q    Type
REMARK                         _______ _______ _______ _____ _____    ______ ____
ROOT
ATOM      5  C   UNL     1      -1.459   1.390  24.793  0.00  0.00    +0.095 C 
ATOM      6  N   UNL     1      -2.090   1.902  24.651  0.00  0.00    -0.207 NA
ATOM      7  C   UNL     1      -2.878   1.715  24.494  0.00  0.00    +0.155 C 
ATOM      8  C   UNL     1      -3.230   0.970  24.441  0.00  0.00    +0.055 C 
ATOM      9  C   UNL     1      -2.880   0.228  24.533  0.00  0.00    -0.002 A 
ATOM     10  C   UNL     1      -3.296  -0.480  24.466  0.00  0.00    +0.072 A 
ATOM     11  N   UNL     1      -2.765  -1.100  24.591  0.00  0.00    -0.322 N 
ATOM     15  C   UNL     1      -2.022  -0.772  24.735  0.00  0.00    +0.060 A 
ATOM     16  C   UNL     1      -2.093   0.048  24.699  0.00  0.00    +0.011 A 
ATOM     17  C   UNL     1      -1.460   0.566  24.815  0.00  0.00    -0.005 A 
ATOM     18  C   UNL     1      -0.699   0.183  24.981  0.00  0.00    -0.003 A 
ATOM     19  C   UNL     1      -0.627  -0.638  25.018  0.00  0.00    +0.001 A 
ATOM     20  C   UNL     1      -1.288  -1.116  24.895  0.00  0.00    +0.017 A 
ENDROOT
BRANCH   7  21
ATOM     21  C   UNL     1      -3.381   2.358  24.374  0.00  0.00    +0.258 C 
ATOM     22  O   UNL     1      -3.409   2.728  23.637  0.00  0.00    -0.272 OA
ATOM     23  N   UNL     1      -3.857   2.631  24.991  0.00  0.00    -0.199 NA
BRANCH  23  24
ATOM     24  C   UNL     1      -4.360   3.273  24.871  0.00  0.00    +0.141 C 
BRANCH  24  25
ATOM     25  C   UNL     1      -4.694   3.661  25.518  0.00  0.00    -0.003 C 
ATOM     26  C   UNL     1      -5.514   3.734  25.576  0.00  0.00    -0.003 C 
ENDBRANCH  24  25
ENDBRANCH  23  24
ENDBRANCH   7  21
BRANCH   5   4
ATOM      4  C   UNL     1      -0.730   1.751  24.933  0.00  0.00    +0.022 C 
BRANCH   4   2
ATOM      1  C   UNL     1      -0.565   3.163  24.789  0.00  0.00    +0.000 C 
ATOM      2  C   UNL     1      -0.700   2.505  25.268  0.00  0.00    +0.002 C 
ATOM      3  C   UNL     1      -0.805   2.600  26.080  0.00  0.00    +0.000 C 
ENDBRANCH   4   2
ENDBRANCH   5   4
BRANCH  11  12
ATOM     12  C   UNL     1      -2.945  -1.904  24.576  0.00  0.00    +0.132 C 
BRANCH  12  13
ATOM     13  C   UNL     1      -3.688  -2.156  24.319  0.00  0.00    -0.002 C 
ATOM     14  C   UNL     1      -3.853  -2.962  24.258  0.00  0.00    -0.003 C 
ENDBRANCH  12  13
ENDBRANCH  11  12
TORSDOF 7
ENDMDL
MODEL 5
REMARK VINA RESULT:     -10.0      1.470      2.319
REMARK  Name = 
REMARK  7 active torsions:
REMARK  status: ('A' for Active; 'I' for Inactive)
REMARK    1  A    between atoms: C_2  and  C_4
REMARK    2  A    between atoms: C_4  and  C_5
REMARK    3  A    between atoms: C_7  and  C_21
REMARK    4  A    between atoms: N_11  and  C_12
REMARK    5  A    between atoms: C_12  and  C_13
REMARK    6  A    between atoms: N_23  and  C_24
REMARK    7  A    between atoms: C_24  and  C_25
REMARK                            x       y       z     vdW  Elec       q    Type
REMARK                         _______ _______ _______ _____ _____    ______ ____
ROOT
ATOM      5  C   UNL     1      -3.585   2.260  25.016  0.00  0.00    +0.095 C 
ATOM      6  N   UNL     1      -2.764   2.327  24.969  0.00  0.00    -0.207 NA
ATOM      7  C   UNL     1      -2.210   1.741  24.798  0.00  0.00    +0.155 C 
ATOM      8  C   UNL     1      -2.339   0.943  24.630  0.00  0.00    +0.055 C 
ATOM      9  C   UNL     1      -3.055   0.535  24.593  0.00  0.00    -0.002 A 
ATOM     10  C   UNL     1      -3.110  -0.269  24.419  0.00  0.00    +0.072 A 
ATOM     11  N   UNL     1      -3.909  -0.479  24.433  0.00  0.00    -0.322 N 
ATOM     15  C   UNL     1      -4.345   0.197  24.615  0.00  0.00    +0.060 A 
ATOM     16  C   UNL     1      -3.818   0.823  24.715  0.00  0.00    +0.011 A 
ATOM     17  C   UNL     1      -4.054   1.591  24.903  0.00  0.00    -0.005 A 
ATOM     18  C   UNL     1      -4.911   1.701  24.992  0.00  0.00    -0.003 A 
ATOM     19  C   UNL     1      -5.439   1.075  24.892  0.00  0.00    +0.001 A 
ATOM     20  C   UNL     1      -5.156   0.322  24.704  0.00  0.00    +0.017 A 
ENDROOT
BRANCH   7  21
ATOM     21  C   UNL     1      -1.421   1.985  24.793  0.00  0.00    +0.258 C 
ATOM     22  O   UNL     1      -1.044   2.146  24.077  0.00  0.00    -0.272 OA
ATOM     23  N   UNL     1      -1.011   2.068  25.504  0.00  0.00    -0.199 NA
BRANCH  23  24
ATOM     24  C   UNL     1      -0.223   2.312  25.499  0.00  0.00    +0.141 C 
BRANCH  24  25
ATOM     25  C   UNL     1       0.069   2.774  26.116  0.00  0.00    -0.003 C 
ATOM     26  C   UNL     1       0.427   2.413  26.768  0.00  0.00    -0.003 C 
ENDBRANCH  24  25
ENDBRANCH  23  24
ENDBRANCH   7  21
BRANCH   5   4
ATOM      4  C   UNL     1      -3.991   2.955  25.201  0.00  0.00    +0.022 C 
BRANCH   4   2
ATOM      1  C   UNL     1      -3.329   4.178  25.526  0.00  0.00    +0.000 C 
ATOM      2  C   UNL     1      -3.686   3.685  24.969  0.00  0.00    +0.002 C 
ATOM      3  C   UNL     1      -3.738   3.923  24.181  0.00  0.00    +0.000 C 
ENDBRANCH   4   2
ENDBRANCH   5   4
BRANCH  11  12
ATOM     12  C   UNL     1      -4.215  -1.230  24.289  0.00  0.00    +0.132 C 
BRANCH  12  13
ATOM     13  C   UNL     1      -3.707  -1.873  24.196  0.00  0.00    -0.002 C 
ATOM     14  C   UNL     1      -4.012  -2.621  24.026  0.00  0.00    -0.003 C 
ENDBRANCH  12  13
ENDBRANCH  11  12
TORSDOF 7
ENDMDL
MODEL 6
REMARK VINA RESULT:      -9.8      1.423      4.452
REMARK  Name = 
REMARK  7 active torsions:
REMARK  status: ('A' for Active; 'I' for Inactive)
REMARK    1  A    between atoms: C_2  and  C_4
REMARK    2  A    between atoms: C_4  and  C_5
REMARK    3  A    between atoms: C_7  and  C_21
REMARK    4  A    between atoms: N_11  and  C_12
REMARK    5  A    between atoms: C_12  and  C_13
REMARK    6  A    between atoms: N_23  and  C_24
REMARK    7  A    between atoms: C_24  and  C_25
REMARK                            x       y       z     vdW  Elec       q    Type
REMARK                         _______ _______ _______ _____ _____    ______ ____
ROOT
ATOM      5  C   UNL     1      -1.640   2.661  25.281  0.00  0.00    +0.095 C 
ATOM      6  N   UNL     1      -1.392   1.944  24.959  0.00  0.00    -0.207 NA
ATOM      7  C   UNL     1      -1.851   1.330  24.655  0.00  0.00    +0.155 C 
ATOM      8  C   UNL     1      -2.673   1.282  24.598  0.00  0.00    +0.055 C 
ATOM      9  C   UNL     1      -3.238   1.837  24.830  0.00  0.00    -0.002 A 
ATOM     10  C   UNL     1      -4.049   1.722  24.742  0.00  0.00    +0.072 A 
ATOM     11  N   UNL     1      -4.435   2.391  25.035  0.00  0.00    -0.322 N 
ATOM     15  C   UNL     1      -3.860   2.918  25.304  0.00  0.00    +0.060 A 
ATOM     16  C   UNL     1      -3.121   2.575  25.177  0.00  0.00    +0.011 A 
ATOM     17  C   UNL     1      -2.409   2.943  25.378  0.00  0.00    -0.005 A 
ATOM     18  C   UNL     1      -2.490   3.729  25.739  0.00  0.00    -0.003 A 
ATOM     19  C   UNL     1      -3.230   4.071  25.865  0.00  0.00    +0.001 A 
ATOM     20  C   UNL     1      -3.915   3.666  25.648  0.00  0.00    +0.017 A 
ENDROOT
BRANCH   7  21
ATOM     21  C   UNL     1      -1.434   0.677  24.371  0.00  0.00    +0.258 C 
ATOM     22  O   UNL     1      -1.100   0.697  23.617  0.00  0.00    -0.272 OA
ATOM     23  N   UNL     1      -1.350   0.004  24.842  0.00  0.00    -0.199 NA
BRANCH  23  24
ATOM     24  C   UNL     1      -0.933  -0.648  24.557  0.00  0.00    +0.141 C 
BRANCH  24  25
ATOM     25  C   UNL     1      -0.689  -1.239  25.078  0.00  0.00    -0.003 C 
ATOM     26  C   UNL     1      -0.966  -2.011  24.984  0.00  0.00    -0.003 C 
ENDBRANCH  24  25
ENDBRANCH  23  24
ENDBRANCH   7  21
BRANCH   5   4
ATOM      4  C   UNL     1      -1.039   3.165  25.540  0.00  0.00    +0.022 C 
BRANCH   4   2
ATOM      1  C   UNL     1       0.305   2.898  25.137  0.00  0.00    +0.000 C 
ATOM      2  C   UNL     1      -0.290   2.862  25.707  0.00  0.00    +0.002 C 
ATOM      3  C   UNL     1      -0.136   2.524  26.443  0.00  0.00    +0.000 C 
ENDBRANCH   4   2
ENDBRANCH   5   4
BRANCH  11  12
ATOM     12  C   UNL     1      -5.250   2.511  25.055  0.00  0.00    +0.132 C 
BRANCH  12  13
ATOM     13  C   UNL     1      -5.765   1.872  24.963  0.00  0.00    -0.002 C 
ATOM     14  C   UNL     1      -6.581   1.993  24.975  0.00  0.00    -0.003 C 
ENDBRANCH  12  13
ENDBRANCH  11  12
TORSDOF 7
ENDMDL
MODEL 7
REMARK VINA RESULT:      -9.7      1.353      3.259
REMARK  Name = 
REMARK  7 active torsions:
REMARK  status: ('A' for Active; 'I' for Inactive)
REMARK    1  A    between atoms: C_2  and  C_4
REMARK    2  A    between atoms: C_4  and  C_5
REMARK    3  A    between atoms: C_7  and  C_21
REMARK    4  A    between atoms: N_11  and  C_12
REMARK    5  A    between atoms: C_12  and  C_13
REMARK    6  A    between atoms: N_23  and  C_24
REMARK    7  A    between atoms: C_24  and  C_25
REMARK                            x       y       z     vdW  Elec       q    Type
REMARK                         _______ _______ _______ _____ _____    ______ ____
ROOT
ATOM      5  C   UNL     1      -1.953   3.148  25.473  0.00  0.00    +0.095 C 
ATOM      6  N   UNL     1      -2.718   3.082  25.171  0.00  0.00    -0.207 NA
ATOM      7  C   UNL     1      -3.065   2.439  24.788  0.00  0.00    +0.155 C 
ATOM      8  C   UNL     1      -2.733   1.704  24.611  0.00  0.00    +0.055 C 
ATOM      9  C   UNL     1      -1.972   1.431  24.775  0.00  0.00    -0.002 A 
ATOM     10  C   UNL     1      -1.706   0.679  24.567  0.00  0.00    +0.072 A 
ATOM     11  N   UNL     1      -0.923   0.607  24.820  0.00  0.00    -0.322 N 
ATOM     15  C   UNL     1      -0.707   1.316  25.183  0.00  0.00    +0.060 A 
ATOM     16  C   UNL     1      -1.355   1.825  25.155  0.00  0.00    +0.011 A 
ATOM     17  C   UNL     1      -1.346   2.589  25.466  0.00  0.00    -0.005 A 
ATOM     18  C   UNL     1      -0.597   2.829  25.832  0.00  0.00    -0.003 A 
ATOM     19  C   UNL     1       0.052   2.319  25.860  0.00  0.00    +0.001 A 
ATOM     20  C   UNL     1      -0.003   1.563  25.536  0.00  0.00    +0.017 A 
ENDROOT
BRANCH   7  21
ATOM     21  C   UNL     1      -3.848   2.545  24.549  0.00  0.00    +0.258 C 
ATOM     22  O   UNL     1      -4.013   2.874  23.811  0.00  0.00    -0.272 OA
ATOM     23  N   UNL     1      -4.466   2.322  25.049  0.00  0.00    -0.199 NA
BRANCH  23  24
ATOM     24  C   UNL     1      -5.248   2.428  24.810  0.00  0.00    +0.141 C 
BRANCH  24  25
ATOM     25  C   UNL     1      -5.863   2.282  25.339  0.00  0.00    -0.003 C 
ATOM     26  C   UNL     1      -6.502   1.811  25.109  0.00  0.00    -0.003 C 
ENDBRANCH  24  25
ENDBRANCH  23  24
ENDBRANCH   7  21
BRANCH   5   4
ATOM      4  C   UNL     1      -1.770   3.870  25.830  0.00  0.00    +0.022 C 
BRANCH   4   2
ATOM      1  C   UNL     1      -2.725   4.933  25.822  0.00  0.00    +0.000 C 
ATOM      2  C   UNL     1      -2.053   4.574  25.505  0.00  0.00    +0.002 C 
ATOM      3  C   UNL     1      -1.665   4.918  24.864  0.00  0.00    +0.000 C 
ENDBRANCH   4   2
ENDBRANCH   5   4
BRANCH  11  12
ATOM     12  C   UNL     1      -0.442  -0.056  24.726  0.00  0.00    +0.132 C 
BRANCH  12  13
ATOM     13  C   UNL     1      -0.779  -0.791  24.560  0.00  0.00    -0.002 C 
ATOM     14  C   UNL     1      -0.309  -1.469  24.557  0.00  0.00    -0.003 C 
ENDBRANCH  12  13
ENDBRANCH  11  12
TORSDOF 7
ENDMDL
MODEL 8
REMARK VINA RESULT:      -9.6      1.430      4.726
REMARK  Name = 
REMARK  7 active torsions:
REMARK  status: ('A' for Active; 'I' for Inactive)
REMARK    1  A    between atoms: C_2  and  C_4
REMARK    2  A    between atoms: C_4  and  C_5
REMARK    3  A    between atoms: C_7  and  C_21
REMARK    4  A    between atoms: N_11  and  C_12
REMARK    5  A    between atoms: C_12  and  C_13
REMARK    6  A    between atoms: N_23  and  C_24
REMARK    7  A    between atoms: C_24  and  C_25
REMARK                            x       y       z     vdW  Elec       q    Type
REMARK                         _______ _______ _______ _____ _____    ______ ____
ROOT
ATOM      5  C   UNL     1      -1.965   1.389  24.855  0.00  0.00    +0.095 C 
ATOM      6  N   UNL     1      -2.363   0.721  24.581  0.00  0.00    -0.207 NA
ATOM      7  C   UNL     1      -3.172   0.618  24.461  0.00  0.00    +0.155 C 
ATOM      8  C   UNL     1      -3.784   1.158  24.584  0.00  0.00    +0.055 C 
ATOM      9  C   UNL     1      -3.737   1.934  24.859  0.00  0.00    -0.002 A 
ATOM     10  C   UNL     1      -4.395   2.420  24.959  0.00  0.00    +0.072 A 
ATOM     11  N   UNL     1      -4.132   3.151  25.240  0.00  0.00    -0.322 N 
ATOM     15  C   UNL     1      -3.311   3.113  25.313  0.00  0.00    +0.060 A 
ATOM     16  C   UNL     1      -3.067   2.362  25.078  0.00  0.00    +0.011 A 
ATOM     17  C   UNL     1      -2.278   2.120  25.076  0.00  0.00    -0.005 A 
ATOM     18  C   UNL     1      -1.709   2.719  25.344  0.00  0.00    -0.003 A 
ATOM     19  C   UNL     1      -1.953   3.471  25.580  0.00  0.00    +0.001 A 
ATOM     20  C   UNL     1      -2.754   3.669  25.565  0.00  0.00    +0.017 A 
ENDROOT
BRANCH   7  21
ATOM     21  C   UNL     1      -3.400  -0.124  24.179  0.00  0.00    +0.258 C 
ATOM     22  O   UNL     1      -3.607  -0.218  23.386  0.00  0.00    -0.272 OA
ATOM     23  N   UNL     1      -3.421  -0.771  24.691  0.00  0.00    -0.199 NA
BRANCH  23  24
ATOM     24  C   UNL     1      -3.649  -1.512  24.409  0.00  0.00    +0.141 C 
BRANCH  24  25
ATOM     25  C   UNL     1      -3.573  -2.177  24.891  0.00  0.00    -0.003 C 
ATOM     26  C   UNL     1      -3.556  -2.931  24.555  0.00  0.00    -0.003 C 
ENDBRANCH  24  25
ENDBRANCH  23  24
ENDBRANCH   7  21
BRANCH   5   4
ATOM      4  C   UNL     1      -1.144   1.318  24.916  0.00  0.00    +0.022 C 
BRANCH   4   2
ATOM      1  C   UNL     1      -0.464   0.085  24.676  0.00  0.00    +0.000 C 
ATOM      2  C   UNL     1      -0.734   0.817  24.406  0.00  0.00    +0.002 C 
ATOM      3  C   UNL     1      -0.595   1.046  23.626  0.00  0.00    +0.000 C 
ENDBRANCH   4   2
ENDBRANCH   5   4
BRANCH  11  12
ATOM     12  C   UNL     1      -4.606   3.802  25.417  0.00  0.00    +0.132 C 
BRANCH  12  13
ATOM     13  C   UNL     1      -5.426   3.718  25.453  0.00  0.00    -0.002 C 
ATOM     14  C   UNL     1      -5.903   4.378  25.588  0.00  0.00    -0.003 C 
ENDBRANCH  12  13
ENDBRANCH  11  12
TORSDOF 7
ENDMDL
MODEL 9
REMARK VINA RESULT:      -7.7     16.539     18.630
REMARK  Name = 
REMARK  7 active torsions:
REMARK  status: ('A' for Active; 'I' for Inactive)
REMARK    1  A    between atoms: C_2  and  C_4
REMARK    2  A    between atoms: C_4  and  C_5
REMARK    3  A    between atoms: C_7  and  C_21
REMARK    4  A    between atoms: N_11  and  C_12
REMARK    5  A    between atoms: C_12  and  C_13
REMARK    6  A    between atoms: N_23  and  C_24
REMARK    7  A    between atoms: C_24  and  C_25
REMARK                            x       y       z     vdW  Elec       q    Type
REMARK                         _______ _______ _______ _____ _____    ______ ____
ROOT
ATOM      5  C   UNL     1      12.788   7.760  20.356  0.00  0.00    +0.095 C 
ATOM      6  N   UNL     1      12.482   7.737  19.590  0.00  0.00    -0.207 NA
ATOM      7  C   UNL     1      12.864   7.524  18.891  0.00  0.00    +0.155 C 
ATOM      8  C   UNL     1      13.645   7.281  18.783  0.00  0.00    +0.055 C 
ATOM      9  C   UNL     1      14.238   7.191  19.350  0.00  0.00    -0.002 A 
ATOM     10  C   UNL     1      15.003   6.943  19.170  0.00  0.00    +0.072 A 
ATOM     11  N   UNL     1      15.436   6.919  19.874  0.00  0.00    -0.322 N 
ATOM     15  C   UNL     1      14.935   7.154  20.486  0.00  0.00    +0.060 A 
ATOM     16  C   UNL     1      14.196   7.322  20.163  0.00  0.00    +0.011 A 
ATOM     17  C   UNL     1      13.551   7.575  20.611  0.00  0.00    -0.005 A 
ATOM     18  C   UNL     1      13.703   7.655  21.462  0.00  0.00    -0.003 A 
ATOM     19  C   UNL     1      14.443   7.486  21.786  0.00  0.00    +0.001 A 
ATOM     20  C   UNL     1      15.060   7.236  21.298  0.00  0.00    +0.017 A 
ENDROOT
BRANCH   7  21
ATOM     21  C   UNL     1      12.402   7.559  18.207  0.00  0.00    +0.258 C 
ATOM     22  O   UNL     1      12.060   6.872  17.905  0.00  0.00    -0.272 OA
ATOM     23  N   UNL     1      12.284   8.282  17.825  0.00  0.00    -0.199 NA
BRANCH  23  24
ATOM     24  C   UNL     1      11.823   8.316  17.142  0.00  0.00    +0.141 C 
BRANCH  24  25
ATOM     25  C   UNL     1      11.624   9.047  16.816  0.00  0.00    -0.003 C 
ATOM     26  C   UNL     1      11.372   9.093  16.031  0.00  0.00    -0.003 C 
ENDBRANCH  24  25
ENDBRANCH  23  24
ENDBRANCH   7  21
BRANCH   5   4
ATOM      4  C   UNL     1      12.262   7.999  20.945  0.00  0.00    +0.022 C 
BRANCH   4   2
ATOM      1  C   UNL     1      11.241   7.008  21.078  0.00  0.00    +0.000 C 
ATOM      2  C   UNL     1      11.467   7.782  20.901  0.00  0.00    +0.002 C 
ATOM      3  C   UNL     1      10.899   8.337  20.681  0.00  0.00    +0.000 C 
ENDBRANCH   4   2
ENDBRANCH   5   4
BRANCH  11  12
ATOM     12  C   UNL     1      16.226   6.700  19.950  0.00  0.00    +0.132 C 
BRANCH  12  13
ATOM     13  C   UNL     1      16.612   6.321  19.326  0.00  0.00    -0.002 C 
ATOM     14  C   UNL     1      17.404   6.103  19.402  0.00  0.00    -0.003 C 
ENDBRANCH  12  13
ENDBRANCH  11  12
TORSDOF 7
ENDMDL
MODEL 10
REMARK VINA RESULT:      -7.5     16.280     18.404
REMARK  Name = 
REMARK  7 active torsions:
REMARK  status: ('A' for Active; 'I' for Inactive)
REMARK    1  A    between atoms: C_2  and  C_4
REMARK    2  A    between atoms: C_4  and  C_5
REMARK    3  A    between atoms: C_7  and  C_21
REMARK    4  A    between atoms: N_11  and  C_12
REMARK    5  A    between atoms: C_12  and  C_13
REMARK    6  A    between atoms: N_23  and  C_24
REMARK    7  A    between atoms: C_24  and  C_25
REMARK                            x       y       z     vdW  Elec       q    Type
REMARK                         _______ _______ _______ _____ _____    ______ ____
ROOT
ATOM      5  C   UNL     1      12.870   7.457  18.832  0.00  0.00    +0.095 C 
ATOM      6  N   UNL     1      12.339   7.354  19.454  0.00  0.00    -0.207 NA
ATOM      7  C   UNL     1      12.491   7.095  20.222  0.00  0.00    +0.155 C 
ATOM      8  C   UNL     1      13.212   6.874  20.558  0.00  0.00    +0.055 C 
ATOM      9  C   UNL     1      13.959   6.859  20.208  0.00  0.00    -0.002 A 
ATOM     10  C   UNL     1      14.642   6.625  20.606  0.00  0.00    +0.072 A 
ATOM     11  N   UNL     1      15.276   6.682  20.080  0.00  0.00    -0.322 N 
ATOM     15  C   UNL     1      14.983   6.950  19.357  0.00  0.00    +0.060 A 
ATOM     16  C   UNL     1      14.170   7.060  19.436  0.00  0.00    +0.011 A 
ATOM     17  C   UNL     1      13.685   7.326  18.823  0.00  0.00    -0.005 A 
ATOM     18  C   UNL     1      14.094   7.487  18.075  0.00  0.00    -0.003 A 
ATOM     19  C   UNL     1      14.909   7.378  17.996  0.00  0.00    +0.001 A 
ATOM     20  C   UNL     1      15.353   7.109  18.637  0.00  0.00    +0.017 A 
ENDROOT
BRANCH   7  21
ATOM     21  C   UNL     1      11.835   7.050  20.721  0.00  0.00    +0.258 C 
ATOM     22  O   UNL     1      11.347   6.385  20.703  0.00  0.00    -0.272 OA
ATOM     23  N   UNL     1      11.667   7.671  21.238  0.00  0.00    -0.199 NA
BRANCH  23  24
ATOM     24  C   UNL     1      11.011   7.626  21.736  0.00  0.00    +0.141 C 
BRANCH  24  25
ATOM     25  C   UNL     1      10.931   8.160  22.360  0.00  0.00    -0.003 C 
ATOM     26  C   UNL     1      10.322   8.718  22.350  0.00  0.00    -0.003 C 
ENDBRANCH  24  25
ENDBRANCH  23  24
ENDBRANCH   7  21
BRANCH   5   4
ATOM      4  C   UNL     1      12.544   7.726  18.122  0.00  0.00    +0.022 C 
BRANCH   4   2
ATOM      1  C   UNL     1      11.203   8.172  17.911  0.00  0.00    +0.000 C 
ATOM      2  C   UNL     1      11.983   8.331  18.130  0.00  0.00    +0.002 C 
ATOM      3  C   UNL     1      12.201   9.093  18.356  0.00  0.00    +0.000 C 
ENDBRANCH   4   2
ENDBRANCH   5   4
BRANCH  11  12
ATOM     12  C   UNL     1      16.063   6.502  20.248  0.00  0.00    +0.132 C 
BRANCH  12  13
ATOM     13  C   UNL     1      16.322   6.472  21.031  0.00  0.00    -0.002 C 
ATOM     14  C   UNL     1      17.130   6.465  21.198  0.00  0.00    -0.003 C 
ENDBRANCH  12  13
ENDBRANCH  11  12
TORSDOF 7
ENDMDL
