MODEL 1
REMARK VINA RESULT:     -13.2      0.000      0.000
REMARK  Name = 
REMARK  7 active torsions:
REMARK  status: ('A' for Active; 'I' for Inactive)
REMARK    1  A    between atoms: C_2  and  C_3
REMARK    2  A    between atoms: C_2  and  C_26
REMARK    3  A    between atoms: C_10  and  N_11
REMARK    4  A    between atoms: C_12  and  C_14
REMARK    5  A    between atoms: C_14  and  C_15
REMARK    6  A    between atoms: N_28  and  C_29
REMARK    7  A    between atoms: C_29  and  C_30
REMARK                            x       y       z     vdW  Elec       q    Type
REMARK                         _______ _______ _______ _____ _____    ______ ____
ROOT
ATOM      3  C   UNL     1      -3.942   3.297  24.805  0.00  0.00    +0.039 C 
ATOM      4  C   UNL     1      -4.534   3.354  25.378  0.00  0.00    +0.003 C 
ATOM      5  C   UNL     1      -4.999   2.697  25.557  0.00  0.00    +0.000 C 
ATOM      6  C   UNL     1      -4.873   1.983  25.164  0.00  0.00    +0.002 C 
ATOM      7  C   UNL     1      -5.464   2.040  25.735  0.00  0.00    +0.000 C 
ATOM      8  C   UNL     1      -5.338   1.325  25.342  0.00  0.00    +0.002 C 
ATOM      9  C   UNL     1      -5.212   0.612  24.949  0.00  0.00    +0.022 C 
ATOM     10  C   UNL     1      -4.619   0.555  24.376  0.00  0.00    +0.095 C 
ATOM     21  C   UNL     1      -4.155   1.212  24.197  0.00  0.00    +0.022 C 
ATOM     22  C   UNL     1      -3.563   1.155  23.625  0.00  0.00    +0.002 C 
ATOM     23  C   UNL     1      -4.281   1.927  24.591  0.00  0.00    +0.032 C 
ATOM     24  C   UNL     1      -3.816   2.584  24.412  0.00  0.00    +0.152 C 
ATOM     25  O   UNL     1      -3.225   2.527  23.839  0.00  0.00    -0.223 OA
ENDROOT
BRANCH  10  11
ATOM     11  N   UNL     1      -4.493  -0.160  23.983  0.00  0.00    -0.207 NA
ATOM     12  C   UNL     1      -4.312  -0.840  24.412  0.00  0.00    +0.246 C 
ATOM     13  O   UNL     1      -4.256  -0.807  25.235  0.00  0.00    -0.273 OA
BRANCH  12  14
ATOM     14  C   UNL     1      -4.186  -1.555  24.018  0.00  0.00    +0.113 C 
BRANCH  14  15
ATOM     15  C   UNL     1      -3.585  -2.062  24.265  0.00  0.00    -0.013 A 
ATOM     16  C   UNL     1      -3.772  -2.764  24.657  0.00  0.00    -0.004 A 
ATOM     17  C   UNL     1      -3.169  -3.271  24.904  0.00  0.00    -0.000 A 
ATOM     18  C   UNL     1      -2.381  -3.077  24.760  0.00  0.00    -0.000 A 
ATOM     19  C   UNL     1      -2.194  -2.374  24.369  0.00  0.00    -0.000 A 
ATOM     20  C   UNL     1      -2.796  -1.868  24.122  0.00  0.00    -0.004 A 
ENDBRANCH  14  15
ENDBRANCH  12  14
ENDBRANCH  10  11
BRANCH   3   2
ATOM      1  C   UNL     1      -3.647   4.413  23.961  0.00  0.00    +0.010 C 
ATOM      2  C   UNL     1      -3.478   3.955  24.626  0.00  0.00    +0.081 C 
BRANCH   2  26
ATOM     26  C   UNL     1      -2.843   4.156  25.113  0.00  0.00    +0.241 C 
ATOM     27  O   UNL     1      -2.942   4.718  25.710  0.00  0.00    -0.273 OA
ATOM     28  N   UNL     1      -2.108   3.794  25.005  0.00  0.00    -0.201 NA
BRANCH  28  29
ATOM     29  C   UNL     1      -1.474   3.994  25.492  0.00  0.00    +0.143 C 
BRANCH  29  30
ATOM     30  C   UNL     1      -0.846   3.469  25.588  0.00  0.00    +0.019 A 
ATOM     31  C   UNL     1      -0.796   3.006  26.270  0.00  0.00    +0.001 A 
ATOM     32  C   UNL     1      -0.168   2.481  26.366  0.00  0.00    +0.020 A 
ATOM     33  C   UNL     1       0.411   2.418  25.781  0.00  0.00    +0.099 A 
ATOM     34  N   UNL     1       0.361   2.881  25.100  0.00  0.00    -0.243 NA
ATOM     35  C   UNL     1      -0.268   3.407  25.003  0.00  0.00    +0.096 A 
ENDBRANCH  29  30
ENDBRANCH  28  29
ENDBRANCH   2  26
ENDBRANCH   3   2
TORSDOF 7
ENDMDL
MODEL 2
REMARK VINA RESULT:     -12.8      1.835      3.710
REMARK  Name = 
REMARK  7 active torsions:
REMARK  status: ('A' for Active; 'I' for Inactive)
REMARK    1  A    between atoms: C_2  and  C_3
REMARK    2  A    between atoms: C_2  and  C_26
REMARK    3  A    between atoms: C_10  and  N_11
REMARK    4  A    between atoms: C_12  and  C_14
REMARK    5  A    between atoms: C_14  and  C_15
REMARK    6  A    between atoms: N_28  and  C_29
REMARK    7  A    between atoms: C_29  and  C_30
REMARK                            x       y       z     vdW  Elec       q    Type
REMARK                         _______ _______ _______ _____ _____    ______ ____
ROOT
ATOM      3  C   UNL     1      -0.222   2.252  25.201  0.00  0.00    +0.039 C 
ATOM      4  C   UNL     1       0.203   2.328  24.497  0.00  0.00    +0.003 C 
ATOM      5  C   UNL     1       0.325   1.670  24.016  0.00  0.00    +0.000 C 
ATOM      6  C   UNL     1       0.022   0.936  24.237  0.00  0.00    +0.002 C 
ATOM      7  C   UNL     1       0.446   1.012  23.535  0.00  0.00    +0.000 C 
ATOM      8  C   UNL     1       0.143   0.277  23.756  0.00  0.00    +0.002 C 
ATOM      9  C   UNL     1      -0.159  -0.458  23.977  0.00  0.00    +0.022 C 
ATOM     10  C   UNL     1      -0.585  -0.534  24.681  0.00  0.00    +0.095 C 
ATOM     21  C   UNL     1      -0.706   0.124  25.162  0.00  0.00    +0.022 C 
ATOM     22  C   UNL     1      -1.131   0.048  25.865  0.00  0.00    +0.002 C 
ATOM     23  C   UNL     1      -0.403   0.860  24.941  0.00  0.00    +0.032 C 
ATOM     24  C   UNL     1      -0.525   1.518  25.422  0.00  0.00    +0.152 C 
ATOM     25  O   UNL     1      -0.950   1.442  26.125  0.00  0.00    -0.223 OA
ENDROOT
BRANCH  10  11
ATOM     11  N   UNL     1      -0.888  -1.269  24.901  0.00  0.00    -0.207 NA
ATOM     12  C   UNL     1      -1.331  -1.711  24.365  0.00  0.00    +0.246 C 
ATOM     13  O   UNL     1      -1.472  -1.418  23.606  0.00  0.00    -0.273 OA
BRANCH  12  14
ATOM     14  C   UNL     1      -1.634  -2.446  24.586  0.00  0.00    +0.113 C 
BRANCH  14  15
ATOM     15  C   UNL     1      -2.447  -2.581  24.565  0.00  0.00    -0.013 A 
ATOM     16  C   UNL     1      -2.812  -2.791  23.855  0.00  0.00    -0.004 A 
ATOM     17  C   UNL     1      -3.626  -2.926  23.835  0.00  0.00    -0.000 A 
ATOM     18  C   UNL     1      -4.074  -2.851  24.522  0.00  0.00    -0.000 A 
ATOM     19  C   UNL     1      -3.709  -2.641  25.233  0.00  0.00    -0.000 A 
ATOM     20  C   UNL     1      -2.896  -2.506  25.253  0.00  0.00    -0.004 A 
ENDBRANCH  14  15
ENDBRANCH  12  14
ENDBRANCH  10  11
BRANCH   3   2
ATOM      1  C   UNL     1       0.038   2.967  26.412  0.00  0.00    +0.010 C 
ATOM      2  C   UNL     1      -0.344   2.911  25.683  0.00  0.00    +0.081 C 
BRANCH   2  26
ATOM     26  C   UNL     1      -0.848   3.515  25.434  0.00  0.00    +0.241 C 
ATOM     27  O   UNL     1      -0.541   4.175  25.044  0.00  0.00    -0.273 OA
ATOM     28  N   UNL     1      -1.660   3.460  25.576  0.00  0.00    -0.201 NA
BRANCH  28  29
ATOM     29  C   UNL     1      -2.163   4.063  25.328  0.00  0.00    +0.143 C 
BRANCH  29  30
ATOM     30  C   UNL     1      -2.979   3.940  25.312  0.00  0.00    +0.019 A 
ATOM     31  C   UNL     1      -3.356   3.769  24.598  0.00  0.00    +0.001 A 
ATOM     32  C   UNL     1      -4.171   3.646  24.583  0.00  0.00    +0.020 A 
ATOM     33  C   UNL     1      -4.610   3.694  25.280  0.00  0.00    +0.099 A 
ATOM     34  N   UNL     1      -4.232   3.865  25.994  0.00  0.00    -0.243 NA
ATOM     35  C   UNL     1      -3.416   3.988  26.009  0.00  0.00    +0.096 A 
ENDBRANCH  29  30
ENDBRANCH  28  29
ENDBRANCH   2  26
ENDBRANCH   3   2
TORSDOF 7
ENDMDL
MODEL 3
REMARK VINA RESULT:     -12.2      2.909      5.091
REMARK  Name = 
REMARK  7 active torsions:
REMARK  status: ('A' for Active; 'I' for Inactive)
REMARK    1  A    between atoms: C_2  and  C_3
REMARK    2  A    between atoms: C_2  and  C_26
REMARK    3  A    between atoms: C_10  and  N_11
REMARK    4  A    between atoms: C_12  and  C_14
REMARK    5  A    between atoms: C_14  and  C_15
REMARK    6  A    between atoms: N_28  and  C_29
REMARK    7  A    between atoms: C_29  and  C_30
REMARK                            x       y       z     vdW  Elec       q    Type
REMARK                         _______ _______ _______ _____ _____    ______ ____
ROOT
ATOM      3  C   UNL     1       0.052   0.799  23.893  0.00  0.00    +0.039 C 
ATOM      4  C   UNL     1       0.515   1.358  24.287  0.00  0.00    +0.003 C 
ATOM      5  C   UNL     1       0.181   2.070  24.533  0.00  0.00    +0.000 C 
ATOM      6  C   UNL     1      -0.616   2.224  24.387  0.00  0.00    +0.002 C 
ATOM      7  C   UNL     1      -0.154   2.782  24.779  0.00  0.00    +0.000 C 
ATOM      8  C   UNL     1      -0.951   2.937  24.633  0.00  0.00    +0.002 C 
ATOM      9  C   UNL     1      -1.747   3.091  24.487  0.00  0.00    +0.022 C 
ATOM     10  C   UNL     1      -2.211   2.532  24.093  0.00  0.00    +0.095 C 
ATOM     21  C   UNL     1      -1.876   1.820  23.847  0.00  0.00    +0.022 C 
ATOM     22  C   UNL     1      -2.339   1.261  23.454  0.00  0.00    +0.002 C 
ATOM     23  C   UNL     1      -1.079   1.665  23.993  0.00  0.00    +0.032 C 
ATOM     24  C   UNL     1      -0.745   0.953  23.747  0.00  0.00    +0.152 C 
ATOM     25  O   UNL     1      -1.207   0.394  23.354  0.00  0.00    -0.223 OA
ENDROOT
BRANCH  10  11
ATOM     11  N   UNL     1      -3.008   2.686  23.947  0.00  0.00    -0.207 NA
ATOM     12  C   UNL     1      -3.476   3.030  24.532  0.00  0.00    +0.246 C 
ATOM     13  O   UNL     1      -3.147   3.219  25.266  0.00  0.00    -0.273 OA
BRANCH  12  14
ATOM     14  C   UNL     1      -4.273   3.185  24.386  0.00  0.00    +0.113 C 
BRANCH  14  15
ATOM     15  C   UNL     1      -4.854   2.837  24.856  0.00  0.00    -0.013 A 
ATOM     16  C   UNL     1      -5.237   2.151  24.599  0.00  0.00    -0.004 A 
ATOM     17  C   UNL     1      -5.818   1.803  25.070  0.00  0.00    -0.000 A 
ATOM     18  C   UNL     1      -6.018   2.139  25.796  0.00  0.00    -0.000 A 
ATOM     19  C   UNL     1      -5.636   2.825  26.052  0.00  0.00    -0.000 A 
ATOM     20  C   UNL     1      -5.055   3.173  25.582  0.00  0.00    -0.004 A 
ENDBRANCH  14  15
ENDBRANCH  12  14
ENDBRANCH  10  11
BRANCH   3   2
ATOM      1  C   UNL     1       0.168  -0.622  24.011  0.00  0.00    +0.010 C 
ATOM      2  C   UNL     1       0.387   0.086  23.647  0.00  0.00    +0.081 C 
BRANCH   2  26
ATOM     26  C   UNL     1       0.942   0.081  23.036  0.00  0.00    +0.241 C 
ATOM     27  O   UNL     1       0.690   0.051  22.250  0.00  0.00    -0.273 OA
ATOM     28  N   UNL     1       1.748   0.105  23.210  0.00  0.00    -0.201 NA
BRANCH  28  29
ATOM     29  C   UNL     1       2.302   0.100  22.600  0.00  0.00    +0.143 C 
BRANCH  29  30
ATOM     30  C   UNL     1       3.104   0.188  22.770  0.00  0.00    +0.019 A 
ATOM     31  C   UNL     1       3.482   0.906  22.620  0.00  0.00    +0.001 A 
ATOM     32  C   UNL     1       4.284   0.994  22.790  0.00  0.00    +0.020 A 
ATOM     33  C   UNL     1       4.710   0.363  23.110  0.00  0.00    +0.099 A 
ATOM     34  N   UNL     1       4.332  -0.355  23.260  0.00  0.00    -0.243 NA
ATOM     35  C   UNL     1       3.529  -0.443  23.090  0.00  0.00    +0.096 A 
ENDBRANCH  29  30
ENDBRANCH  28  29
ENDBRANCH   2  26
ENDBRANCH   3   2
TORSDOF 7
ENDMDL
MODEL 4
REMARK VINA RESULT:     -11.6      3.189      5.695
REMARK  Name = 
REMARK  7 active torsions:
REMARK  status: ('A' for Active; 'I' for Inactive)
REMARK    1  A    between atoms: C_2  and  C_3
REMARK    2  A    between atoms: C_2  and  C_26
REMARK    3  A    between atoms: C_10  and  N_11
REMARK    4  A    between atoms: C_12  and  C_14
REMARK    5  A    between atoms: C_14  and  C_15
REMARK    6  A    between atoms: N_28  and  C_29
REMARK    7  A    between atoms: C_29  and  C_30
REMARK                            x       y       z     vdW  Elec       q    Type
REMARK                         _______ _______ _______ _____ _____    ______ ____
ROOT
ATOM      3  C   UNL     1      -1.670   0.487  24.835  0.00  0.00    +0.039 C 
ATOM      4  C   UNL     1      -1.583   1.271  25.078  0.00  0.00    +0.003 C 
ATOM      5  C   UNL     1      -0.904   1.693  24.873  0.00  0.00    +0.000 C 
ATOM      6  C   UNL     1      -0.314   1.332  24.426  0.00  0.00    +0.002 C 
ATOM      7  C   UNL     1      -0.226   2.114  24.669  0.00  0.00    +0.000 C 
ATOM      8  C   UNL     1       0.366   1.753  24.221  0.00  0.00    +0.002 C 
ATOM      9  C   UNL     1       0.956   1.392  23.773  0.00  0.00    +0.022 C 
ATOM     10  C   UNL     1       0.868   0.608  23.530  0.00  0.00    +0.095 C 
ATOM     21  C   UNL     1       0.190   0.186  23.734  0.00  0.00    +0.022 C 
ATOM     22  C   UNL     1       0.103  -0.597  23.491  0.00  0.00    +0.002 C 
ATOM     23  C   UNL     1      -0.401   0.547  24.182  0.00  0.00    +0.032 C 
ATOM     24  C   UNL     1      -1.080   0.126  24.387  0.00  0.00    +0.152 C 
ATOM     25  O   UNL     1      -1.167  -0.658  24.144  0.00  0.00    -0.223 OA
ENDROOT
BRANCH  10  11
ATOM     11  N   UNL     1       1.460   0.247  23.082  0.00  0.00    -0.207 NA
ATOM     12  C   UNL     1       2.214   0.579  23.048  0.00  0.00    +0.246 C 
ATOM     13  O   UNL     1       2.377   1.275  23.463  0.00  0.00    -0.273 OA
BRANCH  12  14
ATOM     14  C   UNL     1       2.805   0.218  22.600  0.00  0.00    +0.113 C 
BRANCH  14  15
ATOM     15  C   UNL     1       3.572   0.161  22.898  0.00  0.00    -0.013 A 
ATOM     16  C   UNL     1       3.816  -0.531  23.277  0.00  0.00    -0.004 A 
ATOM     17  C   UNL     1       4.584  -0.588  23.575  0.00  0.00    -0.000 A 
ATOM     18  C   UNL     1       5.106   0.045  23.495  0.00  0.00    -0.000 A 
ATOM     19  C   UNL     1       4.861   0.737  23.116  0.00  0.00    -0.000 A 
ATOM     20  C   UNL     1       4.095   0.794  22.818  0.00  0.00    -0.004 A 
ENDBRANCH  14  15
ENDBRANCH  12  14
ENDBRANCH  10  11
BRANCH   3   2
ATOM      1  C   UNL     1      -2.310  -0.531  25.609  0.00  0.00    +0.010 C 
ATOM      2  C   UNL     1      -2.349   0.065  25.040  0.00  0.00    +0.081 C 
BRANCH   2  26
ATOM     26  C   UNL     1      -3.069   0.241  24.676  0.00  0.00    +0.241 C 
ATOM     27  O   UNL     1      -3.275  -0.131  23.968  0.00  0.00    -0.273 OA
ATOM     28  N   UNL     1      -3.583   0.788  25.019  0.00  0.00    -0.201 NA
BRANCH  28  29
ATOM     29  C   UNL     1      -4.301   0.963  24.656  0.00  0.00    +0.143 C 
BRANCH  29  30
ATOM     30  C   UNL     1      -4.780   1.565  24.955  0.00  0.00    +0.019 A 
ATOM     31  C   UNL     1      -4.659   2.345  24.717  0.00  0.00    +0.001 A 
ATOM     32  C   UNL     1      -5.138   2.946  25.017  0.00  0.00    +0.020 A 
ATOM     33  C   UNL     1      -5.738   2.767  25.555  0.00  0.00    +0.099 A 
ATOM     34  N   UNL     1      -5.858   1.986  25.792  0.00  0.00    -0.243 NA
ATOM     35  C   UNL     1      -5.379   1.385  25.493  0.00  0.00    +0.096 A 
ENDBRANCH  29  30
ENDBRANCH  28  29
ENDBRANCH   2  26
ENDBRANCH   3   2
TORSDOF 7
ENDMDL
MODEL 5
REMARK VINA RESULT:     -11.5      1.912      5.252
REMARK  Name = 
REMARK  7 active torsions:
REMARK  status: ('A' for Active; 'I' for Inactive)
REMARK    1  A    between atoms: C_2  and  C_3
REMARK    2  A    between atoms: C_2  and  C_26
REMARK    3  A    between atoms: C_10  and  N_11
REMARK    4  A    between atoms: C_12  and  C_14
REMARK    5  A    between atoms: C_14  and  C_15
REMARK    6  A    between atoms: N_28  and  C_29
REMARK    7  A    between atoms: C_29  and  C_30
REMARK                            x       y       z     vdW  Elec       q    Type
REMARK                         _______ _______ _______ _____ _____    ______ ____
ROOT
ATOM      3  C   UNL     1      -0.262   0.749  24.191  0.00  0.00    +0.039 C 
ATOM      4  C   UNL     1       0.263   1.090  24.730  0.00  0.00    +0.003 C 
ATOM      5  C   UNL     1       0.077   1.809  25.088  0.00  0.00    +0.000 C 
ATOM      6  C   UNL     1      -0.633   2.188  24.907  0.00  0.00    +0.002 C 
ATOM      7  C   UNL     1      -0.109   2.528  25.445  0.00  0.00    +0.000 C 
ATOM      8  C   UNL     1      -0.819   2.908  25.265  0.00  0.00    +0.002 C 
ATOM      9  C   UNL     1      -1.528   3.287  25.084  0.00  0.00    +0.022 C 
ATOM     10  C   UNL     1      -2.053   2.947  24.544  0.00  0.00    +0.095 C 
ATOM     21  C   UNL     1      -1.867   2.228  24.187  0.00  0.00    +0.022 C 
ATOM     22  C   UNL     1      -2.391   1.887  23.648  0.00  0.00    +0.002 C 
ATOM     23  C   UNL     1      -1.157   1.848  24.367  0.00  0.00    +0.032 C 
ATOM     24  C   UNL     1      -0.971   1.129  24.010  0.00  0.00    +0.152 C 
ATOM     25  O   UNL     1      -1.495   0.788  23.471  0.00  0.00    -0.223 OA
ENDROOT
BRANCH  10  11
ATOM     11  N   UNL     1      -2.763   3.327  24.364  0.00  0.00    -0.207 NA
ATOM     12  C   UNL     1      -3.297   3.512  24.964  0.00  0.00    +0.246 C 
ATOM     13  O   UNL     1      -3.121   3.316  25.747  0.00  0.00    -0.273 OA
BRANCH  12  14
ATOM     14  C   UNL     1      -4.007   3.892  24.784  0.00  0.00    +0.113 C 
BRANCH  14  15
ATOM     15  C   UNL     1      -4.721   3.584  25.057  0.00  0.00    -0.013 A 
ATOM     16  C   UNL     1      -5.143   3.981  25.646  0.00  0.00    -0.004 A 
ATOM     17  C   UNL     1      -5.858   3.672  25.919  0.00  0.00    -0.000 A 
ATOM     18  C   UNL     1      -6.151   2.969  25.605  0.00  0.00    -0.000 A 
ATOM     19  C   UNL     1      -5.729   2.572  25.016  0.00  0.00    -0.000 A 
ATOM     20  C   UNL     1      -5.015   2.880  24.742  0.00  0.00    -0.004 A 
ENDBRANCH  14  15
ENDBRANCH  12  14
ENDBRANCH  10  11
BRANCH   3   2
ATOM      1  C   UNL     1       0.237   0.015  23.070  0.00  0.00    +0.010 C 
ATOM      2  C   UNL     1      -0.075   0.029  23.833  0.00  0.00    +0.081 C 
BRANCH   2  26
ATOM     26  C   UNL     1      -0.201  -0.677  24.239  0.00  0.00    +0.241 C 
ATOM     27  O   UNL     1       0.423  -1.042  24.638  0.00  0.00    -0.273 OA
ATOM     28  N   UNL     1      -0.953  -1.020  24.248  0.00  0.00    -0.201 NA
BRANCH  28  29
ATOM     29  C   UNL     1      -1.079  -1.726  24.654  0.00  0.00    +0.143 C 
BRANCH  29  30
ATOM     30  C   UNL     1      -1.842  -2.031  24.725  0.00  0.00    +0.019 A 
ATOM     31  C   UNL     1      -2.349  -1.744  25.309  0.00  0.00    +0.001 A 
ATOM     32  C   UNL     1      -3.111  -2.049  25.380  0.00  0.00    +0.020 A 
ATOM     33  C   UNL     1      -3.368  -2.642  24.866  0.00  0.00    +0.099 A 
ATOM     34  N   UNL     1      -2.861  -2.929  24.282  0.00  0.00    -0.243 NA
ATOM     35  C   UNL     1      -2.097  -2.624  24.211  0.00  0.00    +0.096 A 
ENDBRANCH  29  30
ENDBRANCH  28  29
ENDBRANCH   2  26
ENDBRANCH   3   2
TORSDOF 7
ENDMDL
MODEL 6
REMARK VINA RESULT:     -11.5      1.345      4.883
REMARK  Name = 
REMARK  7 active torsions:
REMARK  status: ('A' for Active; 'I' for Inactive)
REMARK    1  A    between atoms: C_2  and  C_3
REMARK    2  A    between atoms: C_2  and  C_26
REMARK    3  A    between atoms: C_10  and  N_11
REMARK    4  A    between atoms: C_12  and  C_14
REMARK    5  A    between atoms: C_14  and  C_15
REMARK    6  A    between atoms: N_28  and  C_29
REMARK    7  A    between atoms: C_29  and  C_30
REMARK                            x       y       z     vdW  Elec       q    Type
REMARK                         _______ _______ _______ _____ _____    ______ ____
ROOT
ATOM      3  C   UNL     1      -4.362   0.087  24.360  0.00  0.00    +0.039 C 
ATOM      4  C   UNL     1      -5.009   0.093  24.873  0.00  0.00    +0.003 C 
ATOM      5  C   UNL     1      -5.245   0.798  25.230  0.00  0.00    +0.000 C 
ATOM      6  C   UNL     1      -4.836   1.496  25.074  0.00  0.00    +0.002 C 
ATOM      7  C   UNL     1      -5.481   1.502  25.587  0.00  0.00    +0.000 C 
ATOM      8  C   UNL     1      -5.072   2.202  25.431  0.00  0.00    +0.002 C 
ATOM      9  C   UNL     1      -4.662   2.900  25.276  0.00  0.00    +0.022 C 
ATOM     10  C   UNL     1      -4.015   2.894  24.763  0.00  0.00    +0.095 C 
ATOM     21  C   UNL     1      -3.779   2.189  24.406  0.00  0.00    +0.022 C 
ATOM     22  C   UNL     1      -3.133   2.183  23.893  0.00  0.00    +0.002 C 
ATOM     23  C   UNL     1      -4.189   1.490  24.561  0.00  0.00    +0.032 C 
ATOM     24  C   UNL     1      -3.953   0.785  24.204  0.00  0.00    +0.152 C 
ATOM     25  O   UNL     1      -3.307   0.779  23.691  0.00  0.00    -0.223 OA
ENDROOT
BRANCH  10  11
ATOM     11  N   UNL     1      -3.606   3.593  24.607  0.00  0.00    -0.207 NA
ATOM     12  C   UNL     1      -3.241   4.003  25.222  0.00  0.00    +0.246 C 
ATOM     13  O   UNL     1      -3.284   3.713  25.995  0.00  0.00    -0.273 OA
BRANCH  12  14
ATOM     14  C   UNL     1      -2.831   4.702  25.067  0.00  0.00    +0.113 C 
BRANCH  14  15
ATOM     15  C   UNL     1      -2.007   4.707  25.066  0.00  0.00    -0.013 A 
ATOM     16  C   UNL     1      -1.597   5.250  24.598  0.00  0.00    -0.004 A 
ATOM     17  C   UNL     1      -0.772   5.254  24.598  0.00  0.00    -0.000 A 
ATOM     18  C   UNL     1      -0.356   4.716  25.065  0.00  0.00    -0.000 A 
ATOM     19  C   UNL     1      -0.766   4.173  25.533  0.00  0.00    -0.000 A 
ATOM     20  C   UNL     1      -1.590   4.169  25.533  0.00  0.00    -0.004 A 
ENDBRANCH  14  15
ENDBRANCH  12  14
ENDBRANCH  10  11
BRANCH   3   2
ATOM      1  C   UNL     1      -4.241  -0.732  23.193  0.00  0.00    +0.010 C 
ATOM      2  C   UNL     1      -4.127  -0.619  24.003  0.00  0.00    +0.081 C 
BRANCH   2  26
ATOM     26  C   UNL     1      -3.776  -1.213  24.456  0.00  0.00    +0.241 C 
ATOM     27  O   UNL     1      -4.247  -1.751  24.868  0.00  0.00    -0.273 OA
ATOM     28  N   UNL     1      -2.953  -1.269  24.497  0.00  0.00    -0.201 NA
BRANCH  28  29
ATOM     29  C   UNL     1      -2.602  -1.861  24.949  0.00  0.00    +0.143 C 
BRANCH  29  30
ATOM     30  C   UNL     1      -1.783  -1.877  25.047  0.00  0.00    +0.019 A 
ATOM     31  C   UNL     1      -1.417  -1.338  25.553  0.00  0.00    +0.001 A 
ATOM     32  C   UNL     1      -0.599  -1.354  25.650  0.00  0.00    +0.020 A 
ATOM     33  C   UNL     1      -0.145  -1.909  25.241  0.00  0.00    +0.099 A 
ATOM     34  N   UNL     1      -0.511  -2.448  24.735  0.00  0.00    -0.243 NA
ATOM     35  C   UNL     1      -1.331  -2.432  24.637  0.00  0.00    +0.096 A 
ENDBRANCH  29  30
ENDBRANCH  28  29
ENDBRANCH   2  26
ENDBRANCH   3   2
TORSDOF 7
ENDMDL
