MODEL 1
REMARK VINA RESULT:      -6.1      0.000      0.000
REMARK  Name = 
REMARK  7 active torsions:
REMARK  status: ('A' for Active; 'I' for Inactive)
REMARK    1  A    between atoms: O_2  and  C_3
REMARK    2  A    between atoms: C_3  and  C_4
REMARK    3  A    between atoms: N_6  and  C_7
REMARK    4  A    between atoms: C_7  and  C_8
REMARK    5  A    between atoms: C_11  and  N_12
REMARK    6  A    between atoms: N_12  and  C_13
REMARK    7  A    between atoms: C_13  and  C_14
REMARK                            x       y       z     vdW  Elec       q    Type
REMARK                         _______ _______ _______ _____ _____    ______ ____
ROOT
ATOM      8  C   UNL     1      -1.593   0.905  24.039  0.00  0.00    +0.169 C 
ATOM      9  O   UNL     1      -1.727   1.551  23.543  0.00  0.00    -0.350 OA
ATOM     10  C   UNL     1      -2.439   1.901  23.769  0.00  0.00    +0.162 C 
ATOM     11  C   UNL     1      -2.745   1.472  24.404  0.00  0.00    +0.136 C 
ATOM     19  C   UNL     1      -2.222   0.857  24.571  0.00  0.00    +0.199 C 
ATOM     20  O   UNL     1      -2.311   0.292  25.165  0.00  0.00    -0.219 OA
ENDROOT
BRANCH   8   7
ATOM      7  C   UNL     1      -0.944   0.398  24.008  0.00  0.00    +0.147 C 
BRANCH   7   6
ATOM      4  C   UNL     1       0.362   0.101  23.508  0.00  0.00    +0.272 C 
ATOM      5  O   UNL     1       0.270  -0.686  23.736  0.00  0.00    -0.271 OA
ATOM      6  N   UNL     1      -0.245   0.643  23.644  0.00  0.00    -0.201 NA
BRANCH   4   3
ATOM      3  C   UNL     1       1.061   0.346  23.144  0.00  0.00    +0.229 C 
BRANCH   3   2
ATOM      1  C   UNL     1       2.258   0.035  22.431  0.00  0.00    +0.175 C 
ATOM      2  O   UNL     1       1.545  -0.204  22.767  0.00  0.00    -0.342 OA
ENDBRANCH   3   2
ENDBRANCH   4   3
ENDBRANCH   7   6
ENDBRANCH   8   7
BRANCH  11  12
ATOM     12  N   UNL     1      -3.451   1.630  24.803  0.00  0.00    -0.206 NA
BRANCH  12  13
ATOM     13  C   UNL     1      -3.958   2.218  24.524  0.00  0.00    +0.154 C 
BRANCH  13  14
ATOM     14  C   UNL     1      -4.661   2.380  24.925  0.00  0.00    +0.157 A 
ATOM     15  N   UNL     1      -4.792   3.012  25.438  0.00  0.00    -0.226 NA
ATOM     16  C   UNL     1      -5.569   2.960  25.713  0.00  0.00    +0.121 A 
ATOM     17  C   UNL     1      -5.917   2.297  25.369  0.00  0.00    +0.121 A 
ATOM     18  N   UNL     1      -5.356   1.937  24.881  0.00  0.00    -0.226 NA
ENDBRANCH  13  14
ENDBRANCH  12  13
ENDBRANCH  11  12
TORSDOF 7
ENDMDL
MODEL 2
REMARK VINA RESULT:      -6.1      2.693      4.008
REMARK  Name = 
REMARK  7 active torsions:
REMARK  status: ('A' for Active; 'I' for Inactive)
REMARK    1  A    between atoms: O_2  and  C_3
REMARK    2  A    between atoms: C_3  and  C_4
REMARK    3  A    between atoms: N_6  and  C_7
REMARK    4  A    between atoms: C_7  and  C_8
REMARK    5  A    between atoms: C_11  and  N_12
REMARK    6  A    between atoms: N_12  and  C_13
REMARK    7  A    between atoms: C_13  and  C_14
REMARK                            x       y       z     vdW  Elec       q    Type
REMARK                         _______ _______ _______ _____ _____    ______ ____
ROOT
ATOM      8  C   UNL     1      -2.186   1.546  24.971  0.00  0.00    +0.169 C 
ATOM      9  O   UNL     1      -3.002   1.671  24.956  0.00  0.00    -0.350 OA
ATOM     10  C   UNL     1      -3.366   0.950  24.787  0.00  0.00    +0.162 C 
ATOM     11  C   UNL     1      -2.777   0.380  24.697  0.00  0.00    +0.136 C 
ATOM     19  C   UNL     1      -2.048   0.749  24.811  0.00  0.00    +0.199 C 
ATOM     20  O   UNL     1      -1.308   0.385  24.772  0.00  0.00    -0.219 OA
ENDROOT
BRANCH   8   7
ATOM      7  C   UNL     1      -1.612   2.118  25.119  0.00  0.00    +0.147 C 
BRANCH   7   6
ATOM      4  C   UNL     1      -1.251   3.487  25.317  0.00  0.00    +0.272 C 
ATOM      5  O   UNL     1      -0.477   3.259  25.485  0.00  0.00    -0.271 OA
ATOM      6  N   UNL     1      -1.819   2.917  25.135  0.00  0.00    -0.201 NA
BRANCH   4   3
ATOM      3  C   UNL     1      -1.458   4.286  25.333  0.00  0.00    +0.229 C 
BRANCH   3   2
ATOM      1  C   UNL     1      -1.203   5.629  24.921  0.00  0.00    +0.175 C 
ATOM      2  O   UNL     1      -0.950   4.850  25.011  0.00  0.00    -0.342 OA
ENDBRANCH   3   2
ENDBRANCH   4   3
ENDBRANCH   7   6
ENDBRANCH   8   7
BRANCH  11  12
ATOM     12  N   UNL     1      -2.894  -0.418  24.524  0.00  0.00    -0.206 NA
BRANCH  12  13
ATOM     13  C   UNL     1      -3.627  -0.768  24.674  0.00  0.00    +0.154 C 
BRANCH  13  14
ATOM     14  C   UNL     1      -3.758  -1.556  24.465  0.00  0.00    +0.157 A 
ATOM     15  N   UNL     1      -4.191  -1.819  23.815  0.00  0.00    -0.226 NA
ATOM     16  C   UNL     1      -4.179  -2.645  23.818  0.00  0.00    +0.121 A 
ATOM     17  C   UNL     1      -3.738  -2.890  24.471  0.00  0.00    +0.121 A 
ATOM     18  N   UNL     1      -3.477  -2.217  24.871  0.00  0.00    -0.226 NA
ENDBRANCH  13  14
ENDBRANCH  12  13
ENDBRANCH  11  12
TORSDOF 7
ENDMDL
MODEL 3
REMARK VINA RESULT:      -6.0      2.658      3.901
REMARK  Name = 
REMARK  7 active torsions:
REMARK  status: ('A' for Active; 'I' for Inactive)
REMARK    1  A    between atoms: O_2  and  C_3
REMARK    2  A    between atoms: C_3  and  C_4
REMARK    3  A    between atoms: N_6  and  C_7
REMARK    4  A    between atoms: C_7  and  C_8
REMARK    5  A    between atoms: C_11  and  N_12
REMARK    6  A    between atoms: N_12  and  C_13
REMARK    7  A    between atoms: C_13  and  C_14
REMARK                            x       y       z     vdW  Elec       q    Type
REMARK                         _______ _______ _______ _____ _____    ______ ____
ROOT
ATOM      8  C   UNL     1      -2.932   0.785  24.615  0.00  0.00    +0.169 C 
ATOM      9  O   UNL     1      -2.202   0.683  24.986  0.00  0.00    -0.350 OA
ATOM     10  C   UNL     1      -1.860   1.427  25.085  0.00  0.00    +0.162 C 
ATOM     11  C   UNL     1      -2.379   1.990  24.776  0.00  0.00    +0.136 C 
ATOM     19  C   UNL     1      -3.041   1.593  24.486  0.00  0.00    +0.199 C 
ATOM     20  O   UNL     1      -3.698   1.941  24.129  0.00  0.00    -0.219 OA
ENDROOT
BRANCH   8   7
ATOM      7  C   UNL     1      -3.459   0.186  24.411  0.00  0.00    +0.147 C 
BRANCH   7   6
ATOM      4  C   UNL     1      -3.855  -1.186  24.467  0.00  0.00    +0.272 C 
ATOM      5  O   UNL     1      -4.482  -1.027  23.955  0.00  0.00    -0.271 OA
ATOM      6  N   UNL     1      -3.345  -0.581  24.695  0.00  0.00    -0.201 NA
BRANCH   4   3
ATOM      3  C   UNL     1      -3.741  -1.952  24.752  0.00  0.00    +0.229 C 
BRANCH   3   2
ATOM      1  C   UNL     1      -3.440  -3.323  24.488  0.00  0.00    +0.175 C 
ATOM      2  O   UNL     1      -3.699  -2.586  24.226  0.00  0.00    -0.342 OA
ENDBRANCH   3   2
ENDBRANCH   4   3
ENDBRANCH   7   6
ENDBRANCH   8   7
BRANCH  11  12
ATOM     12  N   UNL     1      -2.258   2.806  24.760  0.00  0.00    -0.206 NA
BRANCH  12  13
ATOM     13  C   UNL     1      -1.654   3.141  25.212  0.00  0.00    +0.154 C 
BRANCH  13  14
ATOM     14  C   UNL     1      -1.488   3.947  25.146  0.00  0.00    +0.157 A 
ATOM     15  N   UNL     1      -0.804   4.277  24.825  0.00  0.00    -0.226 NA
ATOM     16  C   UNL     1      -0.871   5.098  24.870  0.00  0.00    +0.121 A 
ATOM     17  C   UNL     1      -1.597   5.275  25.220  0.00  0.00    +0.121 A 
ATOM     18  N   UNL     1      -1.979   4.564  25.391  0.00  0.00    -0.226 NA
ENDBRANCH  13  14
ENDBRANCH  12  13
ENDBRANCH  11  12
TORSDOF 7
ENDMDL
MODEL 4
REMARK VINA RESULT:      -5.2      1.445      5.523
REMARK  Name = 
REMARK  7 active torsions:
REMARK  status: ('A' for Active; 'I' for Inactive)
REMARK    1  A    between atoms: O_2  and  C_3
REMARK    2  A    between atoms: C_3  and  C_4
REMARK    3  A    between atoms: N_6  and  C_7
REMARK    4  A    between atoms: C_7  and  C_8
REMARK    5  A    between atoms: C_11  and  N_12
REMARK    6  A    between atoms: N_12  and  C_13
REMARK    7  A    between atoms: C_13  and  C_14
REMARK                            x       y       z     vdW  Elec       q    Type
REMARK                         _______ _______ _______ _____ _____    ______ ____
ROOT
ATOM      8  C   UNL     1      -2.632   1.599  24.226  0.00  0.00    +0.169 C 
ATOM      9  O   UNL     1      -2.354   1.165  24.871  0.00  0.00    -0.350 OA
ATOM     10  C   UNL     1      -1.609   0.868  24.674  0.00  0.00    +0.162 C 
ATOM     11  C   UNL     1      -1.427   1.118  23.910  0.00  0.00    +0.136 C 
ATOM     19  C   UNL     1      -2.059   1.570  23.633  0.00  0.00    +0.199 C 
ATOM     20  O   UNL     1      -2.111   1.930  22.892  0.00  0.00    -0.219 OA
ENDROOT
BRANCH   8   7
ATOM      7  C   UNL     1      -3.355   1.992  24.183  0.00  0.00    +0.147 C 
BRANCH   7   6
ATOM      4  C   UNL     1      -4.685   2.181  24.672  0.00  0.00    +0.272 C 
ATOM      5  O   UNL     1      -4.735   2.894  24.261  0.00  0.00    -0.271 OA
ATOM      6  N   UNL     1      -3.996   1.730  24.633  0.00  0.00    -0.201 NA
BRANCH   4   3
ATOM      3  C   UNL     1      -5.325   1.918  25.122  0.00  0.00    +0.229 C 
BRANCH   3   2
ATOM      1  C   UNL     1      -6.228   2.121  26.209  0.00  0.00    +0.175 C 
ATOM      2  O   UNL     1      -5.667   2.416  25.683  0.00  0.00    -0.342 OA
ENDBRANCH   3   2
ENDBRANCH   4   3
ENDBRANCH   7   6
ENDBRANCH   8   7
BRANCH  11  12
ATOM     12  N   UNL     1      -0.735   0.947  23.494  0.00  0.00    -0.206 NA
BRANCH  12  13
ATOM     13  C   UNL     1      -0.144   0.493  23.849  0.00  0.00    +0.154 C 
BRANCH  13  14
ATOM     14  C   UNL     1       0.541   0.306  23.427  0.00  0.00    +0.157 A 
ATOM     15  N   UNL     1       0.641  -0.342  22.927  0.00  0.00    -0.226 NA
ATOM     16  C   UNL     1       1.408  -0.313  22.623  0.00  0.00    +0.121 A 
ATOM     17  C   UNL     1       1.781   0.352  22.937  0.00  0.00    +0.121 A 
ATOM     18  N   UNL     1       1.245   0.736  23.434  0.00  0.00    -0.226 NA
ENDBRANCH  13  14
ENDBRANCH  12  13
ENDBRANCH  11  12
TORSDOF 7
ENDMDL
