MODEL 1
REMARK VINA RESULT:     -11.2      0.000      0.000
REMARK  Name = 
REMARK  6 active torsions:
REMARK  status: ('A' for Active; 'I' for Inactive)
REMARK    1  A    between atoms: C_4  and  C_13
REMARK    2  A    between atoms: C_6  and  C_8
REMARK    3  A    between atoms: C_20  and  C_21
REMARK    4  A    between atoms: C_21  and  N_22
REMARK    5  A    between atoms: C_23  and  C_25
REMARK    6  A    between atoms: C_28  and  C_31
REMARK                            x       y       z     vdW  Elec       q    Type
REMARK                         _______ _______ _______ _____ _____    ______ ____
ROOT
ATOM     13  C   UNL     1      -1.151   0.881  23.938  0.00  0.00    +0.056 C 
ATOM     14  C   UNL     1      -0.982   1.113  23.215  0.00  0.00    +0.078 C 
ATOM     15  N   UNL     1      -0.529   0.605  23.682  0.00  0.00    -0.272 NA
ATOM     16  C   UNL     1      -1.031   0.495  24.596  0.00  0.00    +0.072 C 
ATOM     17  C   UNL     1      -1.070   0.238  25.195  0.00  0.00    +0.018 C 
ATOM     18  C   UNL     1      -0.702   0.382  24.390  0.00  0.00    +0.010 C 
ATOM     19  C   UNL     1       0.058  -0.029  24.235  0.00  0.00    +0.018 C 
ATOM     20  C   UNL     1       0.261   0.175  23.528  0.00  0.00    +0.079 C 
ENDROOT
BRANCH  13   4
ATOM      1  C   UNL     1      -3.868   0.472  24.726  0.00  0.00    +0.074 C 
ATOM      2  C   UNL     1      -3.208   0.963  24.667  0.00  0.00    +0.139 A 
ATOM      3  N   UNL     1      -2.510   0.677  24.332  0.00  0.00    -0.235 NA
ATOM      4  C   UNL     1      -1.849   1.168  24.273  0.00  0.00    +0.063 A 
ATOM      5  C   UNL     1      -1.886   1.943  24.549  0.00  0.00    +0.034 A 
ATOM      6  C   UNL     1      -2.583   2.229  24.884  0.00  0.00    +0.090 A 
ATOM      7  N   UNL     1      -3.244   1.740  24.943  0.00  0.00    -0.230 NA
BRANCH   6   8
ATOM      8  C   UNL     1      -2.621   3.006  25.160  0.00  0.00    +0.047 A 
ATOM      9  C   UNL     1      -2.259   3.296  25.842  0.00  0.00    +0.009 A 
ATOM     10  C   UNL     1      -2.440   4.098  25.907  0.00  0.00    +0.008 A 
ATOM     11  C   UNL     1      -2.915   4.304  25.265  0.00  0.00    +0.035 A 
ATOM     12  S   UNL     1      -3.027   3.629  24.803  0.00  0.00    -0.085 S 
ENDBRANCH   6   8
ENDBRANCH  13   4
BRANCH  20  21
ATOM     21  C   UNL     1       0.848   0.069  22.959  0.00  0.00    +0.131 C 
BRANCH  21  22
ATOM     22  N   UNL     1       1.644   0.131  23.170  0.00  0.00    -0.200 NA
ATOM     23  C   UNL     1       2.230   0.052  22.595  0.00  0.00    +0.265 C 
ATOM     24  O   UNL     1       2.021  -0.088  21.809  0.00  0.00    -0.268 OA
BRANCH  23  25
ATOM     25  C   UNL     1       3.025   0.114  22.806  0.00  0.00    +0.055 A 
ATOM     26  C   UNL     1       3.436   0.815  22.665  0.00  0.00    +0.005 A 
ATOM     27  C   UNL     1       4.231   0.877  22.876  0.00  0.00    +0.004 A 
ATOM     28  C   UNL     1       4.615   0.237  23.228  0.00  0.00    +0.071 A 
ATOM     29  C   UNL     1       4.204  -0.464  23.369  0.00  0.00    +0.004 A 
ATOM     30  C   UNL     1       3.410  -0.526  23.158  0.00  0.00    +0.005 A 
BRANCH  28  31
ATOM     31  C   UNL     1       5.410   0.298  23.439  0.00  0.00    +0.419 C 
ATOM     32  F   UNL     1       6.206   0.358  23.650  0.00  0.00    -0.166 F 
ATOM     33  F   UNL     1       5.194   0.621  24.166  0.00  0.00    -0.166 F 
ATOM     34  F   UNL     1       5.627  -0.025  22.712  0.00  0.00    -0.166 F 
ENDBRANCH  28  31
ENDBRANCH  23  25
ENDBRANCH  21  22
ENDBRANCH  20  21
TORSDOF 6
ENDMDL
MODEL 2
REMARK VINA RESULT:     -10.8      1.884      2.691
REMARK  Name = 
REMARK  6 active torsions:
REMARK  status: ('A' for Active; 'I' for Inactive)
REMARK    1  A    between atoms: C_4  and  C_13
REMARK    2  A    between atoms: C_6  and  C_8
REMARK    3  A    between atoms: C_20  and  C_21
REMARK    4  A    between atoms: C_21  and  N_22
REMARK    5  A    between atoms: C_23  and  C_25
REMARK    6  A    between atoms: C_28  and  C_31
REMARK                            x       y       z     vdW  Elec       q    Type
REMARK                         _______ _______ _______ _____ _____    ______ ____
ROOT
ATOM     13  C   UNL     1      -0.554  -0.494  24.167  0.00  0.00    +0.056 C 
ATOM     14  C   UNL     1      -0.127  -1.064  23.852  0.00  0.00    +0.078 C 
ATOM     15  N   UNL     1      -0.023  -0.254  23.732  0.00  0.00    -0.272 NA
ATOM     16  C   UNL     1      -0.757   0.239  24.296  0.00  0.00    +0.072 C 
ATOM     17  C   UNL     1      -1.042   0.791  24.499  0.00  0.00    +0.018 C 
ATOM     18  C   UNL     1      -0.446   0.299  24.045  0.00  0.00    +0.010 C 
ATOM     19  C   UNL     1       0.134   0.746  23.560  0.00  0.00    +0.018 C 
ATOM     20  C   UNL     1       0.576   0.217  23.231  0.00  0.00    +0.079 C 
ENDROOT
BRANCH  13   4
ATOM      1  C   UNL     1      -1.609  -0.792  26.807  0.00  0.00    +0.074 C 
ATOM      2  C   UNL     1      -1.697  -0.866  25.990  0.00  0.00    +0.139 A 
ATOM      3  N   UNL     1      -1.082  -0.643  25.488  0.00  0.00    -0.235 NA
ATOM      4  C   UNL     1      -1.169  -0.717  24.670  0.00  0.00    +0.063 A 
ATOM      5  C   UNL     1      -1.871  -1.014  24.356  0.00  0.00    +0.034 A 
ATOM      6  C   UNL     1      -2.486  -1.237  24.859  0.00  0.00    +0.090 A 
ATOM      7  N   UNL     1      -2.399  -1.163  25.676  0.00  0.00    -0.230 NA
BRANCH   6   8
ATOM      8  C   UNL     1      -3.189  -1.535  24.545  0.00  0.00    +0.047 A 
ATOM      9  C   UNL     1      -3.824  -1.087  24.269  0.00  0.00    +0.009 A 
ATOM     10  C   UNL     1      -4.408  -1.606  24.005  0.00  0.00    +0.008 A 
ATOM     11  C   UNL     1      -4.134  -2.376  24.118  0.00  0.00    +0.035 A 
ATOM     12  S   UNL     1      -3.380  -2.332  24.452  0.00  0.00    -0.085 S 
ENDBRANCH   6   8
ENDBRANCH  13   4
BRANCH  20  21
ATOM     21  C   UNL     1       1.218   0.127  22.721  0.00  0.00    +0.131 C 
BRANCH  21  22
ATOM     22  N   UNL     1       1.987   0.149  23.018  0.00  0.00    -0.200 NA
ATOM     23  C   UNL     1       2.629   0.102  22.502  0.00  0.00    +0.265 C 
ATOM     24  O   UNL     1       2.502   0.033  21.690  0.00  0.00    -0.268 OA
BRANCH  23  25
ATOM     25  C   UNL     1       3.399   0.125  22.798  0.00  0.00    +0.055 A 
ATOM     26  C   UNL     1       3.859   0.803  22.700  0.00  0.00    +0.005 A 
ATOM     27  C   UNL     1       4.629   0.825  22.996  0.00  0.00    +0.004 A 
ATOM     28  C   UNL     1       4.938   0.171  23.392  0.00  0.00    +0.071 A 
ATOM     29  C   UNL     1       4.477  -0.507  23.490  0.00  0.00    +0.004 A 
ATOM     30  C   UNL     1       3.709  -0.530  23.194  0.00  0.00    +0.005 A 
BRANCH  28  31
ATOM     31  C   UNL     1       5.707   0.192  23.689  0.00  0.00    +0.419 C 
ATOM     32  F   UNL     1       6.476   0.214  23.986  0.00  0.00    -0.166 F 
ATOM     33  F   UNL     1       5.983  -0.175  23.004  0.00  0.00    -0.166 F 
ATOM     34  F   UNL     1       5.431   0.560  24.373  0.00  0.00    -0.166 F 
ENDBRANCH  28  31
ENDBRANCH  23  25
ENDBRANCH  21  22
ENDBRANCH  20  21
TORSDOF 6
ENDMDL
MODEL 3
REMARK VINA RESULT:     -10.7      4.287      6.043
REMARK  Name = 
REMARK  6 active torsions:
REMARK  status: ('A' for Active; 'I' for Inactive)
REMARK    1  A    between atoms: C_4  and  C_13
REMARK    2  A    between atoms: C_6  and  C_8
REMARK    3  A    between atoms: C_20  and  C_21
REMARK    4  A    between atoms: C_21  and  N_22
REMARK    5  A    between atoms: C_23  and  C_25
REMARK    6  A    between atoms: C_28  and  C_31
REMARK                            x       y       z     vdW  Elec       q    Type
REMARK                         _______ _______ _______ _____ _____    ______ ____
ROOT
ATOM     13  C   UNL     1      -3.844   0.051  24.522  0.00  0.00    +0.056 C 
ATOM     14  C   UNL     1      -3.554   0.593  24.045  0.00  0.00    +0.078 C 
ATOM     15  N   UNL     1      -4.071   0.724  24.676  0.00  0.00    -0.272 NA
ATOM     16  C   UNL     1      -4.268  -0.208  25.113  0.00  0.00    +0.072 C 
ATOM     17  C   UNL     1      -4.567  -0.571  25.567  0.00  0.00    +0.018 C 
ATOM     18  C   UNL     1      -4.350   0.187  25.139  0.00  0.00    +0.010 C 
ATOM     19  C   UNL     1      -4.711   0.923  25.452  0.00  0.00    +0.018 C 
ATOM     20  C   UNL     1      -4.450   1.485  25.006  0.00  0.00    +0.079 C 
ENDROOT
BRANCH  13   4
ATOM      1  C   UNL     1      -4.456  -2.583  23.593  0.00  0.00    +0.074 C 
ATOM      2  C   UNL     1      -3.922  -2.048  23.923  0.00  0.00    +0.139 A 
ATOM      3  N   UNL     1      -4.150  -1.267  24.057  0.00  0.00    -0.235 NA
ATOM      4  C   UNL     1      -3.615  -0.732  24.388  0.00  0.00    +0.063 A 
ATOM      5  C   UNL     1      -2.853  -0.978  24.584  0.00  0.00    +0.034 A 
ATOM      6  C   UNL     1      -2.625  -1.759  24.450  0.00  0.00    +0.090 A 
ATOM      7  N   UNL     1      -3.159  -2.294  24.120  0.00  0.00    -0.230 NA
BRANCH   6   8
ATOM      8  C   UNL     1      -1.863  -2.006  24.646  0.00  0.00    +0.047 A 
ATOM      9  C   UNL     1      -1.667  -2.572  25.214  0.00  0.00    +0.009 A 
ATOM     10  C   UNL     1      -0.847  -2.647  25.228  0.00  0.00    +0.008 A 
ATOM     11  C   UNL     1      -0.533  -2.128  24.669  0.00  0.00    +0.035 A 
ATOM     12  S   UNL     1      -1.161  -1.732  24.309  0.00  0.00    -0.085 S 
ENDBRANCH   6   8
ENDBRANCH  13   4
BRANCH  20  21
ATOM     21  C   UNL     1      -4.488   2.301  24.891  0.00  0.00    +0.131 C 
BRANCH  21  22
ATOM     22  N   UNL     1      -3.795   2.748  24.871  0.00  0.00    -0.200 NA
ATOM     23  C   UNL     1      -3.808   3.538  25.109  0.00  0.00    +0.265 C 
ATOM     24  O   UNL     1      -4.513   3.880  25.367  0.00  0.00    -0.268 OA
BRANCH  23  25
ATOM     25  C   UNL     1      -3.115   3.985  25.090  0.00  0.00    +0.055 A 
ATOM     26  C   UNL     1      -2.846   4.298  24.375  0.00  0.00    +0.005 A 
ATOM     27  C   UNL     1      -2.153   4.745  24.355  0.00  0.00    +0.004 A 
ATOM     28  C   UNL     1      -1.729   4.880  25.050  0.00  0.00    +0.071 A 
ATOM     29  C   UNL     1      -1.998   4.567  25.765  0.00  0.00    +0.004 A 
ATOM     30  C   UNL     1      -2.691   4.121  25.784  0.00  0.00    +0.005 A 
BRANCH  28  31
ATOM     31  C   UNL     1      -1.036   5.327  25.031  0.00  0.00    +0.419 C 
ATOM     32  F   UNL     1      -0.343   5.774  25.012  0.00  0.00    -0.166 F 
ATOM     33  F   UNL     1      -1.472   6.010  25.182  0.00  0.00    -0.166 F 
ATOM     34  F   UNL     1      -0.600   4.644  24.879  0.00  0.00    -0.166 F 
ENDBRANCH  28  31
ENDBRANCH  23  25
ENDBRANCH  21  22
ENDBRANCH  20  21
TORSDOF 6
ENDMDL
MODEL 4
REMARK VINA RESULT:     -10.5      4.073      5.128
REMARK  Name = 
REMARK  6 active torsions:
REMARK  status: ('A' for Active; 'I' for Inactive)
REMARK    1  A    between atoms: C_4  and  C_13
REMARK    2  A    between atoms: C_6  and  C_8
REMARK    3  A    between atoms: C_20  and  C_21
REMARK    4  A    between atoms: C_21  and  N_22
REMARK    5  A    between atoms: C_23  and  C_25
REMARK    6  A    between atoms: C_28  and  C_31
REMARK                            x       y       z     vdW  Elec       q    Type
REMARK                         _______ _______ _______ _____ _____    ______ ____
ROOT
ATOM     13  C   UNL     1      -1.359   2.260  25.114  0.00  0.00    +0.056 C 
ATOM     14  C   UNL     1      -1.619   1.780  24.558  0.00  0.00    +0.078 C 
ATOM     15  N   UNL     1      -1.060   1.598  25.138  0.00  0.00    -0.272 NA
ATOM     16  C   UNL     1      -0.933   2.456  25.727  0.00  0.00    +0.072 C 
ATOM     17  C   UNL     1      -0.648   2.764  26.227  0.00  0.00    +0.018 C 
ATOM     18  C   UNL     1      -0.811   2.073  25.680  0.00  0.00    +0.010 C 
ATOM     19  C   UNL     1      -0.364   1.336  25.845  0.00  0.00    +0.018 C 
ATOM     20  C   UNL     1      -0.592   0.835  25.316  0.00  0.00    +0.079 C 
ENDROOT
BRANCH  13   4
ATOM      1  C   UNL     1      -0.992   5.085  24.876  0.00  0.00    +0.074 C 
ATOM      2  C   UNL     1      -1.486   4.437  25.009  0.00  0.00    +0.139 A 
ATOM      3  N   UNL     1      -1.176   3.673  24.995  0.00  0.00    -0.235 NA
ATOM      4  C   UNL     1      -1.670   3.025  25.128  0.00  0.00    +0.063 A 
ATOM      5  C   UNL     1      -2.473   3.141  25.275  0.00  0.00    +0.034 A 
ATOM      6  C   UNL     1      -2.782   3.905  25.288  0.00  0.00    +0.090 A 
ATOM      7  N   UNL     1      -2.290   4.553  25.156  0.00  0.00    -0.230 NA
BRANCH   6   8
ATOM      8  C   UNL     1      -3.586   4.023  25.435  0.00  0.00    +0.047 A 
ATOM      9  C   UNL     1      -3.921   4.232  26.160  0.00  0.00    +0.009 A 
ATOM     10  C   UNL     1      -4.737   4.290  26.057  0.00  0.00    +0.008 A 
ATOM     11  C   UNL     1      -4.907   4.118  25.268  0.00  0.00    +0.035 A 
ATOM     12  S   UNL     1      -4.196   3.952  24.884  0.00  0.00    -0.085 S 
ENDBRANCH   6   8
ENDBRANCH  13   4
BRANCH  20  21
ATOM     21  C   UNL     1      -0.480   0.060  25.058  0.00  0.00    +0.131 C 
BRANCH  21  22
ATOM     22  N   UNL     1      -1.132  -0.420  24.897  0.00  0.00    -0.200 NA
ATOM     23  C   UNL     1      -1.079  -1.236  25.006  0.00  0.00    +0.265 C 
ATOM     24  O   UNL     1      -0.376  -1.572  25.276  0.00  0.00    -0.268 OA
BRANCH  23  25
ATOM     25  C   UNL     1      -1.731  -1.716  24.845  0.00  0.00    +0.055 A 
ATOM     26  C   UNL     1      -1.659  -2.347  24.319  0.00  0.00    +0.005 A 
ATOM     27  C   UNL     1      -2.310  -2.827  24.158  0.00  0.00    +0.004 A 
ATOM     28  C   UNL     1      -3.034  -2.676  24.524  0.00  0.00    +0.071 A 
ATOM     29  C   UNL     1      -3.106  -2.044  25.050  0.00  0.00    +0.004 A 
ATOM     30  C   UNL     1      -2.456  -1.565  25.211  0.00  0.00    +0.005 A 
BRANCH  28  31
ATOM     31  C   UNL     1      -3.686  -3.155  24.364  0.00  0.00    +0.419 C 
ATOM     32  F   UNL     1      -4.338  -3.635  24.204  0.00  0.00    -0.166 F 
ATOM     33  F   UNL     1      -3.844  -2.715  23.685  0.00  0.00    -0.166 F 
ATOM     34  F   UNL     1      -3.528  -3.596  25.043  0.00  0.00    -0.166 F 
ENDBRANCH  28  31
ENDBRANCH  23  25
ENDBRANCH  21  22
ENDBRANCH  20  21
TORSDOF 6
ENDMDL
MODEL 5
REMARK VINA RESULT:      -9.7      4.513      6.716
REMARK  Name = 
REMARK  6 active torsions:
REMARK  status: ('A' for Active; 'I' for Inactive)
REMARK    1  A    between atoms: C_4  and  C_13
REMARK    2  A    between atoms: C_6  and  C_8
REMARK    3  A    between atoms: C_20  and  C_21
REMARK    4  A    between atoms: C_21  and  N_22
REMARK    5  A    between atoms: C_23  and  C_25
REMARK    6  A    between atoms: C_28  and  C_31
REMARK                            x       y       z     vdW  Elec       q    Type
REMARK                         _______ _______ _______ _____ _____    ______ ____
ROOT
ATOM     13  C   UNL     1      -1.230   0.148  24.883  0.00  0.00    +0.056 C 
ATOM     14  C   UNL     1      -1.713   0.523  25.364  0.00  0.00    +0.078 C 
ATOM     15  N   UNL     1      -1.216   0.871  24.805  0.00  0.00    -0.272 NA
ATOM     16  C   UNL     1      -0.699   0.095  24.325  0.00  0.00    +0.072 C 
ATOM     17  C   UNL     1      -0.265  -0.109  23.881  0.00  0.00    +0.018 C 
ATOM     18  C   UNL     1      -0.744   0.497  24.337  0.00  0.00    +0.010 C 
ATOM     19  C   UNL     1      -0.609   1.337  24.120  0.00  0.00    +0.018 C 
ATOM     20  C   UNL     1      -1.071   1.742  24.574  0.00  0.00    +0.079 C 
ENDROOT
BRANCH  13   4
ATOM      1  C   UNL     1       0.193  -2.262  25.466  0.00  0.00    +0.074 C 
ATOM      2  C   UNL     1      -0.498  -1.880  25.225  0.00  0.00    +0.139 A 
ATOM      3  N   UNL     1      -0.518  -1.057  25.174  0.00  0.00    -0.235 NA
ATOM      4  C   UNL     1      -1.210  -0.676  24.934  0.00  0.00    +0.063 A 
ATOM      5  C   UNL     1      -1.880  -1.117  24.745  0.00  0.00    +0.034 A 
ATOM      6  C   UNL     1      -1.859  -1.940  24.796  0.00  0.00    +0.090 A 
ATOM      7  N   UNL     1      -1.169  -2.322  25.036  0.00  0.00    -0.230 NA
BRANCH   6   8
ATOM      8  C   UNL     1      -2.530  -2.382  24.607  0.00  0.00    +0.047 A 
ATOM      9  C   UNL     1      -2.633  -2.840  23.928  0.00  0.00    +0.009 A 
ATOM     10  C   UNL     1      -3.381  -3.185  23.964  0.00  0.00    +0.008 A 
ATOM     11  C   UNL     1      -3.741  -2.941  24.665  0.00  0.00    +0.035 A 
ATOM     12  S   UNL     1      -3.215  -2.444  25.062  0.00  0.00    -0.085 S 
ENDBRANCH   6   8
ENDBRANCH  13   4
BRANCH  20  21
ATOM     21  C   UNL     1      -1.301   2.513  24.751  0.00  0.00    +0.131 C 
BRANCH  21  22
ATOM     22  N   UNL     1      -2.096   2.685  24.890  0.00  0.00    -0.200 NA
ATOM     23  C   UNL     1      -2.337   3.467  24.991  0.00  0.00    +0.265 C 
ATOM     24  O   UNL     1      -1.784   4.078  24.953  0.00  0.00    -0.268 OA
BRANCH  23  25
ATOM     25  C   UNL     1      -3.132   3.639  25.129  0.00  0.00    +0.055 A 
ATOM     26  C   UNL     1      -3.386   3.831  25.891  0.00  0.00    +0.005 A 
ATOM     27  C   UNL     1      -4.181   4.003  26.030  0.00  0.00    +0.004 A 
ATOM     28  C   UNL     1      -4.722   3.983  25.407  0.00  0.00    +0.071 A 
ATOM     29  C   UNL     1      -4.468   3.791  24.646  0.00  0.00    +0.004 A 
ATOM     30  C   UNL     1      -3.674   3.620  24.507  0.00  0.00    +0.005 A 
BRANCH  28  31
ATOM     31  C   UNL     1      -5.517   4.155  25.545  0.00  0.00    +0.419 C 
ATOM     32  F   UNL     1      -6.312   4.326  25.683  0.00  0.00    -0.166 F 
ATOM     33  F   UNL     1      -5.388   4.937  25.320  0.00  0.00    -0.166 F 
ATOM     34  F   UNL     1      -5.646   3.372  25.770  0.00  0.00    -0.166 F 
ENDBRANCH  28  31
ENDBRANCH  23  25
ENDBRANCH  21  22
ENDBRANCH  20  21
TORSDOF 6
ENDMDL
