MODEL 1
REMARK VINA RESULT:      -7.7      0.000      0.000
REMARK  Name = 
REMARK  4 active torsions:
REMARK  status: ('A' for Active; 'I' for Inactive)
REMARK    1  A    between atoms: N_2  and  C_4
REMARK    2  A    between atoms: C_7  and  C_8
REMARK    3  A    between atoms: C_8  and  N_9
REMARK    4  A    between atoms: C_10  and  C_12
REMARK                            x       y       z     vdW  Elec       q    Type
REMARK                         _______ _______ _______ _____ _____    ______ ____
ROOT
ATOM      4  C   UNL     1      -3.383  -1.459  24.981  0.00  0.00    +0.121 C 
ATOM      5  C   UNL     1      -3.216  -1.088  25.698  0.00  0.00    +0.161 C 
ATOM      6  O   UNL     1      -3.658  -0.392  25.734  0.00  0.00    -0.350 OA
ATOM      7  C   UNL     1      -4.098  -0.333  25.039  0.00  0.00    +0.168 C 
ATOM     17  C   UNL     1      -3.928  -0.993  24.574  0.00  0.00    +0.198 C 
ATOM     18  O   UNL     1      -4.247  -1.157  23.831  0.00  0.00    -0.219 OA
ENDROOT
BRANCH   4   2
ATOM      1  C   UNL     1      -2.279  -2.201  24.461  0.00  0.00    +0.090 C 
ATOM      2  N   UNL     1      -3.062  -2.172  24.717  0.00  0.00    -0.267 NA
ATOM      3  C   UNL     1      -3.525  -2.855  24.710  0.00  0.00    +0.090 C 
ENDBRANCH   4   2
BRANCH   7   8
ATOM      8  C   UNL     1      -4.617   0.278  24.843  0.00  0.00    +0.148 C 
BRANCH   8   9
ATOM      9  N   UNL     1      -4.385   1.063  24.942  0.00  0.00    -0.199 NA
ATOM     10  C   UNL     1      -4.937   1.670  24.849  0.00  0.00    +0.271 C 
ATOM     11  O   UNL     1      -5.718   1.491  24.658  0.00  0.00    -0.268 OA
BRANCH  10  12
ATOM     12  C   UNL     1      -4.704   2.455  24.948  0.00  0.00    +0.084 A 
ATOM     13  C   UNL     1      -4.173   2.867  24.469  0.00  0.00    +0.012 A 
ATOM     14  C   UNL     1      -4.102   3.633  24.767  0.00  0.00    +0.008 A 
ATOM     15  C   UNL     1      -4.589   3.695  25.430  0.00  0.00    +0.036 A 
ATOM     16  S   UNL     1      -4.961   2.967  25.541  0.00  0.00    -0.082 S 
ENDBRANCH  10  12
ENDBRANCH   8   9
ENDBRANCH   7   8
TORSDOF 4
ENDMDL
MODEL 2
REMARK VINA RESULT:      -7.6      1.820      4.500
REMARK  Name = 
REMARK  4 active torsions:
REMARK  status: ('A' for Active; 'I' for Inactive)
REMARK    1  A    between atoms: N_2  and  C_4
REMARK    2  A    between atoms: C_7  and  C_8
REMARK    3  A    between atoms: C_8  and  N_9
REMARK    4  A    between atoms: C_10  and  C_12
REMARK                            x       y       z     vdW  Elec       q    Type
REMARK                         _______ _______ _______ _____ _____    ______ ____
ROOT
ATOM      4  C   UNL     1      -4.228   2.546  24.828  0.00  0.00    +0.121 C 
ATOM      5  C   UNL     1      -4.882   2.057  24.711  0.00  0.00    +0.161 C 
ATOM      6  O   UNL     1      -4.611   1.280  24.645  0.00  0.00    -0.350 OA
ATOM      7  C   UNL     1      -3.789   1.289  24.721  0.00  0.00    +0.168 C 
ATOM     17  C   UNL     1      -3.553   2.072  24.833  0.00  0.00    +0.198 C 
ATOM     18  O   UNL     1      -2.777   2.334  24.934  0.00  0.00    -0.219 OA
ENDROOT
BRANCH   4   2
ATOM      1  C   UNL     1      -4.497   3.693  25.635  0.00  0.00    +0.090 C 
ATOM      2  N   UNL     1      -4.246   3.365  24.921  0.00  0.00    -0.267 NA
ATOM      3  C   UNL     1      -4.013   3.857  24.301  0.00  0.00    +0.090 C 
ENDBRANCH   4   2
BRANCH   7   8
ATOM      8  C   UNL     1      -3.291   0.632  24.689  0.00  0.00    +0.148 C 
BRANCH   8   9
ATOM      9  N   UNL     1      -3.609  -0.122  24.590  0.00  0.00    -0.199 NA
ATOM     10  C   UNL     1      -3.109  -0.773  24.505  0.00  0.00    +0.271 C 
ATOM     11  O   UNL     1      -2.291  -0.668  24.521  0.00  0.00    -0.268 OA
BRANCH  10  12
ATOM     12  C   UNL     1      -3.428  -1.527  24.406  0.00  0.00    +0.084 A 
ATOM     13  C   UNL     1      -4.017  -1.736  23.868  0.00  0.00    +0.012 A 
ATOM     14  C   UNL     1      -4.168  -2.543  23.955  0.00  0.00    +0.008 A 
ATOM     15  C   UNL     1      -3.672  -2.832  24.548  0.00  0.00    +0.036 A 
ATOM     16  S   UNL     1      -3.215  -2.204  24.826  0.00  0.00    -0.082 S 
ENDBRANCH  10  12
ENDBRANCH   8   9
ENDBRANCH   7   8
TORSDOF 4
ENDMDL
MODEL 3
REMARK VINA RESULT:      -7.4      2.787      4.335
REMARK  Name = 
REMARK  4 active torsions:
REMARK  status: ('A' for Active; 'I' for Inactive)
REMARK    1  A    between atoms: N_2  and  C_4
REMARK    2  A    between atoms: C_7  and  C_8
REMARK    3  A    between atoms: C_8  and  N_9
REMARK    4  A    between atoms: C_10  and  C_12
REMARK                            x       y       z     vdW  Elec       q    Type
REMARK                         _______ _______ _______ _____ _____    ______ ____
ROOT
ATOM      4  C   UNL     1      -0.982   1.809  24.814  0.00  0.00    +0.121 C 
ATOM      5  C   UNL     1      -0.698   1.107  24.488  0.00  0.00    +0.161 C 
ATOM      6  O   UNL     1      -1.311   0.555  24.496  0.00  0.00    -0.350 OA
ATOM      7  C   UNL     1      -1.975   0.916  24.828  0.00  0.00    +0.168 C 
ATOM     17  C   UNL     1      -1.771   1.691  25.024  0.00  0.00    +0.198 C 
ATOM     18  O   UNL     1      -2.270   2.250  25.370  0.00  0.00    -0.219 OA
ENDROOT
BRANCH   4   2
ATOM      1  C   UNL     1      -0.543   3.073  24.314  0.00  0.00    +0.090 C 
ATOM      2  N   UNL     1      -0.553   2.507  24.913  0.00  0.00    -0.267 NA
ATOM      3  C   UNL     1      -0.135   2.637  25.612  0.00  0.00    +0.090 C 
ENDBRANCH   4   2
BRANCH   7   8
ATOM      8  C   UNL     1      -2.712   0.564  24.943  0.00  0.00    +0.148 C 
BRANCH   8   9
ATOM      9  N   UNL     1      -2.849  -0.203  24.673  0.00  0.00    -0.199 NA
ATOM     10  C   UNL     1      -3.555  -0.587  24.863  0.00  0.00    +0.271 C 
ATOM     11  O   UNL     1      -4.121  -0.204  25.323  0.00  0.00    -0.268 OA
BRANCH  10  12
ATOM     12  C   UNL     1      -3.692  -1.354  24.592  0.00  0.00    +0.084 A 
ATOM     13  C   UNL     1      -4.139  -1.561  23.931  0.00  0.00    +0.012 A 
ATOM     14  C   UNL     1      -4.130  -2.384  23.864  0.00  0.00    +0.008 A 
ATOM     15  C   UNL     1      -3.676  -2.685  24.485  0.00  0.00    +0.036 A 
ATOM     16  S   UNL     1      -3.406  -2.048  24.934  0.00  0.00    -0.082 S 
ENDBRANCH  10  12
ENDBRANCH   8   9
ENDBRANCH   7   8
TORSDOF 4
ENDMDL
MODEL 4
REMARK VINA RESULT:      -7.3      1.370      1.625
REMARK  Name = 
REMARK  4 active torsions:
REMARK  status: ('A' for Active; 'I' for Inactive)
REMARK    1  A    between atoms: N_2  and  C_4
REMARK    2  A    between atoms: C_7  and  C_8
REMARK    3  A    between atoms: C_8  and  N_9
REMARK    4  A    between atoms: C_10  and  C_12
REMARK                            x       y       z     vdW  Elec       q    Type
REMARK                         _______ _______ _______ _____ _____    ______ ____
ROOT
ATOM      4  C   UNL     1      -2.103  -0.931  25.019  0.00  0.00    +0.121 C 
ATOM      5  C   UNL     1      -2.776  -1.000  25.490  0.00  0.00    +0.161 C 
ATOM      6  O   UNL     1      -3.255  -0.343  25.348  0.00  0.00    -0.350 OA
ATOM      7  C   UNL     1      -2.877   0.132  24.790  0.00  0.00    +0.168 C 
ATOM     17  C   UNL     1      -2.165  -0.232  24.587  0.00  0.00    +0.198 C 
ATOM     18  O   UNL     1      -1.612   0.054  24.045  0.00  0.00    -0.219 OA
ENDROOT
BRANCH   4   2
ATOM      1  C   UNL     1      -1.566  -2.181  24.583  0.00  0.00    +0.090 C 
ATOM      2  N   UNL     1      -1.477  -1.468  24.986  0.00  0.00    -0.267 NA
ATOM      3  C   UNL     1      -0.762  -1.290  25.358  0.00  0.00    +0.090 C 
ENDBRANCH   4   2
BRANCH   7   8
ATOM      8  C   UNL     1      -3.161   0.845  24.488  0.00  0.00    +0.148 C 
BRANCH   8   9
ATOM      9  N   UNL     1      -3.770   1.244  24.875  0.00  0.00    -0.199 NA
ATOM     10  C   UNL     1      -4.090   1.929  24.545  0.00  0.00    +0.271 C 
ATOM     11  O   UNL     1      -3.801   2.214  23.827  0.00  0.00    -0.268 OA
BRANCH  10  12
ATOM     12  C   UNL     1      -4.699   2.328  24.933  0.00  0.00    +0.084 A 
ATOM     13  C   UNL     1      -5.483   2.078  24.989  0.00  0.00    +0.012 A 
ATOM     14  C   UNL     1      -5.900   2.641  25.424  0.00  0.00    +0.008 A 
ATOM     15  C   UNL     1      -5.373   3.240  25.637  0.00  0.00    +0.036 A 
ATOM     16  S   UNL     1      -4.631   3.046  25.333  0.00  0.00    -0.082 S 
ENDBRANCH  10  12
ENDBRANCH   8   9
ENDBRANCH   7   8
TORSDOF 4
ENDMDL
