MODEL 1
REMARK VINA RESULT:      -9.1      0.000      0.000
REMARK  Name = 
REMARK  5 active torsions:
REMARK  status: ('A' for Active; 'I' for Inactive)
REMARK    1  A    between atoms: O_2  and  C_3
REMARK    2  A    between atoms: C_3  and  C_4
REMARK    3  A    between atoms: C_4  and  N_5
REMARK    4  A    between atoms: N_17  and  C_18
REMARK    5  A    between atoms: C_18  and  C_19
REMARK                            x       y       z     vdW  Elec       q    Type
REMARK                         _______ _______ _______ _____ _____    ______ ____
ROOT
ATOM      5  N   UNL     1      -1.101   3.261  24.899  0.00  0.00    -0.260 N 
ATOM      6  C   UNL     1      -1.900   3.095  25.025  0.00  0.00    +0.117 C 
ATOM      7  C   UNL     1      -2.011   2.285  24.922  0.00  0.00    +0.117 C 
ATOM      8  C   UNL     1      -2.682   1.808  24.977  0.00  0.00    +0.117 C 
ATOM      9  N   UNL     1      -2.625   0.997  24.842  0.00  0.00    -0.259 N 
ATOM     10  C   UNL     1      -1.896   0.661  24.652  0.00  0.00    +0.117 C 
ATOM     11  C   UNL     1      -1.224   1.137  24.597  0.00  0.00    +0.117 C 
ATOM     12  N   UNL     1      -1.282   1.949  24.732  0.00  0.00    -0.261 N 
ATOM     13  C   UNL     1      -0.719   2.552  24.718  0.00  0.00    +0.307 C 
ATOM     14  O   UNL     1       0.084   2.462  24.551  0.00  0.00    -0.252 OA
ATOM     15  C   UNL     1      -3.296   0.520  24.896  0.00  0.00    +0.324 C 
ATOM     16  O   UNL     1      -4.026   0.856  25.086  0.00  0.00    -0.251 OA
ATOM     17  N   UNL     1      -3.239  -0.291  24.761  0.00  0.00    -0.184 NA
ENDROOT
BRANCH   5   4
ATOM      4  C   UNL     1      -0.746   4.004  24.945  0.00  0.00    +0.127 C 
BRANCH   4   3
ATOM      3  C   UNL     1      -1.213   4.680  25.020  0.00  0.00    +0.164 C 
BRANCH   3   2
ATOM      1  C   UNL     1      -1.343   6.100  24.929  0.00  0.00    +0.174 C 
ATOM      2  O   UNL     1      -0.867   5.428  24.976  0.00  0.00    -0.349 OA
ENDBRANCH   3   2
ENDBRANCH   4   3
ENDBRANCH   5   4
BRANCH  17  18
ATOM     18  C   UNL     1      -3.910  -0.767  24.816  0.00  0.00    +0.143 C 
BRANCH  18  19
ATOM     19  C   UNL     1      -3.871  -1.562  24.602  0.00  0.00    -0.001 A 
ATOM     20  C   UNL     1      -3.494  -2.106  25.096  0.00  0.00    -0.003 A 
ATOM     21  C   UNL     1      -3.455  -2.901  24.881  0.00  0.00    -0.000 A 
ATOM     22  C   UNL     1      -3.792  -3.154  24.172  0.00  0.00    -0.000 A 
ATOM     23  C   UNL     1      -4.169  -2.612  23.677  0.00  0.00    -0.000 A 
ATOM     24  C   UNL     1      -4.208  -1.815  23.892  0.00  0.00    -0.003 A 
ENDBRANCH  18  19
ENDBRANCH  17  18
TORSDOF 5
ENDMDL
MODEL 2
REMARK VINA RESULT:      -9.0      2.617      4.143
REMARK  Name = 
REMARK  5 active torsions:
REMARK  status: ('A' for Active; 'I' for Inactive)
REMARK    1  A    between atoms: O_2  and  C_3
REMARK    2  A    between atoms: C_3  and  C_4
REMARK    3  A    between atoms: C_4  and  N_5
REMARK    4  A    between atoms: N_17  and  C_18
REMARK    5  A    between atoms: C_18  and  C_19
REMARK                            x       y       z     vdW  Elec       q    Type
REMARK                         _______ _______ _______ _____ _____    ______ ____
ROOT
ATOM      5  N   UNL     1       0.195   0.031  23.625  0.00  0.00    -0.260 N 
ATOM      6  C   UNL     1      -0.131   0.740  23.355  0.00  0.00    +0.117 C 
ATOM      7  C   UNL     1      -0.869   0.832  23.710  0.00  0.00    +0.117 C 
ATOM      8  C   UNL     1      -1.440   1.424  23.651  0.00  0.00    +0.117 C 
ATOM      9  N   UNL     1      -2.141   1.366  24.082  0.00  0.00    -0.259 N 
ATOM     10  C   UNL     1      -2.272   0.715  24.571  0.00  0.00    +0.117 C 
ATOM     11  C   UNL     1      -1.701   0.122  24.631  0.00  0.00    +0.117 C 
ATOM     12  N   UNL     1      -0.999   0.181  24.200  0.00  0.00    -0.261 N 
ATOM     13  C   UNL     1      -0.342  -0.314  24.147  0.00  0.00    +0.307 C 
ATOM     14  O   UNL     1      -0.239  -1.029  24.547  0.00  0.00    -0.252 OA
ATOM     15  C   UNL     1      -2.713   1.958  24.023  0.00  0.00    +0.324 C 
ATOM     16  O   UNL     1      -2.582   2.609  23.533  0.00  0.00    -0.251 OA
ATOM     17  N   UNL     1      -3.413   1.900  24.453  0.00  0.00    -0.184 NA
ENDROOT
BRANCH   5   4
ATOM      4  C   UNL     1       0.930  -0.277  23.411  0.00  0.00    +0.127 C 
BRANCH   4   3
ATOM      3  C   UNL     1       1.427   0.150  22.910  0.00  0.00    +0.164 C 
BRANCH   3   2
ATOM      1  C   UNL     1       2.777   0.273  22.457  0.00  0.00    +0.174 C 
ATOM      2  O   UNL     1       2.117  -0.196  22.619  0.00  0.00    -0.349 OA
ENDBRANCH   3   2
ENDBRANCH   4   3
ENDBRANCH   5   4
BRANCH  17  18
ATOM     18  C   UNL     1      -3.985   2.493  24.395  0.00  0.00    +0.143 C 
BRANCH  18  19
ATOM     19  C   UNL     1      -4.669   2.454  24.853  0.00  0.00    -0.001 A 
ATOM     20  C   UNL     1      -5.259   1.906  24.670  0.00  0.00    -0.003 A 
ATOM     21  C   UNL     1      -5.942   1.867  25.129  0.00  0.00    -0.000 A 
ATOM     22  C   UNL     1      -6.038   2.376  25.771  0.00  0.00    -0.000 A 
ATOM     23  C   UNL     1      -5.449   2.923  25.955  0.00  0.00    -0.000 A 
ATOM     24  C   UNL     1      -4.764   2.962  25.496  0.00  0.00    -0.003 A 
ENDBRANCH  18  19
ENDBRANCH  17  18
TORSDOF 5
ENDMDL
MODEL 3
REMARK VINA RESULT:      -8.1      1.140      5.804
REMARK  Name = 
REMARK  5 active torsions:
REMARK  status: ('A' for Active; 'I' for Inactive)
REMARK    1  A    between atoms: O_2  and  C_3
REMARK    2  A    between atoms: C_3  and  C_4
REMARK    3  A    between atoms: C_4  and  N_5
REMARK    4  A    between atoms: N_17  and  C_18
REMARK    5  A    between atoms: C_18  and  C_19
REMARK                            x       y       z     vdW  Elec       q    Type
REMARK                         _______ _______ _______ _____ _____    ______ ____
ROOT
ATOM      5  N   UNL     1      -3.542  -0.958  24.641  0.00  0.00    -0.260 N 
ATOM      6  C   UNL     1      -2.783  -0.753  24.893  0.00  0.00    +0.117 C 
ATOM      7  C   UNL     1      -2.727   0.069  24.890  0.00  0.00    +0.117 C 
ATOM      8  C   UNL     1      -2.111   0.582  25.086  0.00  0.00    +0.117 C 
ATOM      9  N   UNL     1      -2.218   1.397  25.027  0.00  0.00    -0.259 N 
ATOM     10  C   UNL     1      -2.941   1.701  24.773  0.00  0.00    +0.117 C 
ATOM     11  C   UNL     1      -3.558   1.190  24.577  0.00  0.00    +0.117 C 
ATOM     12  N   UNL     1      -3.451   0.373  24.636  0.00  0.00    -0.261 N 
ATOM     13  C   UNL     1      -3.954  -0.262  24.482  0.00  0.00    +0.307 C 
ATOM     14  O   UNL     1      -4.734  -0.209  24.216  0.00  0.00    -0.252 OA
ATOM     15  C   UNL     1      -1.601   1.910  25.223  0.00  0.00    +0.324 C 
ATOM     16  O   UNL     1      -0.878   1.606  25.477  0.00  0.00    -0.251 OA
ATOM     17  N   UNL     1      -1.708   2.725  25.165  0.00  0.00    -0.184 NA
ENDROOT
BRANCH   5   4
ATOM      4  C   UNL     1      -3.836  -1.725  24.562  0.00  0.00    +0.127 C 
BRANCH   4   3
ATOM      3  C   UNL     1      -3.330  -2.371  24.640  0.00  0.00    +0.164 C 
BRANCH   3   2
ATOM      1  C   UNL     1      -3.586  -3.670  24.102  0.00  0.00    +0.174 C 
ATOM      2  O   UNL     1      -3.641  -3.131  24.724  0.00  0.00    -0.349 OA
ENDBRANCH   3   2
ENDBRANCH   4   3
ENDBRANCH   5   4
BRANCH  17  18
ATOM     18  C   UNL     1      -1.092   3.238  25.360  0.00  0.00    +0.143 C 
BRANCH  18  19
ATOM     19  C   UNL     1      -1.161   4.045  25.207  0.00  0.00    -0.001 A 
ATOM     20  C   UNL     1      -1.818   4.463  25.482  0.00  0.00    -0.003 A 
ATOM     21  C   UNL     1      -1.888   5.269  25.328  0.00  0.00    -0.000 A 
ATOM     22  C   UNL     1      -1.301   5.660  24.900  0.00  0.00    -0.000 A 
ATOM     23  C   UNL     1      -0.644   5.244  24.625  0.00  0.00    -0.000 A 
ATOM     24  C   UNL     1      -0.574   4.435  24.779  0.00  0.00    -0.003 A 
ENDBRANCH  18  19
ENDBRANCH  17  18
TORSDOF 5
ENDMDL
MODEL 4
REMARK VINA RESULT:      -7.1      3.142      4.233
REMARK  Name = 
REMARK  5 active torsions:
REMARK  status: ('A' for Active; 'I' for Inactive)
REMARK    1  A    between atoms: O_2  and  C_3
REMARK    2  A    between atoms: C_3  and  C_4
REMARK    3  A    between atoms: C_4  and  N_5
REMARK    4  A    between atoms: N_17  and  C_18
REMARK    5  A    between atoms: C_18  and  C_19
REMARK                            x       y       z     vdW  Elec       q    Type
REMARK                         _______ _______ _______ _____ _____    ______ ____
ROOT
ATOM      5  N   UNL     1       2.407   0.486  22.771  0.00  0.00    -0.260 N 
ATOM      6  C   UNL     1       2.069   0.862  23.424  0.00  0.00    +0.117 C 
ATOM      7  C   UNL     1       1.288   0.605  23.488  0.00  0.00    +0.117 C 
ATOM      8  C   UNL     1       0.688   0.789  24.025  0.00  0.00    +0.117 C 
ATOM      9  N   UNL     1      -0.054   0.439  23.950  0.00  0.00    -0.259 N 
ATOM     10  C   UNL     1      -0.199  -0.095  23.338  0.00  0.00    +0.117 C 
ATOM     11  C   UNL     1       0.399  -0.280  22.801  0.00  0.00    +0.117 C 
ATOM     12  N   UNL     1       1.143   0.071  22.876  0.00  0.00    -0.261 N 
ATOM     13  C   UNL     1       1.835  -0.003  22.434  0.00  0.00    +0.307 C 
ATOM     14  O   UNL     1       1.937  -0.481  21.769  0.00  0.00    -0.252 OA
ATOM     15  C   UNL     1      -0.654   0.622  24.487  0.00  0.00    +0.324 C 
ATOM     16  O   UNL     1      -0.509   1.157  25.099  0.00  0.00    -0.251 OA
ATOM     17  N   UNL     1      -1.396   0.272  24.412  0.00  0.00    -0.184 NA
ENDROOT
BRANCH   5   4
ATOM      4  C   UNL     1       3.182   0.582  22.505  0.00  0.00    +0.127 C 
BRANCH   4   3
ATOM      3  C   UNL     1       3.806   0.592  23.044  0.00  0.00    +0.164 C 
BRANCH   3   2
ATOM      1  C   UNL     1       5.196   0.365  23.283  0.00  0.00    +0.174 C 
ATOM      2  O   UNL     1       4.585   0.585  22.774  0.00  0.00    -0.349 OA
ENDBRANCH   3   2
ENDBRANCH   4   3
ENDBRANCH   5   4
BRANCH  17  18
ATOM     18  C   UNL     1      -1.996   0.456  24.949  0.00  0.00    +0.143 C 
BRANCH  18  19
ATOM     19  C   UNL     1      -2.726   0.078  24.897  0.00  0.00    -0.001 A 
ATOM     20  C   UNL     1      -3.302   0.359  24.378  0.00  0.00    -0.003 A 
ATOM     21  C   UNL     1      -4.032  -0.019  24.326  0.00  0.00    -0.000 A 
ATOM     22  C   UNL     1      -4.188  -0.680  24.794  0.00  0.00    -0.000 A 
ATOM     23  C   UNL     1      -3.614  -0.962  25.314  0.00  0.00    -0.000 A 
ATOM     24  C   UNL     1      -2.882  -0.583  25.366  0.00  0.00    -0.003 A 
ENDBRANCH  18  19
ENDBRANCH  17  18
TORSDOF 5
ENDMDL
MODEL 5
REMARK VINA RESULT:      -6.8      3.266      5.439
REMARK  Name = 
REMARK  5 active torsions:
REMARK  status: ('A' for Active; 'I' for Inactive)
REMARK    1  A    between atoms: O_2  and  C_3
REMARK    2  A    between atoms: C_3  and  C_4
REMARK    3  A    between atoms: C_4  and  N_5
REMARK    4  A    between atoms: N_17  and  C_18
REMARK    5  A    between atoms: C_18  and  C_19
REMARK                            x       y       z     vdW  Elec       q    Type
REMARK                         _______ _______ _______ _____ _____    ______ ____
ROOT
ATOM      5  N   UNL     1      -1.932   1.446  24.603  0.00  0.00    -0.260 N 
ATOM      6  C   UNL     1      -1.669   0.853  24.092  0.00  0.00    +0.117 C 
ATOM      7  C   UNL     1      -0.853   0.935  24.005  0.00  0.00    +0.117 C 
ATOM      8  C   UNL     1      -0.298   0.508  23.569  0.00  0.00    +0.117 C 
ATOM      9  N   UNL     1       0.498   0.723  23.589  0.00  0.00    -0.259 N 
ATOM     10  C   UNL     1       0.739   1.366  24.046  0.00  0.00    +0.117 C 
ATOM     11  C   UNL     1       0.185   1.794  24.483  0.00  0.00    +0.117 C 
ATOM     12  N   UNL     1      -0.611   1.578  24.462  0.00  0.00    -0.261 N 
ATOM     13  C   UNL     1      -1.278   1.894  24.831  0.00  0.00    +0.307 C 
ATOM     14  O   UNL     1      -1.289   2.543  25.340  0.00  0.00    -0.252 OA
ATOM     15  C   UNL     1       1.053   0.296  23.153  0.00  0.00    +0.324 C 
ATOM     16  O   UNL     1       0.811  -0.347  22.696  0.00  0.00    -0.251 OA
ATOM     17  N   UNL     1       1.848   0.511  23.174  0.00  0.00    -0.184 NA
ENDROOT
BRANCH   5   4
ATOM      4  C   UNL     1      -2.711   1.568  24.843  0.00  0.00    +0.127 C 
BRANCH   4   3
ATOM      3  C   UNL     1      -3.286   0.998  24.684  0.00  0.00    +0.164 C 
BRANCH   3   2
ATOM      1  C   UNL     1      -4.604   0.513  24.951  0.00  0.00    +0.174 C 
ATOM      2  O   UNL     1      -4.075   1.143  24.877  0.00  0.00    -0.349 OA
ENDBRANCH   3   2
ENDBRANCH   4   3
ENDBRANCH   5   4
BRANCH  17  18
ATOM     18  C   UNL     1       2.404   0.084  22.738  0.00  0.00    +0.143 C 
BRANCH  18  19
ATOM     19  C   UNL     1       3.209   0.212  22.856  0.00  0.00    -0.001 A 
ATOM     20  C   UNL     1       3.559   0.913  22.597  0.00  0.00    -0.003 A 
ATOM     21  C   UNL     1       4.365   1.041  22.715  0.00  0.00    -0.000 A 
ATOM     22  C   UNL     1       4.822   0.469  23.094  0.00  0.00    -0.000 A 
ATOM     23  C   UNL     1       4.473  -0.232  23.354  0.00  0.00    -0.000 A 
ATOM     24  C   UNL     1       3.666  -0.360  23.235  0.00  0.00    -0.003 A 
ENDBRANCH  18  19
ENDBRANCH  17  18
TORSDOF 5
ENDMDL
MODEL 6
REMARK VINA RESULT:      -6.6      2.723      4.376
REMARK  Name = 
REMARK  5 active torsions:
REMARK  status: ('A' for Active; 'I' for Inactive)
REMARK    1  A    between atoms: O_2  and  C_3
REMARK    2  A    between atoms: C_3  and  C_4
REMARK    3  A    between atoms: C_4  and  N_5
REMARK    4  A    between atoms: N_17  and  C_18
REMARK    5  A    between atoms: C_18  and  C_19
REMARK                            x       y       z     vdW  Elec       q    Type
REMARK                         _______ _______ _______ _____ _____    ______ ____
ROOT
ATOM      5  N   UNL     1      -4.014   2.128  24.385  0.00  0.00    -0.260 N 
ATOM      6  C   UNL     1      -3.630   1.462  24.687  0.00  0.00    +0.117 C 
ATOM      7  C   UNL     1      -2.888   1.414  24.331  0.00  0.00    +0.117 C 
ATOM      8  C   UNL     1      -2.269   0.874  24.413  0.00  0.00    +0.117 C 
ATOM      9  N   UNL     1      -1.577   0.968  23.976  0.00  0.00    -0.259 N 
ATOM     10  C   UNL     1      -1.502   1.604  23.455  0.00  0.00    +0.117 C 
ATOM     11  C   UNL     1      -2.120   2.144  23.371  0.00  0.00    +0.117 C 
ATOM     12  N   UNL     1      -2.813   2.049  23.810  0.00  0.00    -0.261 N 
ATOM     13  C   UNL     1      -3.509   2.490  23.844  0.00  0.00    +0.307 C 
ATOM     14  O   UNL     1      -3.671   3.174  23.411  0.00  0.00    -0.252 OA
ATOM     15  C   UNL     1      -0.959   0.428  24.058  0.00  0.00    +0.324 C 
ATOM     16  O   UNL     1      -1.034  -0.207  24.579  0.00  0.00    -0.251 OA
ATOM     17  N   UNL     1      -0.267   0.523  23.621  0.00  0.00    -0.184 NA
ENDROOT
BRANCH   5   4
ATOM      4  C   UNL     1      -4.771   2.385  24.590  0.00  0.00    +0.127 C 
BRANCH   4   3
ATOM      3  C   UNL     1      -5.149   2.069  25.251  0.00  0.00    +0.164 C 
BRANCH   3   2
ATOM      1  C   UNL     1      -6.220   2.136  26.195  0.00  0.00    +0.174 C 
ATOM      2  O   UNL     1      -5.906   2.325  25.456  0.00  0.00    -0.349 OA
ENDBRANCH   3   2
ENDBRANCH   4   3
ENDBRANCH   5   4
BRANCH  17  18
ATOM     18  C   UNL     1       0.352  -0.017  23.703  0.00  0.00    +0.143 C 
BRANCH  18  19
ATOM     19  C   UNL     1       1.018   0.041  23.221  0.00  0.00    -0.001 A 
ATOM     20  C   UNL     1       1.649   0.523  23.445  0.00  0.00    -0.003 A 
ATOM     21  C   UNL     1       2.315   0.581  22.963  0.00  0.00    -0.000 A 
ATOM     22  C   UNL     1       2.351   0.157  22.256  0.00  0.00    -0.000 A 
ATOM     23  C   UNL     1       1.721  -0.325  22.031  0.00  0.00    -0.000 A 
ATOM     24  C   UNL     1       1.053  -0.383  22.514  0.00  0.00    -0.003 A 
ENDBRANCH  18  19
ENDBRANCH  17  18
TORSDOF 5
ENDMDL
MODEL 7
REMARK VINA RESULT:      -5.9     17.444     19.101
REMARK  Name = 
REMARK  5 active torsions:
REMARK  status: ('A' for Active; 'I' for Inactive)
REMARK    1  A    between atoms: O_2  and  C_3
REMARK    2  A    between atoms: C_3  and  C_4
REMARK    3  A    between atoms: C_4  and  N_5
REMARK    4  A    between atoms: N_17  and  C_18
REMARK    5  A    between atoms: C_18  and  C_19
REMARK                            x       y       z     vdW  Elec       q    Type
REMARK                         _______ _______ _______ _____ _____    ______ ____
ROOT
ATOM      5  N   UNL     1      16.005   6.626  19.556  0.00  0.00    -0.260 N 
ATOM      6  C   UNL     1      15.425   7.132  19.855  0.00  0.00    +0.117 C 
ATOM      7  C   UNL     1      14.886   7.286  19.251  0.00  0.00    +0.117 C 
ATOM      8  C   UNL     1      14.202   7.747  19.225  0.00  0.00    +0.117 C 
ATOM      9  N   UNL     1      13.764   7.798  18.528  0.00  0.00    -0.259 N 
ATOM     10  C   UNL     1      14.010   7.387  17.856  0.00  0.00    +0.117 C 
ATOM     11  C   UNL     1      14.694   6.926  17.881  0.00  0.00    +0.117 C 
ATOM     12  N   UNL     1      15.132   6.876  18.579  0.00  0.00    -0.261 N 
ATOM     13  C   UNL     1      15.823   6.468  18.768  0.00  0.00    +0.307 C 
ATOM     14  O   UNL     1      16.258   5.987  18.257  0.00  0.00    -0.252 OA
ATOM     15  C   UNL     1      13.080   8.258  18.503  0.00  0.00    +0.324 C 
ATOM     16  O   UNL     1      12.834   8.668  19.175  0.00  0.00    -0.251 OA
ATOM     17  N   UNL     1      12.643   8.309  17.806  0.00  0.00    -0.184 NA
ENDROOT
BRANCH   5   4
ATOM      4  C   UNL     1      16.653   6.331  19.974  0.00  0.00    +0.127 C 
BRANCH   4   3
ATOM      3  C   UNL     1      16.850   6.648  20.709  0.00  0.00    +0.164 C 
BRANCH   3   2
ATOM      1  C   UNL     1      17.400   6.408  22.005  0.00  0.00    +0.174 C 
ATOM      2  O   UNL     1      17.395   6.262  21.193  0.00  0.00    -0.349 OA
ENDBRANCH   3   2
ENDBRANCH   4   3
ENDBRANCH   5   4
BRANCH  17  18
ATOM     18  C   UNL     1      11.959   8.770  17.780  0.00  0.00    +0.143 C 
BRANCH  18  19
ATOM     19  C   UNL     1      11.516   8.813  17.086  0.00  0.00    -0.001 A 
ATOM     20  C   UNL     1      10.714   8.618  17.095  0.00  0.00    -0.003 A 
ATOM     21  C   UNL     1      10.271   8.661  16.401  0.00  0.00    -0.000 A 
ATOM     22  C   UNL     1      10.629   8.899  15.697  0.00  0.00    -0.000 A 
ATOM     23  C   UNL     1      11.430   9.094  15.687  0.00  0.00    -0.000 A 
ATOM     24  C   UNL     1      11.874   9.051  16.382  0.00  0.00    -0.003 A 
ENDBRANCH  18  19
ENDBRANCH  17  18
TORSDOF 5
ENDMDL
MODEL 8
REMARK VINA RESULT:      -5.7      2.359      2.949
REMARK  Name = 
REMARK  5 active torsions:
REMARK  status: ('A' for Active; 'I' for Inactive)
REMARK    1  A    between atoms: O_2  and  C_3
REMARK    2  A    between atoms: C_3  and  C_4
REMARK    3  A    between atoms: C_4  and  N_5
REMARK    4  A    between atoms: N_17  and  C_18
REMARK    5  A    between atoms: C_18  and  C_19
REMARK                            x       y       z     vdW  Elec       q    Type
REMARK                         _______ _______ _______ _____ _____    ______ ____
ROOT
ATOM      5  N   UNL     1      -4.839   3.093  24.859  0.00  0.00    -0.260 N 
ATOM      6  C   UNL     1      -5.025   2.420  25.300  0.00  0.00    +0.117 C 
ATOM      7  C   UNL     1      -4.520   1.813  25.064  0.00  0.00    +0.117 C 
ATOM      8  C   UNL     1      -4.449   1.027  25.307  0.00  0.00    +0.117 C 
ATOM      9  N   UNL     1      -3.881   0.539  24.963  0.00  0.00    -0.259 N 
ATOM     10  C   UNL     1      -3.382   0.836  24.376  0.00  0.00    +0.117 C 
ATOM     11  C   UNL     1      -3.453   1.621  24.133  0.00  0.00    +0.117 C 
ATOM     12  N   UNL     1      -4.022   2.109  24.477  0.00  0.00    -0.261 N 
ATOM     13  C   UNL     1      -4.219   2.900  24.351  0.00  0.00    +0.307 C 
ATOM     14  O   UNL     1      -3.859   3.409  23.810  0.00  0.00    -0.252 OA
ATOM     15  C   UNL     1      -3.809  -0.246  25.206  0.00  0.00    +0.324 C 
ATOM     16  O   UNL     1      -4.308  -0.543  25.793  0.00  0.00    -0.251 OA
ATOM     17  N   UNL     1      -3.241  -0.735  24.863  0.00  0.00    -0.184 NA
ENDROOT
BRANCH   5   4
ATOM      4  C   UNL     1      -5.209   3.828  24.917  0.00  0.00    +0.127 C 
BRANCH   4   3
ATOM      3  C   UNL     1      -5.550   4.063  25.630  0.00  0.00    +0.164 C 
BRANCH   3   2
ATOM      1  C   UNL     1      -6.161   5.355  25.614  0.00  0.00    +0.174 C 
ATOM      2  O   UNL     1      -6.229   4.533  25.627  0.00  0.00    -0.349 OA
ENDBRANCH   3   2
ENDBRANCH   4   3
ENDBRANCH   5   4
BRANCH  17  18
ATOM     18  C   UNL     1      -3.170  -1.520  25.106  0.00  0.00    +0.143 C 
BRANCH  18  19
ATOM     19  C   UNL     1      -2.572  -1.996  24.795  0.00  0.00    -0.001 A 
ATOM     20  C   UNL     1      -2.763  -2.636  24.311  0.00  0.00    -0.003 A 
ATOM     21  C   UNL     1      -2.166  -3.112  24.001  0.00  0.00    -0.000 A 
ATOM     22  C   UNL     1      -1.376  -2.948  24.174  0.00  0.00    -0.000 A 
ATOM     23  C   UNL     1      -1.184  -2.308  24.657  0.00  0.00    -0.000 A 
ATOM     24  C   UNL     1      -1.783  -1.832  24.968  0.00  0.00    -0.003 A 
ENDBRANCH  18  19
ENDBRANCH  17  18
TORSDOF 5
ENDMDL
MODEL 9
REMARK VINA RESULT:      -5.4     14.293     15.715
REMARK  Name = 
REMARK  5 active torsions:
REMARK  status: ('A' for Active; 'I' for Inactive)
REMARK    1  A    between atoms: O_2  and  C_3
REMARK    2  A    between atoms: C_3  and  C_4
REMARK    3  A    between atoms: C_4  and  N_5
REMARK    4  A    between atoms: N_17  and  C_18
REMARK    5  A    between atoms: C_18  and  C_19
REMARK                            x       y       z     vdW  Elec       q    Type
REMARK                         _______ _______ _______ _____ _____    ______ ____
ROOT
ATOM      5  N   UNL     1      -3.828 -10.630  13.144  0.00  0.00    -0.260 N 
ATOM      6  C   UNL     1      -3.728 -10.625  13.964  0.00  0.00    +0.117 C 
ATOM      7  C   UNL     1      -4.457 -10.449  14.307  0.00  0.00    +0.117 C 
ATOM      8  C   UNL     1      -4.693 -10.370  15.094  0.00  0.00    +0.117 C 
ATOM      9  N   UNL     1      -5.476 -10.188  15.274  0.00  0.00    -0.259 N 
ATOM     10  C   UNL     1      -6.026 -10.085  14.667  0.00  0.00    +0.117 C 
ATOM     11  C   UNL     1      -5.792 -10.164  13.880  0.00  0.00    +0.117 C 
ATOM     12  N   UNL     1      -5.007 -10.347  13.700  0.00  0.00    -0.261 N 
ATOM     13  C   UNL     1      -4.618 -10.458  12.982  0.00  0.00    +0.307 C 
ATOM     14  O   UNL     1      -4.959 -10.407  12.232  0.00  0.00    -0.252 OA
ATOM     15  C   UNL     1      -5.711 -10.108  16.061  0.00  0.00    +0.324 C 
ATOM     16  O   UNL     1      -5.162 -10.211  16.668  0.00  0.00    -0.251 OA
ATOM     17  N   UNL     1      -6.495  -9.926  16.241  0.00  0.00    -0.184 NA
ENDROOT
BRANCH   5   4
ATOM      4  C   UNL     1      -3.239 -10.781  12.586  0.00  0.00    +0.127 C 
BRANCH   4   3
ATOM      3  C   UNL     1      -2.500 -10.422  12.657  0.00  0.00    +0.164 C 
BRANCH   3   2
ATOM      1  C   UNL     1      -1.361  -9.980  11.917  0.00  0.00    +0.174 C 
ATOM      2  O   UNL     1      -1.916 -10.565  12.092  0.00  0.00    -0.349 OA
ENDBRANCH   3   2
ENDBRANCH   4   3
ENDBRANCH   5   4
BRANCH  17  18
ATOM     18  C   UNL     1      -6.730  -9.846  17.028  0.00  0.00    +0.143 C 
BRANCH  18  19
ATOM     19  C   UNL     1      -7.526  -9.735  17.212  0.00  0.00    -0.001 A 
ATOM     20  C   UNL     1      -7.883  -9.004  17.075  0.00  0.00    -0.003 A 
ATOM     21  C   UNL     1      -8.679  -8.892  17.259  0.00  0.00    -0.000 A 
ATOM     22  C   UNL     1      -9.119  -9.511  17.580  0.00  0.00    -0.000 A 
ATOM     23  C   UNL     1      -8.763 -10.243  17.717  0.00  0.00    -0.000 A 
ATOM     24  C   UNL     1      -7.966 -10.354  17.533  0.00  0.00    -0.003 A 
ENDBRANCH  18  19
ENDBRANCH  17  18
TORSDOF 5
ENDMDL
