MODEL 1
REMARK VINA RESULT:      -9.8      0.000      0.000
REMARK  Name = 
REMARK  5 active torsions:
REMARK  status: ('A' for Active; 'I' for Inactive)
REMARK    1  A    between atoms: C_3  and  N_17
REMARK    2  A    between atoms: C_6  and  C_7
REMARK    3  A    between atoms: C_7  and  N_8
REMARK    4  A    between atoms: C_9  and  C_11
REMARK    5  A    between atoms: N_17  and  C_18
REMARK                            x       y       z     vdW  Elec       q    Type
REMARK                         _______ _______ _______ _____ _____    ______ ____
ROOT
ATOM      1  O   UNL     1      -4.902   1.140  25.413  0.00  0.00    -0.219 OA
ATOM      2  C   UNL     1      -4.257   0.999  24.918  0.00  0.00    +0.199 C 
ATOM      3  C   UNL     1      -4.089   0.291  24.530  0.00  0.00    +0.135 C 
ATOM      4  C   UNL     1      -3.395   0.397  24.095  0.00  0.00    +0.162 C 
ATOM      5  O   UNL     1      -3.134   1.170  24.215  0.00  0.00    -0.350 OA
ATOM      6  C   UNL     1      -3.667   1.543  24.723  0.00  0.00    +0.169 C 
ENDROOT
BRANCH   6   7
ATOM      7  C   UNL     1      -3.619   2.322  24.990  0.00  0.00    +0.148 C 
BRANCH   7   8
ATOM      8  N   UNL     1      -2.908   2.735  24.928  0.00  0.00    -0.199 NA
ATOM      9  C   UNL     1      -2.831   3.478  25.279  0.00  0.00    +0.265 C 
ATOM     10  O   UNL     1      -3.465   3.808  25.691  0.00  0.00    -0.268 OA
BRANCH   9  11
ATOM     11  C   UNL     1      -2.120   3.892  25.217  0.00  0.00    +0.058 A 
ATOM     12  C   UNL     1      -2.125   4.710  25.115  0.00  0.00    +0.025 A 
ATOM     13  C   UNL     1      -1.414   5.124  25.054  0.00  0.00    +0.099 A 
ATOM     14  N   UNL     1      -0.697   4.719  25.094  0.00  0.00    -0.242 NA
ATOM     15  C   UNL     1      -0.691   3.900  25.196  0.00  0.00    +0.099 A 
ATOM     16  C   UNL     1      -1.402   3.486  25.258  0.00  0.00    +0.025 A 
ENDBRANCH   9  11
ENDBRANCH   7   8
ENDBRANCH   6   7
BRANCH   3  17
ATOM     17  N   UNL     1      -4.536  -0.401  24.569  0.00  0.00    -0.216 NA
BRANCH  17  18
ATOM     18  C   UNL     1      -4.160  -1.136  24.572  0.00  0.00    +0.076 C 
ATOM     19  C   UNL     1      -3.750  -1.386  25.243  0.00  0.00    +0.036 C 
ATOM     20  C   UNL     1      -3.374  -2.120  25.247  0.00  0.00    +0.090 C 
ATOM     21  N   UNL     1      -3.408  -2.604  24.579  0.00  0.00    -0.218 NA
ATOM     22  C   UNL     1      -3.818  -2.353  23.908  0.00  0.00    +0.090 C 
ATOM     23  C   UNL     1      -4.194  -1.619  23.905  0.00  0.00    +0.036 C 
ENDBRANCH  17  18
ENDBRANCH   3  17
TORSDOF 5
ENDMDL
MODEL 2
REMARK VINA RESULT:      -9.2      1.488      1.912
REMARK  Name = 
REMARK  5 active torsions:
REMARK  status: ('A' for Active; 'I' for Inactive)
REMARK    1  A    between atoms: C_3  and  N_17
REMARK    2  A    between atoms: C_6  and  C_7
REMARK    3  A    between atoms: C_7  and  N_8
REMARK    4  A    between atoms: C_9  and  C_11
REMARK    5  A    between atoms: N_17  and  C_18
REMARK                            x       y       z     vdW  Elec       q    Type
REMARK                         _______ _______ _______ _____ _____    ______ ____
ROOT
ATOM      1  O   UNL     1      -0.617  -0.186  24.885  0.00  0.00    -0.219 OA
ATOM      2  C   UNL     1      -1.402   0.070  24.897  0.00  0.00    +0.199 C 
ATOM      3  C   UNL     1      -2.059  -0.371  24.663  0.00  0.00    +0.135 C 
ATOM      4  C   UNL     1      -2.730   0.098  24.767  0.00  0.00    +0.162 C 
ATOM      5  O   UNL     1      -2.488   0.829  25.064  0.00  0.00    -0.350 OA
ATOM      6  C   UNL     1      -1.666   0.811  25.145  0.00  0.00    +0.169 C 
ENDROOT
BRANCH   6   7
ATOM      7  C   UNL     1      -1.193   1.426  25.423  0.00  0.00    +0.148 C 
BRANCH   7   8
ATOM      8  N   UNL     1      -1.403   2.209  25.270  0.00  0.00    -0.199 NA
ATOM      9  C   UNL     1      -0.981   2.826  25.622  0.00  0.00    +0.265 C 
ATOM     10  O   UNL     1      -0.350   2.659  26.127  0.00  0.00    -0.268 OA
BRANCH   9  11
ATOM     11  C   UNL     1      -1.191   3.609  25.469  0.00  0.00    +0.058 A 
ATOM     12  C   UNL     1      -1.905   3.908  25.752  0.00  0.00    +0.025 A 
ATOM     13  C   UNL     1      -2.115   4.691  25.598  0.00  0.00    +0.099 A 
ATOM     14  N   UNL     1      -1.609   5.175  25.162  0.00  0.00    -0.242 NA
ATOM     15  C   UNL     1      -0.894   4.876  24.879  0.00  0.00    +0.099 A 
ATOM     16  C   UNL     1      -0.685   4.093  25.032  0.00  0.00    +0.025 A 
ENDBRANCH   9  11
ENDBRANCH   7   8
ENDBRANCH   6   7
BRANCH   3  17
ATOM     17  N   UNL     1      -2.047  -1.145  24.377  0.00  0.00    -0.216 NA
BRANCH  17  18
ATOM     18  C   UNL     1      -2.719  -1.619  24.443  0.00  0.00    +0.076 C 
ATOM     19  C   UNL     1      -2.784  -2.157  25.063  0.00  0.00    +0.036 C 
ATOM     20  C   UNL     1      -3.456  -2.632  25.130  0.00  0.00    +0.090 C 
ATOM     21  N   UNL     1      -4.063  -2.567  24.574  0.00  0.00    -0.218 NA
ATOM     22  C   UNL     1      -3.997  -2.028  23.952  0.00  0.00    +0.090 C 
ATOM     23  C   UNL     1      -3.325  -1.554  23.887  0.00  0.00    +0.036 C 
ENDBRANCH  17  18
ENDBRANCH   3  17
TORSDOF 5
ENDMDL
MODEL 3
REMARK VINA RESULT:      -9.1      0.950      5.232
REMARK  Name = 
REMARK  5 active torsions:
REMARK  status: ('A' for Active; 'I' for Inactive)
REMARK    1  A    between atoms: C_3  and  N_17
REMARK    2  A    between atoms: C_6  and  C_7
REMARK    3  A    between atoms: C_7  and  N_8
REMARK    4  A    between atoms: C_9  and  C_11
REMARK    5  A    between atoms: N_17  and  C_18
REMARK                            x       y       z     vdW  Elec       q    Type
REMARK                         _______ _______ _______ _____ _____    ______ ____
ROOT
ATOM      1  O   UNL     1      -4.789   2.255  24.282  0.00  0.00    -0.219 OA
ATOM      2  C   UNL     1      -3.991   2.049  24.261  0.00  0.00    +0.199 C 
ATOM      3  C   UNL     1      -3.354   2.573  24.288  0.00  0.00    +0.135 C 
ATOM      4  C   UNL     1      -2.658   2.131  24.253  0.00  0.00    +0.162 C 
ATOM      5  O   UNL     1      -2.865   1.333  24.203  0.00  0.00    -0.350 OA
ATOM      6  C   UNL     1      -3.688   1.283  24.208  0.00  0.00    +0.169 C 
ENDROOT
BRANCH   6   7
ATOM      7  C   UNL     1      -4.132   0.589  24.167  0.00  0.00    +0.148 C 
BRANCH   7   8
ATOM      8  N   UNL     1      -3.789  -0.132  24.375  0.00  0.00    -0.199 NA
ATOM      9  C   UNL     1      -4.238  -0.824  24.356  0.00  0.00    +0.265 C 
ATOM     10  O   UNL     1      -5.031  -0.795  24.128  0.00  0.00    -0.268 OA
BRANCH   9  11
ATOM     11  C   UNL     1      -3.895  -1.545  24.564  0.00  0.00    +0.058 A 
ATOM     12  C   UNL     1      -3.582  -1.650  25.320  0.00  0.00    +0.025 A 
ATOM     13  C   UNL     1      -3.239  -2.371  25.528  0.00  0.00    +0.099 A 
ATOM     14  N   UNL     1      -3.210  -2.986  24.980  0.00  0.00    -0.242 NA
ATOM     15  C   UNL     1      -3.522  -2.882  24.224  0.00  0.00    +0.099 A 
ATOM     16  C   UNL     1      -3.865  -2.161  24.016  0.00  0.00    +0.025 A 
ENDBRANCH   9  11
ENDBRANCH   7   8
ENDBRANCH   6   7
BRANCH   3  17
ATOM     17  N   UNL     1      -3.404   3.395  24.342  0.00  0.00    -0.216 NA
BRANCH  17  18
ATOM     18  C   UNL     1      -2.936   3.802  24.885  0.00  0.00    +0.076 C 
ATOM     19  C   UNL     1      -3.186   3.884  25.666  0.00  0.00    +0.036 C 
ATOM     20  C   UNL     1      -2.717   4.292  26.210  0.00  0.00    +0.090 C 
ATOM     21  N   UNL     1      -1.998   4.617  25.971  0.00  0.00    -0.218 NA
ATOM     22  C   UNL     1      -1.747   4.534  25.189  0.00  0.00    +0.090 C 
ATOM     23  C   UNL     1      -2.216   4.127  24.646  0.00  0.00    +0.036 C 
ENDBRANCH  17  18
ENDBRANCH   3  17
TORSDOF 5
ENDMDL
MODEL 4
REMARK VINA RESULT:      -9.1      1.903      5.600
REMARK  Name = 
REMARK  5 active torsions:
REMARK  status: ('A' for Active; 'I' for Inactive)
REMARK    1  A    between atoms: C_3  and  N_17
REMARK    2  A    between atoms: C_6  and  C_7
REMARK    3  A    between atoms: C_7  and  N_8
REMARK    4  A    between atoms: C_9  and  C_11
REMARK    5  A    between atoms: N_17  and  C_18
REMARK                            x       y       z     vdW  Elec       q    Type
REMARK                         _______ _______ _______ _____ _____    ______ ____
ROOT
ATOM      1  O   UNL     1      -0.255   1.497  26.278  0.00  0.00    -0.219 OA
ATOM      2  C   UNL     1      -0.615   1.635  25.549  0.00  0.00    +0.199 C 
ATOM      3  C   UNL     1      -0.748   2.374  25.206  0.00  0.00    +0.135 C 
ATOM      4  C   UNL     1      -1.121   2.254  24.479  0.00  0.00    +0.162 C 
ATOM      5  O   UNL     1      -1.219   1.442  24.373  0.00  0.00    -0.350 OA
ATOM      6  C   UNL     1      -0.907   1.059  25.034  0.00  0.00    +0.169 C 
ENDROOT
BRANCH   6   7
ATOM      7  C   UNL     1      -0.889   0.244  25.159  0.00  0.00    +0.148 C 
BRANCH   7   8
ATOM      8  N   UNL     1      -1.571  -0.205  25.045  0.00  0.00    -0.199 NA
ATOM      9  C   UNL     1      -1.554  -1.020  25.173  0.00  0.00    +0.265 C 
ATOM     10  O   UNL     1      -0.855  -1.386  25.415  0.00  0.00    -0.268 OA
BRANCH   9  11
ATOM     11  C   UNL     1      -2.236  -1.470  25.058  0.00  0.00    +0.058 A 
ATOM     12  C   UNL     1      -2.245  -2.069  24.491  0.00  0.00    +0.025 A 
ATOM     13  C   UNL     1      -2.927  -2.519  24.377  0.00  0.00    +0.099 A 
ATOM     14  N   UNL     1      -3.600  -2.370  24.830  0.00  0.00    -0.242 NA
ATOM     15  C   UNL     1      -3.591  -1.771  25.397  0.00  0.00    +0.099 A 
ATOM     16  C   UNL     1      -2.909  -1.321  25.512  0.00  0.00    +0.025 A 
ENDBRANCH   9  11
ENDBRANCH   7   8
ENDBRANCH   6   7
BRANCH   3  17
ATOM     17  N   UNL     1      -0.543   3.104  25.532  0.00  0.00    -0.216 NA
BRANCH  17  18
ATOM     18  C   UNL     1      -1.049   3.749  25.448  0.00  0.00    +0.076 C 
ATOM     19  C   UNL     1      -1.774   3.759  25.841  0.00  0.00    +0.036 C 
ATOM     20  C   UNL     1      -2.281   4.405  25.758  0.00  0.00    +0.090 C 
ATOM     21  N   UNL     1      -2.062   5.041  25.280  0.00  0.00    -0.218 NA
ATOM     22  C   UNL     1      -1.336   5.031  24.886  0.00  0.00    +0.090 C 
ATOM     23  C   UNL     1      -0.830   4.385  24.970  0.00  0.00    +0.036 C 
ENDBRANCH  17  18
ENDBRANCH   3  17
TORSDOF 5
ENDMDL
MODEL 5
REMARK VINA RESULT:      -8.1     15.952     18.567
REMARK  Name = 
REMARK  5 active torsions:
REMARK  status: ('A' for Active; 'I' for Inactive)
REMARK    1  A    between atoms: C_3  and  N_17
REMARK    2  A    between atoms: C_6  and  C_7
REMARK    3  A    between atoms: C_7  and  N_8
REMARK    4  A    between atoms: C_9  and  C_11
REMARK    5  A    between atoms: N_17  and  C_18
REMARK                            x       y       z     vdW  Elec       q    Type
REMARK                         _______ _______ _______ _____ _____    ______ ____
ROOT
ATOM      1  O   UNL     1      12.282   8.226  19.042  0.00  0.00    -0.219 OA
ATOM      2  C   UNL     1      12.421   7.647  19.612  0.00  0.00    +0.199 C 
ATOM      3  C   UNL     1      11.900   7.419  20.210  0.00  0.00    +0.135 C 
ATOM      4  C   UNL     1      12.263   6.824  20.652  0.00  0.00    +0.162 C 
ATOM      5  O   UNL     1      13.009   6.684  20.328  0.00  0.00    -0.350 OA
ATOM      6  C   UNL     1      13.107   7.192  19.685  0.00  0.00    +0.169 C 
ENDROOT
BRANCH   6   7
ATOM      7  C   UNL     1      13.772   7.238  19.201  0.00  0.00    +0.148 C 
BRANCH   7   8
ATOM      8  N   UNL     1      14.512   7.021  19.495  0.00  0.00    -0.199 NA
ATOM      9  C   UNL     1      15.186   7.120  19.029  0.00  0.00    +0.265 C 
ATOM     10  O   UNL     1      15.121   7.437  18.270  0.00  0.00    -0.268 OA
BRANCH   9  11
ATOM     11  C   UNL     1      15.926   6.903  19.323  0.00  0.00    +0.058 A 
ATOM     12  C   UNL     1      16.300   7.373  19.888  0.00  0.00    +0.025 A 
ATOM     13  C   UNL     1      17.040   7.156  20.182  0.00  0.00    +0.099 A 
ATOM     14  N   UNL     1      17.405   6.468  19.911  0.00  0.00    -0.242 NA
ATOM     15  C   UNL     1      17.031   5.997  19.346  0.00  0.00    +0.099 A 
ATOM     16  C   UNL     1      16.292   6.215  19.052  0.00  0.00    +0.025 A 
ENDBRANCH   9  11
ENDBRANCH   7   8
ENDBRANCH   6   7
BRANCH   3  17
ATOM     17  N   UNL     1      11.148   7.732  20.342  0.00  0.00    -0.216 NA
BRANCH  17  18
ATOM     18  C   UNL     1      10.916   7.940  21.106  0.00  0.00    +0.076 C 
ATOM     19  C   UNL     1      11.055   8.703  21.385  0.00  0.00    +0.036 C 
ATOM     20  C   UNL     1      10.823   8.911  22.150  0.00  0.00    +0.090 C 
ATOM     21  N   UNL     1      10.452   8.355  22.634  0.00  0.00    -0.218 NA
ATOM     22  C   UNL     1      10.313   7.592  22.354  0.00  0.00    +0.090 C 
ATOM     23  C   UNL     1      10.545   7.384  21.590  0.00  0.00    +0.036 C 
ENDBRANCH  17  18
ENDBRANCH   3  17
TORSDOF 5
ENDMDL
MODEL 6
REMARK VINA RESULT:      -8.0     15.982     18.695
REMARK  Name = 
REMARK  5 active torsions:
REMARK  status: ('A' for Active; 'I' for Inactive)
REMARK    1  A    between atoms: C_3  and  N_17
REMARK    2  A    between atoms: C_6  and  C_7
REMARK    3  A    between atoms: C_7  and  N_8
REMARK    4  A    between atoms: C_9  and  C_11
REMARK    5  A    between atoms: N_17  and  C_18
REMARK                            x       y       z     vdW  Elec       q    Type
REMARK                         _______ _______ _______ _____ _____    ______ ____
ROOT
ATOM      1  O   UNL     1      13.815   8.098  18.625  0.00  0.00    -0.219 OA
ATOM      2  C   UNL     1      13.907   7.533  19.219  0.00  0.00    +0.199 C 
ATOM      3  C   UNL     1      14.605   7.133  19.404  0.00  0.00    +0.135 C 
ATOM      4  C   UNL     1      14.447   6.621  20.031  0.00  0.00    +0.162 C 
ATOM      5  O   UNL     1      13.652   6.703  20.234  0.00  0.00    -0.350 OA
ATOM      6  C   UNL     1      13.318   7.267  19.732  0.00  0.00    +0.169 C 
ENDROOT
BRANCH   6   7
ATOM      7  C   UNL     1      12.533   7.520  19.741  0.00  0.00    +0.148 C 
BRANCH   7   8
ATOM      8  N   UNL     1      12.151   7.653  20.460  0.00  0.00    -0.199 NA
ATOM      9  C   UNL     1      11.373   7.927  20.469  0.00  0.00    +0.265 C 
ATOM     10  O   UNL     1      10.976   8.069  19.760  0.00  0.00    -0.268 OA
BRANCH   9  11
ATOM     11  C   UNL     1      10.991   8.059  21.188  0.00  0.00    +0.058 A 
ATOM     12  C   UNL     1      10.624   7.435  21.582  0.00  0.00    +0.025 A 
ATOM     13  C   UNL     1      10.242   7.567  22.301  0.00  0.00    +0.099 A 
ATOM     14  N   UNL     1      10.227   8.325  22.627  0.00  0.00    -0.242 NA
ATOM     15  C   UNL     1      10.594   8.950  22.233  0.00  0.00    +0.099 A 
ATOM     16  C   UNL     1      10.976   8.818  21.514  0.00  0.00    +0.025 A 
ENDBRANCH   9  11
ENDBRANCH   7   8
ENDBRANCH   6   7
BRANCH   3  17
ATOM     17  N   UNL     1      15.333   7.230  19.027  0.00  0.00    -0.216 NA
BRANCH  17  18
ATOM     18  C   UNL     1      16.024   6.962  19.390  0.00  0.00    +0.076 C 
ATOM     19  C   UNL     1      16.349   6.236  19.172  0.00  0.00    +0.036 C 
ATOM     20  C   UNL     1      17.040   5.967  19.535  0.00  0.00    +0.090 C 
ATOM     21  N   UNL     1      17.405   6.426  20.116  0.00  0.00    -0.218 NA
ATOM     22  C   UNL     1      17.079   7.152  20.334  0.00  0.00    +0.090 C 
ATOM     23  C   UNL     1      16.388   7.420  19.971  0.00  0.00    +0.036 C 
ENDBRANCH  17  18
ENDBRANCH   3  17
TORSDOF 5
ENDMDL
MODEL 7
REMARK VINA RESULT:      -7.5     17.749     19.333
REMARK  Name = 
REMARK  5 active torsions:
REMARK  status: ('A' for Active; 'I' for Inactive)
REMARK    1  A    between atoms: C_3  and  N_17
REMARK    2  A    between atoms: C_6  and  C_7
REMARK    3  A    between atoms: C_7  and  N_8
REMARK    4  A    between atoms: C_9  and  C_11
REMARK    5  A    between atoms: N_17  and  C_18
REMARK                            x       y       z     vdW  Elec       q    Type
REMARK                         _______ _______ _______ _____ _____    ______ ____
ROOT
ATOM      1  O   UNL     1      13.265   6.861  20.456  0.00  0.00    -0.219 OA
ATOM      2  C   UNL     1      13.743   7.055  19.812  0.00  0.00    +0.199 C 
ATOM      3  C   UNL     1      14.542   6.868  19.727  0.00  0.00    +0.135 C 
ATOM      4  C   UNL     1      14.798   7.167  19.001  0.00  0.00    +0.162 C 
ATOM      5  O   UNL     1      14.157   7.539  18.638  0.00  0.00    -0.350 OA
ATOM      6  C   UNL     1      13.505   7.469  19.139  0.00  0.00    +0.169 C 
ENDROOT
BRANCH   6   7
ATOM      7  C   UNL     1      12.748   7.763  18.993  0.00  0.00    +0.148 C 
BRANCH   7   8
ATOM      8  N   UNL     1      12.536   7.995  18.230  0.00  0.00    -0.199 NA
ATOM      9  C   UNL     1      11.782   8.297  18.085  0.00  0.00    +0.265 C 
ATOM     10  O   UNL     1      11.240   8.367  18.703  0.00  0.00    -0.268 OA
BRANCH   9  11
ATOM     11  C   UNL     1      11.570   8.530  17.323  0.00  0.00    +0.058 A 
ATOM     12  C   UNL     1      12.136   8.854  16.817  0.00  0.00    +0.025 A 
ATOM     13  C   UNL     1      11.924   9.086  16.055  0.00  0.00    +0.099 A 
ATOM     14  N   UNL     1      11.147   8.994  15.797  0.00  0.00    -0.242 NA
ATOM     15  C   UNL     1      10.580   8.670  16.302  0.00  0.00    +0.099 A 
ATOM     16  C   UNL     1      10.792   8.438  17.065  0.00  0.00    +0.025 A 
ENDBRANCH   9  11
ENDBRANCH   7   8
ENDBRANCH   6   7
BRANCH   3  17
ATOM     17  N   UNL     1      15.004   6.455  20.272  0.00  0.00    -0.216 NA
BRANCH  17  18
ATOM     18  C   UNL     1      15.798   6.653  20.373  0.00  0.00    +0.076 C 
ATOM     19  C   UNL     1      16.367   6.356  19.855  0.00  0.00    +0.036 C 
ATOM     20  C   UNL     1      17.162   6.554  19.957  0.00  0.00    +0.090 C 
ATOM     21  N   UNL     1      17.387   7.050  20.576  0.00  0.00    -0.218 NA
ATOM     22  C   UNL     1      16.817   7.348  21.094  0.00  0.00    +0.090 C 
ATOM     23  C   UNL     1      16.023   7.150  20.993  0.00  0.00    +0.036 C 
ENDBRANCH  17  18
ENDBRANCH   3  17
TORSDOF 5
ENDMDL
MODEL 8
REMARK VINA RESULT:      -7.0     15.906     18.456
REMARK  Name = 
REMARK  5 active torsions:
REMARK  status: ('A' for Active; 'I' for Inactive)
REMARK    1  A    between atoms: C_3  and  N_17
REMARK    2  A    between atoms: C_6  and  C_7
REMARK    3  A    between atoms: C_7  and  N_8
REMARK    4  A    between atoms: C_9  and  C_11
REMARK    5  A    between atoms: N_17  and  C_18
REMARK                            x       y       z     vdW  Elec       q    Type
REMARK                         _______ _______ _______ _____ _____    ______ ____
ROOT
ATOM      1  O   UNL     1      13.943   8.080  20.718  0.00  0.00    -0.219 OA
ATOM      2  C   UNL     1      13.394   7.645  20.281  0.00  0.00    +0.199 C 
ATOM      3  C   UNL     1      12.778   7.192  20.589  0.00  0.00    +0.135 C 
ATOM      4  C   UNL     1      12.369   6.854  19.957  0.00  0.00    +0.162 C 
ATOM      5  O   UNL     1      12.732   7.099  19.258  0.00  0.00    -0.350 OA
ATOM      6  C   UNL     1      13.366   7.588  19.458  0.00  0.00    +0.169 C 
ENDROOT
BRANCH   6   7
ATOM      7  C   UNL     1      13.881   7.956  18.929  0.00  0.00    +0.148 C 
BRANCH   7   8
ATOM      8  N   UNL     1      13.677   8.019  18.132  0.00  0.00    -0.199 NA
ATOM      9  C   UNL     1      14.049   8.579  17.654  0.00  0.00    +0.265 C 
ATOM     10  O   UNL     1      14.625   9.076  17.972  0.00  0.00    -0.268 OA
BRANCH   9  11
ATOM     11  C   UNL     1      13.845   8.642  16.857  0.00  0.00    +0.058 A 
ATOM     12  C   UNL     1      14.335   8.318  16.278  0.00  0.00    +0.025 A 
ATOM     13  C   UNL     1      14.131   8.381  15.481  0.00  0.00    +0.099 A 
ATOM     14  N   UNL     1      13.437   8.769  15.263  0.00  0.00    -0.242 NA
ATOM     15  C   UNL     1      12.946   9.094  15.842  0.00  0.00    +0.099 A 
ATOM     16  C   UNL     1      13.150   9.030  16.638  0.00  0.00    +0.025 A 
ENDBRANCH   9  11
ENDBRANCH   7   8
ENDBRANCH   6   7
BRANCH   3  17
ATOM     17  N   UNL     1      12.602   7.093  21.389  0.00  0.00    -0.216 NA
BRANCH  17  18
ATOM     18  C   UNL     1      11.820   7.133  21.647  0.00  0.00    +0.076 C 
ATOM     19  C   UNL     1      11.519   7.842  21.942  0.00  0.00    +0.036 C 
ATOM     20  C   UNL     1      10.736   7.883  22.200  0.00  0.00    +0.090 C 
ATOM     21  N   UNL     1      10.255   7.214  22.164  0.00  0.00    -0.218 NA
ATOM     22  C   UNL     1      10.556   6.504  21.869  0.00  0.00    +0.090 C 
ATOM     23  C   UNL     1      11.339   6.464  21.611  0.00  0.00    +0.036 C 
ENDBRANCH  17  18
ENDBRANCH   3  17
TORSDOF 5
ENDMDL
MODEL 9
REMARK VINA RESULT:      -6.9     17.565     19.206
REMARK  Name = 
REMARK  5 active torsions:
REMARK  status: ('A' for Active; 'I' for Inactive)
REMARK    1  A    between atoms: C_3  and  N_17
REMARK    2  A    between atoms: C_6  and  C_7
REMARK    3  A    between atoms: C_7  and  N_8
REMARK    4  A    between atoms: C_9  and  C_11
REMARK    5  A    between atoms: N_17  and  C_18
REMARK                            x       y       z     vdW  Elec       q    Type
REMARK                         _______ _______ _______ _____ _____    ______ ____
ROOT
ATOM      1  O   UNL     1      12.149   8.307  19.683  0.00  0.00    -0.219 OA
ATOM      2  C   UNL     1      12.444   7.960  18.995  0.00  0.00    +0.199 C 
ATOM      3  C   UNL     1      12.117   8.024  18.241  0.00  0.00    +0.135 C 
ATOM      4  C   UNL     1      12.589   7.592  17.720  0.00  0.00    +0.162 C 
ATOM      5  O   UNL     1      13.208   7.260  18.153  0.00  0.00    -0.350 OA
ATOM      6  C   UNL     1      13.119   7.487  18.941  0.00  0.00    +0.169 C 
ENDROOT
BRANCH   6   7
ATOM      7  C   UNL     1      13.616   7.279  19.565  0.00  0.00    +0.148 C 
BRANCH   7   8
ATOM      8  N   UNL     1      14.412   7.118  19.422  0.00  0.00    -0.199 NA
ATOM      9  C   UNL     1      14.932   7.009  20.054  0.00  0.00    +0.265 C 
ATOM     10  O   UNL     1      14.655   7.061  20.830  0.00  0.00    -0.268 OA
BRANCH   9  11
ATOM     11  C   UNL     1      15.728   6.848  19.911  0.00  0.00    +0.058 A 
ATOM     12  C   UNL     1      15.940   6.274  19.357  0.00  0.00    +0.025 A 
ATOM     13  C   UNL     1      16.736   6.113  19.213  0.00  0.00    +0.099 A 
ATOM     14  N   UNL     1      17.320   6.525  19.624  0.00  0.00    -0.242 NA
ATOM     15  C   UNL     1      17.109   7.099  20.178  0.00  0.00    +0.099 A 
ATOM     16  C   UNL     1      16.313   7.261  20.321  0.00  0.00    +0.025 A 
ENDBRANCH   9  11
ENDBRANCH   7   8
ENDBRANCH   6   7
BRANCH   3  17
ATOM     17  N   UNL     1      11.437   8.448  18.042  0.00  0.00    -0.216 NA
BRANCH  17  18
ATOM     18  C   UNL     1      11.259   8.593  17.250  0.00  0.00    +0.076 C 
ATOM     19  C   UNL     1      10.519   8.391  16.950  0.00  0.00    +0.036 C 
ATOM     20  C   UNL     1      10.340   8.537  16.157  0.00  0.00    +0.090 C 
ATOM     21  N   UNL     1      10.904   8.885  15.665  0.00  0.00    -0.218 NA
ATOM     22  C   UNL     1      11.645   9.088  15.966  0.00  0.00    +0.090 C 
ATOM     23  C   UNL     1      11.823   8.942  16.758  0.00  0.00    +0.036 C 
ENDBRANCH  17  18
ENDBRANCH   3  17
TORSDOF 5
ENDMDL
