MODEL 1
REMARK VINA RESULT:      -8.8      0.000      0.000
REMARK  Name = 
REMARK  5 active torsions:
REMARK  status: ('A' for Active; 'I' for Inactive)
REMARK    1  A    between atoms: C_2  and  N_4
REMARK    2  A    between atoms: N_7  and  C_8
REMARK    3  A    between atoms: C_8  and  C_9
REMARK    4  A    between atoms: C_12  and  N_13
REMARK    5  A    between atoms: N_13  and  C_14
REMARK                            x       y       z     vdW  Elec       q    Type
REMARK                         _______ _______ _______ _____ _____    ______ ____
ROOT
ATOM      9  C   UNL     1      -3.331   1.288  24.524  0.00  0.00    +0.169 C 
ATOM     10  O   UNL     1      -2.753   0.776  24.231  0.00  0.00    -0.350 OA
ATOM     11  C   UNL     1      -3.058   0.010  24.253  0.00  0.00    +0.162 C 
ATOM     12  C   UNL     1      -3.823   0.048  24.560  0.00  0.00    +0.135 C 
ATOM     20  C   UNL     1      -3.992   0.838  24.727  0.00  0.00    +0.199 C 
ATOM     21  O   UNL     1      -4.698   1.127  25.042  0.00  0.00    -0.219 OA
ENDROOT
BRANCH   9   8
ATOM      8  C   UNL     1      -3.259   2.106  24.600  0.00  0.00    +0.149 C 
BRANCH   8   7
ATOM      4  N   UNL     1      -1.836   3.570  25.371  0.00  0.00    -0.189 NA
ATOM      5  C   UNL     1      -2.489   3.247  24.986  0.00  0.00    +0.339 C 
ATOM      6  O   UNL     1      -3.028   3.741  24.602  0.00  0.00    -0.249 OA
ATOM      7  N   UNL     1      -2.606   2.430  24.984  0.00  0.00    -0.185 NA
BRANCH   4   2
ATOM      1  C   UNL     1      -2.263   4.880  25.749  0.00  0.00    +0.023 C 
ATOM      2  C   UNL     1      -1.720   4.387  25.373  0.00  0.00    +0.097 C 
ATOM      3  C   UNL     1      -1.058   4.710  24.998  0.00  0.00    +0.023 C 
ENDBRANCH   4   2
ENDBRANCH   8   7
ENDBRANCH   9   8
BRANCH  12  13
ATOM     13  N   UNL     1      -4.331  -0.592  24.678  0.00  0.00    -0.215 NA
BRANCH  13  14
ATOM     14  C   UNL     1      -4.056  -1.362  24.565  0.00  0.00    +0.078 C 
ATOM     15  C   UNL     1      -4.244  -1.770  23.874  0.00  0.00    +0.050 C 
ATOM     16  C   UNL     1      -3.970  -2.540  23.761  0.00  0.00    +0.144 C 
ATOM     17  O   UNL     1      -3.508  -2.902  24.341  0.00  0.00    -0.354 OA
ATOM     18  C   UNL     1      -3.320  -2.494  25.033  0.00  0.00    +0.144 C 
ATOM     19  C   UNL     1      -3.594  -1.724  25.145  0.00  0.00    +0.050 C 
ENDBRANCH  13  14
ENDBRANCH  12  13
TORSDOF 5
ENDMDL
MODEL 2
REMARK VINA RESULT:      -8.5      1.248      5.442
REMARK  Name = 
REMARK  5 active torsions:
REMARK  status: ('A' for Active; 'I' for Inactive)
REMARK    1  A    between atoms: C_2  and  N_4
REMARK    2  A    between atoms: N_7  and  C_8
REMARK    3  A    between atoms: C_8  and  C_9
REMARK    4  A    between atoms: C_12  and  N_13
REMARK    5  A    between atoms: N_13  and  C_14
REMARK                            x       y       z     vdW  Elec       q    Type
REMARK                         _______ _______ _______ _____ _____    ______ ____
ROOT
ATOM      9  C   UNL     1      -2.103   1.158  24.890  0.00  0.00    +0.169 C 
ATOM     10  O   UNL     1      -2.624   1.737  24.616  0.00  0.00    -0.350 OA
ATOM     11  C   UNL     1      -2.359   2.468  24.889  0.00  0.00    +0.162 C 
ATOM     12  C   UNL     1      -1.674   2.342  25.332  0.00  0.00    +0.135 C 
ATOM     20  C   UNL     1      -1.516   1.532  25.332  0.00  0.00    +0.199 C 
ATOM     21  O   UNL     1      -0.882   1.162  25.709  0.00  0.00    -0.219 OA
ENDROOT
BRANCH   9   8
ATOM      8  C   UNL     1      -2.160   0.348  24.746  0.00  0.00    +0.149 C 
BRANCH   8   7
ATOM      4  N   UNL     1      -3.679  -1.219  24.717  0.00  0.00    -0.189 NA
ATOM      5  C   UNL     1      -2.955  -0.834  24.629  0.00  0.00    +0.339 C 
ATOM      6  O   UNL     1      -2.302  -1.245  24.336  0.00  0.00    -0.249 OA
ATOM      7  N   UNL     1      -2.883  -0.037  24.834  0.00  0.00    -0.185 NA
BRANCH   4   2
ATOM      1  C   UNL     1      -3.459  -2.599  25.017  0.00  0.00    +0.023 C 
ATOM      2  C   UNL     1      -3.751  -2.015  24.513  0.00  0.00    +0.097 C 
ATOM      3  C   UNL     1      -4.115  -2.227  23.802  0.00  0.00    +0.023 C 
ENDBRANCH   4   2
ENDBRANCH   8   7
ENDBRANCH   9   8
BRANCH  12  13
ATOM     13  N   UNL     1      -1.226   2.924  25.708  0.00  0.00    -0.215 NA
BRANCH  13  14
ATOM     14  C   UNL     1      -1.284   3.711  25.465  0.00  0.00    +0.078 C 
ATOM     15  C   UNL     1      -0.709   4.032  24.969  0.00  0.00    +0.050 C 
ATOM     16  C   UNL     1      -0.767   4.819  24.726  0.00  0.00    +0.144 C 
ATOM     17  O   UNL     1      -1.399   5.283  24.979  0.00  0.00    -0.354 OA
ATOM     18  C   UNL     1      -1.975   4.961  25.476  0.00  0.00    +0.144 C 
ATOM     19  C   UNL     1      -1.917   4.175  25.718  0.00  0.00    +0.050 C 
ENDBRANCH  13  14
ENDBRANCH  12  13
TORSDOF 5
ENDMDL
MODEL 3
REMARK VINA RESULT:      -6.9     17.954     19.697
REMARK  Name = 
REMARK  5 active torsions:
REMARK  status: ('A' for Active; 'I' for Inactive)
REMARK    1  A    between atoms: C_2  and  N_4
REMARK    2  A    between atoms: N_7  and  C_8
REMARK    3  A    between atoms: C_8  and  C_9
REMARK    4  A    between atoms: C_12  and  N_13
REMARK    5  A    between atoms: N_13  and  C_14
REMARK                            x       y       z     vdW  Elec       q    Type
REMARK                         _______ _______ _______ _____ _____    ______ ____
ROOT
ATOM      9  C   UNL     1      13.508   7.528  18.445  0.00  0.00    +0.169 C 
ATOM     10  O   UNL     1      14.190   7.929  18.209  0.00  0.00    -0.350 OA
ATOM     11  C   UNL     1      14.801   7.713  18.720  0.00  0.00    +0.162 C 
ATOM     12  C   UNL     1      14.496   7.180  19.271  0.00  0.00    +0.135 C 
ATOM     20  C   UNL     1      13.697   7.065  19.101  0.00  0.00    +0.199 C 
ATOM     21  O   UNL     1      13.179   6.574  19.514  0.00  0.00    -0.219 OA
ENDROOT
BRANCH   9   8
ATOM      8  C   UNL     1      12.767   7.582  18.086  0.00  0.00    +0.149 C 
BRANCH   8   7
ATOM      4  N   UNL     1      11.694   8.913  16.730  0.00  0.00    -0.189 NA
ATOM      5  C   UNL     1      11.890   8.247  17.174  0.00  0.00    +0.339 C 
ATOM      6  O   UNL     1      11.407   7.577  17.151  0.00  0.00    -0.249 OA
ATOM      7  N   UNL     1      12.570   8.248  17.642  0.00  0.00    -0.185 NA
BRANCH   4   2
ATOM      1  C   UNL     1      11.065   9.094  15.459  0.00  0.00    +0.023 C 
ATOM      2  C   UNL     1      11.014   8.911  16.262  0.00  0.00    +0.097 C 
ATOM      3  C   UNL     1      10.282   8.727  16.598  0.00  0.00    +0.023 C 
ENDBRANCH   4   2
ENDBRANCH   8   7
ENDBRANCH   9   8
BRANCH  12  13
ATOM     13  N   UNL     1      14.917   6.823  19.884  0.00  0.00    -0.215 NA
BRANCH  13  14
ATOM     14  C   UNL     1      15.740   6.768  19.843  0.00  0.00    +0.078 C 
ATOM     15  C   UNL     1      16.210   7.310  20.248  0.00  0.00    +0.050 C 
ATOM     16  C   UNL     1      17.033   7.255  20.206  0.00  0.00    +0.144 C 
ATOM     17  O   UNL     1      17.384   6.658  19.759  0.00  0.00    -0.354 OA
ATOM     18  C   UNL     1      16.913   6.115  19.353  0.00  0.00    +0.144 C 
ATOM     19  C   UNL     1      16.091   6.171  19.395  0.00  0.00    +0.050 C 
ENDBRANCH  13  14
ENDBRANCH  12  13
TORSDOF 5
ENDMDL
MODEL 4
REMARK VINA RESULT:      -6.5     18.016     19.609
REMARK  Name = 
REMARK  5 active torsions:
REMARK  status: ('A' for Active; 'I' for Inactive)
REMARK    1  A    between atoms: C_2  and  N_4
REMARK    2  A    between atoms: N_7  and  C_8
REMARK    3  A    between atoms: C_8  and  C_9
REMARK    4  A    between atoms: C_12  and  N_13
REMARK    5  A    between atoms: N_13  and  C_14
REMARK                            x       y       z     vdW  Elec       q    Type
REMARK                         _______ _______ _______ _____ _____    ______ ____
ROOT
ATOM      9  C   UNL     1      13.739   7.747  18.587  0.00  0.00    +0.169 C 
ATOM     10  O   UNL     1      13.417   7.141  18.129  0.00  0.00    -0.350 OA
ATOM     11  C   UNL     1      12.680   7.393  17.856  0.00  0.00    +0.162 C 
ATOM     12  C   UNL     1      12.548   8.154  18.147  0.00  0.00    +0.135 C 
ATOM     20  C   UNL     1      13.202   8.372  18.599  0.00  0.00    +0.199 C 
ATOM     21  O   UNL     1      13.301   9.091  18.992  0.00  0.00    -0.219 OA
ENDROOT
BRANCH   9   8
ATOM      8  C   UNL     1      14.471   7.729  18.968  0.00  0.00    +0.149 C 
BRANCH   8   7
ATOM      4  N   UNL     1      15.905   6.250  19.687  0.00  0.00    -0.189 NA
ATOM      5  C   UNL     1      15.584   6.969  19.443  0.00  0.00    +0.339 C 
ATOM      6  O   UNL     1      16.054   7.648  19.431  0.00  0.00    -0.249 OA
ATOM      7  N   UNL     1      14.793   7.011  19.211  0.00  0.00    -0.185 NA
BRANCH   4   2
ATOM      1  C   UNL     1      16.897   6.277  20.716  0.00  0.00    +0.023 C 
ATOM      2  C   UNL     1      16.696   6.208  19.919  0.00  0.00    +0.097 C 
ATOM      3  C   UNL     1      17.287   6.098  19.352  0.00  0.00    +0.023 C 
ENDBRANCH   4   2
ENDBRANCH   8   7
ENDBRANCH   9   8
BRANCH  12  13
ATOM     13  N   UNL     1      11.877   8.614  18.009  0.00  0.00    -0.215 NA
BRANCH  13  14
ATOM     14  C   UNL     1      11.548   8.650  17.253  0.00  0.00    +0.078 C 
ATOM     15  C   UNL     1      10.830   8.276  17.098  0.00  0.00    +0.050 C 
ATOM     16  C   UNL     1      10.501   8.311  16.341  0.00  0.00    +0.144 C 
ATOM     17  O   UNL     1      10.892   8.720  15.741  0.00  0.00    -0.354 OA
ATOM     18  C   UNL     1      11.611   9.094  15.897  0.00  0.00    +0.144 C 
ATOM     19  C   UNL     1      11.939   9.058  16.653  0.00  0.00    +0.050 C 
ENDBRANCH  13  14
ENDBRANCH  12  13
TORSDOF 5
ENDMDL
MODEL 5
REMARK VINA RESULT:      -6.5     16.678     19.171
REMARK  Name = 
REMARK  5 active torsions:
REMARK  status: ('A' for Active; 'I' for Inactive)
REMARK    1  A    between atoms: C_2  and  N_4
REMARK    2  A    between atoms: N_7  and  C_8
REMARK    3  A    between atoms: C_8  and  C_9
REMARK    4  A    between atoms: C_12  and  N_13
REMARK    5  A    between atoms: N_13  and  C_14
REMARK                            x       y       z     vdW  Elec       q    Type
REMARK                         _______ _______ _______ _____ _____    ______ ____
ROOT
ATOM      9  C   UNL     1      13.569   7.485  20.187  0.00  0.00    +0.169 C 
ATOM     10  O   UNL     1      13.835   6.736  20.410  0.00  0.00    -0.350 OA
ATOM     11  C   UNL     1      14.591   6.631  20.095  0.00  0.00    +0.162 C 
ATOM     12  C   UNL     1      14.791   7.314  19.679  0.00  0.00    +0.135 C 
ATOM     20  C   UNL     1      14.159   7.842  19.735  0.00  0.00    +0.199 C 
ATOM     21  O   UNL     1      14.125   8.595  19.399  0.00  0.00    -0.219 OA
ENDROOT
BRANCH   9   8
ATOM      8  C   UNL     1      12.840   7.817  20.382  0.00  0.00    +0.149 C 
BRANCH   8   7
ATOM      4  N   UNL     1      11.570   8.068  22.139  0.00  0.00    -0.189 NA
ATOM      5  C   UNL     1      11.816   8.044  21.353  0.00  0.00    +0.339 C 
ATOM      6  O   UNL     1      11.283   8.225  20.748  0.00  0.00    -0.249 OA
ATOM      7  N   UNL     1      12.594   7.841  21.169  0.00  0.00    -0.185 NA
BRANCH   4   2
ATOM      1  C   UNL     1      10.217   7.685  22.393  0.00  0.00    +0.023 C 
ATOM      2  C   UNL     1      10.791   8.272  22.323  0.00  0.00    +0.097 C 
ATOM      3  C   UNL     1      10.589   9.064  22.437  0.00  0.00    +0.023 C 
ENDBRANCH   4   2
ENDBRANCH   8   7
ENDBRANCH   9   8
BRANCH  12  13
ATOM     13  N   UNL     1      15.499   7.447  19.276  0.00  0.00    -0.215 NA
BRANCH  13  14
ATOM     14  C   UNL     1      16.135   6.930  19.378  0.00  0.00    +0.078 C 
ATOM     15  C   UNL     1      16.650   7.032  20.014  0.00  0.00    +0.050 C 
ATOM     16  C   UNL     1      17.286   6.515  20.116  0.00  0.00    +0.144 C 
ATOM     17  O   UNL     1      17.405   5.897  19.583  0.00  0.00    -0.354 OA
ATOM     18  C   UNL     1      16.889   5.796  18.947  0.00  0.00    +0.144 C 
ATOM     19  C   UNL     1      16.254   6.312  18.845  0.00  0.00    +0.050 C 
ENDBRANCH  13  14
ENDBRANCH  12  13
TORSDOF 5
ENDMDL
MODEL 6
REMARK VINA RESULT:      -6.3     15.884     18.352
REMARK  Name = 
REMARK  5 active torsions:
REMARK  status: ('A' for Active; 'I' for Inactive)
REMARK    1  A    between atoms: C_2  and  N_4
REMARK    2  A    between atoms: N_7  and  C_8
REMARK    3  A    between atoms: C_8  and  C_9
REMARK    4  A    between atoms: C_12  and  N_13
REMARK    5  A    between atoms: N_13  and  C_14
REMARK                            x       y       z     vdW  Elec       q    Type
REMARK                         _______ _______ _______ _____ _____    ______ ____
ROOT
ATOM      9  C   UNL     1      13.106   7.367  19.289  0.00  0.00    +0.169 C 
ATOM     10  O   UNL     1      12.437   6.901  19.157  0.00  0.00    -0.350 OA
ATOM     11  C   UNL     1      12.119   6.699  19.891  0.00  0.00    +0.162 C 
ATOM     12  C   UNL     1      12.591   7.040  20.476  0.00  0.00    +0.135 C 
ATOM     20  C   UNL     1      13.201   7.453  20.104  0.00  0.00    +0.199 C 
ATOM     21  O   UNL     1      13.800   7.876  20.481  0.00  0.00    -0.219 OA
ENDROOT
BRANCH   9   8
ATOM      8  C   UNL     1      13.594   7.690  18.707  0.00  0.00    +0.149 C 
BRANCH   8   7
ATOM      4  N   UNL     1      13.567   8.010  16.549  0.00  0.00    -0.189 NA
ATOM      5  C   UNL     1      13.769   8.083  17.345  0.00  0.00    +0.339 C 
ATOM      6  O   UNL     1      14.349   8.623  17.575  0.00  0.00    -0.249 OA
ATOM      7  N   UNL     1      13.392   7.616  17.912  0.00  0.00    -0.185 NA
BRANCH   4   2
ATOM      1  C   UNL     1      13.536   9.094  15.618  0.00  0.00    +0.023 C 
ATOM      2  C   UNL     1      13.944   8.476  15.982  0.00  0.00    +0.097 C 
ATOM      3  C   UNL     1      14.730   8.324  15.779  0.00  0.00    +0.023 C 
ENDBRANCH   4   2
ENDBRANCH   8   7
ENDBRANCH   9   8
BRANCH  12  13
ATOM     13  N   UNL     1      12.473   6.979  21.291  0.00  0.00    -0.215 NA
BRANCH  13  14
ATOM     14  C   UNL     1      11.729   7.135  21.613  0.00  0.00    +0.078 C 
ATOM     15  C   UNL     1      11.153   6.545  21.626  0.00  0.00    +0.050 C 
ATOM     16  C   UNL     1      10.409   6.701  21.948  0.00  0.00    +0.144 C 
ATOM     17  O   UNL     1      10.242   7.447  22.256  0.00  0.00    -0.354 OA
ATOM     18  C   UNL     1      10.819   8.038  22.243  0.00  0.00    +0.144 C 
ATOM     19  C   UNL     1      11.562   7.881  21.921  0.00  0.00    +0.050 C 
ENDBRANCH  13  14
ENDBRANCH  12  13
TORSDOF 5
ENDMDL
MODEL 7
REMARK VINA RESULT:      -6.2     16.250     18.906
REMARK  Name = 
REMARK  5 active torsions:
REMARK  status: ('A' for Active; 'I' for Inactive)
REMARK    1  A    between atoms: C_2  and  N_4
REMARK    2  A    between atoms: N_7  and  C_8
REMARK    3  A    between atoms: C_8  and  C_9
REMARK    4  A    between atoms: C_12  and  N_13
REMARK    5  A    between atoms: N_13  and  C_14
REMARK                            x       y       z     vdW  Elec       q    Type
REMARK                         _______ _______ _______ _____ _____    ______ ____
ROOT
ATOM      9  C   UNL     1      13.112   7.619  19.087  0.00  0.00    +0.169 C 
ATOM     10  O   UNL     1      13.129   7.111  18.436  0.00  0.00    -0.350 OA
ATOM     11  C   UNL     1      13.407   7.539  17.788  0.00  0.00    +0.162 C 
ATOM     12  C   UNL     1      13.562   8.310  18.038  0.00  0.00    +0.135 C 
ATOM     20  C   UNL     1      13.379   8.359  18.841  0.00  0.00    +0.199 C 
ATOM     21  O   UNL     1      13.452   9.031  19.314  0.00  0.00    -0.219 OA
ENDROOT
BRANCH   9   8
ATOM      8  C   UNL     1      12.869   7.420  19.850  0.00  0.00    +0.149 C 
BRANCH   8   7
ATOM      4  N   UNL     1      11.092   6.672  20.873  0.00  0.00    -0.189 NA
ATOM      5  C   UNL     1      11.867   6.918  20.737  0.00  0.00    +0.339 C 
ATOM      6  O   UNL     1      12.417   6.911  21.354  0.00  0.00    -0.249 OA
ATOM      7  N   UNL     1      12.094   7.173  19.986  0.00  0.00    -0.185 NA
BRANCH   4   2
ATOM      1  C   UNL     1      11.133   5.693  21.914  0.00  0.00    +0.023 C 
ATOM      2  C   UNL     1      10.865   6.417  21.624  0.00  0.00    +0.097 C 
ATOM      3  C   UNL     1      10.369   6.889  22.087  0.00  0.00    +0.023 C 
ENDBRANCH   4   2
ENDBRANCH   8   7
ENDBRANCH   9   8
BRANCH  12  13
ATOM     13  N   UNL     1      13.849   8.924  17.567  0.00  0.00    -0.215 NA
BRANCH  13  14
ATOM     14  C   UNL     1      13.726   8.910  16.751  0.00  0.00    +0.078 C 
ATOM     15  C   UNL     1      12.983   9.094  16.444  0.00  0.00    +0.050 C 
ATOM     16  C   UNL     1      12.860   9.080  15.628  0.00  0.00    +0.144 C 
ATOM     17  O   UNL     1      13.479   8.884  15.120  0.00  0.00    -0.354 OA
ATOM     18  C   UNL     1      14.222   8.700  15.428  0.00  0.00    +0.144 C 
ATOM     19  C   UNL     1      14.345   8.713  16.244  0.00  0.00    +0.050 C 
ENDBRANCH  13  14
ENDBRANCH  12  13
TORSDOF 5
ENDMDL
