MODEL 1
REMARK VINA RESULT:     -11.8      0.000      0.000
REMARK  Name = 
REMARK  4 active torsions:
REMARK  status: ('A' for Active; 'I' for Inactive)
REMARK    1  A    between atoms: O_2  and  C_3
REMARK    2  A    between atoms: C_3  and  C_4
REMARK    3  A    between atoms: N_6  and  C_7
REMARK    4  A    between atoms: C_19  and  C_21
REMARK                            x       y       z     vdW  Elec       q    Type
REMARK                         _______ _______ _______ _____ _____    ______ ____
ROOT
ATOM      7  C   UNL     1      -3.169   3.677  24.795  0.00  0.00    +0.117 C 
ATOM      8  C   UNL     1      -3.944   3.726  25.074  0.00  0.00    +0.053 C 
ATOM      9  C   UNL     1      -4.253   2.961  25.104  0.00  0.00    +0.155 C 
ATOM     10  N   UNL     1      -3.668   2.439  24.842  0.00  0.00    -0.270 N 
ATOM     11  C   UNL     1      -2.998   2.883  24.651  0.00  0.00    +0.115 C 
ATOM     12  C   UNL     1      -3.706   1.618  24.770  0.00  0.00    +0.246 C 
ATOM     13  O   UNL     1      -3.022   1.252  24.490  0.00  0.00    -0.273 OA
ATOM     14  C   UNL     1      -4.337   1.116  24.942  0.00  0.00    +0.172 C 
ATOM     15  C   UNL     1      -5.087   1.310  25.227  0.00  0.00    +0.124 C 
ATOM     16  C   UNL     1      -5.518   0.611  25.307  0.00  0.00    +0.045 C 
ATOM     17  C   UNL     1      -5.035  -0.015  25.071  0.00  0.00    +0.096 C 
ATOM     18  N   UNL     1      -4.305   0.297  24.845  0.00  0.00    -0.272 N 
ATOM     19  C   UNL     1      -3.658  -0.133  24.571  0.00  0.00    +0.225 C 
ATOM     20  O   UNL     1      -2.961   0.256  24.365  0.00  0.00    -0.275 OA
ATOM     27  N   UNL     1      -5.390   2.055  25.412  0.00  0.00    -0.204 NA
ATOM     28  C   UNL     1      -5.018   2.790  25.357  0.00  0.00    +0.260 C 
ATOM     29  O   UNL     1      -5.473   3.438  25.586  0.00  0.00    -0.272 OA
ENDROOT
BRANCH  19  21
ATOM     21  C   UNL     1      -3.707  -0.955  24.503  0.00  0.00    +0.077 C 
ATOM     22  C   UNL     1      -4.048  -1.293  23.832  0.00  0.00    +0.009 C 
ATOM     23  C   UNL     1      -4.097  -2.114  23.764  0.00  0.00    +0.000 C 
ATOM     24  C   UNL     1      -3.806  -2.596  24.367  0.00  0.00    +0.000 C 
ATOM     25  C   UNL     1      -3.465  -2.257  25.038  0.00  0.00    +0.000 C 
ATOM     26  C   UNL     1      -3.416  -1.437  25.106  0.00  0.00    +0.009 C 
ENDBRANCH  19  21
BRANCH   7   6
ATOM      4  C   UNL     1      -2.082   4.486  25.246  0.00  0.00    +0.272 C 
ATOM      5  O   UNL     1      -2.024   4.028  25.929  0.00  0.00    -0.271 OA
ATOM      6  N   UNL     1      -2.655   4.311  24.678  0.00  0.00    -0.203 NA
BRANCH   4   3
ATOM      3  C   UNL     1      -1.567   5.121  25.131  0.00  0.00    +0.229 C 
BRANCH   3   2
ATOM      1  C   UNL     1      -0.294   5.517  24.617  0.00  0.00    +0.175 C 
ATOM      2  O   UNL     1      -0.758   4.986  25.044  0.00  0.00    -0.342 OA
ENDBRANCH   3   2
ENDBRANCH   4   3
ENDBRANCH   7   6
TORSDOF 4
ENDMDL
MODEL 2
REMARK VINA RESULT:     -11.0      1.095      4.989
REMARK  Name = 
REMARK  4 active torsions:
REMARK  status: ('A' for Active; 'I' for Inactive)
REMARK    1  A    between atoms: O_2  and  C_3
REMARK    2  A    between atoms: C_3  and  C_4
REMARK    3  A    between atoms: N_6  and  C_7
REMARK    4  A    between atoms: C_19  and  C_21
REMARK                            x       y       z     vdW  Elec       q    Type
REMARK                         _______ _______ _______ _____ _____    ______ ____
ROOT
ATOM      7  C   UNL     1      -4.118  -0.085  25.010  0.00  0.00    +0.117 C 
ATOM      8  C   UNL     1      -4.805   0.359  24.896  0.00  0.00    +0.053 C 
ATOM      9  C   UNL     1      -4.587   1.153  24.839  0.00  0.00    +0.155 C 
ATOM     10  N   UNL     1      -3.767   1.200  24.919  0.00  0.00    -0.270 N 
ATOM     11  C   UNL     1      -3.477   0.434  25.024  0.00  0.00    +0.115 C 
ATOM     12  C   UNL     1      -3.286   1.869  24.901  0.00  0.00    +0.246 C 
ATOM     13  O   UNL     1      -2.478   1.732  24.997  0.00  0.00    -0.273 OA
ATOM     14  C   UNL     1      -3.505   2.658  24.801  0.00  0.00    +0.172 C 
ATOM     15  C   UNL     1      -4.261   2.972  24.692  0.00  0.00    +0.124 C 
ATOM     16  C   UNL     1      -4.189   3.790  24.618  0.00  0.00    +0.045 C 
ATOM     17  C   UNL     1      -3.389   3.983  24.681  0.00  0.00    +0.096 C 
ATOM     18  N   UNL     1      -2.967   3.282  24.794  0.00  0.00    -0.272 N 
ATOM     19  C   UNL     1      -2.150   3.218  24.883  0.00  0.00    +0.225 C 
ATOM     20  O   UNL     1      -1.803   2.478  24.992  0.00  0.00    -0.275 OA
ATOM     27  N   UNL     1      -4.983   2.574  24.658  0.00  0.00    -0.204 NA
ATOM     28  C   UNL     1      -5.129   1.764  24.723  0.00  0.00    +0.260 C 
ATOM     29  O   UNL     1      -5.919   1.537  24.665  0.00  0.00    -0.272 OA
ENDROOT
BRANCH  19  21
ATOM     21  C   UNL     1      -1.678   3.896  24.864  0.00  0.00    +0.077 C 
ATOM     22  C   UNL     1      -1.070   3.959  24.310  0.00  0.00    +0.009 C 
ATOM     23  C   UNL     1      -0.598   4.636  24.291  0.00  0.00    +0.000 C 
ATOM     24  C   UNL     1      -0.735   5.249  24.826  0.00  0.00    +0.000 C 
ATOM     25  C   UNL     1      -1.344   5.185  25.380  0.00  0.00    +0.000 C 
ATOM     26  C   UNL     1      -1.815   4.509  25.399  0.00  0.00    +0.009 C 
ENDBRANCH  19  21
BRANCH   7   6
ATOM      4  C   UNL     1      -3.999  -1.385  24.429  0.00  0.00    +0.272 C 
ATOM      5  O   UNL     1      -3.957  -1.046  23.679  0.00  0.00    -0.271 OA
ATOM      6  N   UNL     1      -4.080  -0.905  25.095  0.00  0.00    -0.203 NA
BRANCH   4   3
ATOM      3  C   UNL     1      -3.960  -2.205  24.513  0.00  0.00    +0.229 C 
BRANCH   3   2
ATOM      1  C   UNL     1      -3.122  -3.362  24.533  0.00  0.00    +0.175 C 
ATOM      2  O   UNL     1      -3.308  -2.620  24.225  0.00  0.00    -0.342 OA
ENDBRANCH   3   2
ENDBRANCH   4   3
ENDBRANCH   7   6
TORSDOF 4
ENDMDL
MODEL 3
REMARK VINA RESULT:     -10.6      2.052      2.902
REMARK  Name = 
REMARK  4 active torsions:
REMARK  status: ('A' for Active; 'I' for Inactive)
REMARK    1  A    between atoms: O_2  and  C_3
REMARK    2  A    between atoms: C_3  and  C_4
REMARK    3  A    between atoms: N_6  and  C_7
REMARK    4  A    between atoms: C_19  and  C_21
REMARK                            x       y       z     vdW  Elec       q    Type
REMARK                         _______ _______ _______ _____ _____    ______ ____
ROOT
ATOM      7  C   UNL     1      -1.224   2.638  25.415  0.00  0.00    +0.117 C 
ATOM      8  C   UNL     1      -0.511   2.323  25.144  0.00  0.00    +0.053 C 
ATOM      9  C   UNL     1      -0.643   1.535  24.937  0.00  0.00    +0.155 C 
ATOM     10  N   UNL     1      -1.438   1.363  25.081  0.00  0.00    -0.270 N 
ATOM     11  C   UNL     1      -1.797   2.045  25.376  0.00  0.00    +0.115 C 
ATOM     12  C   UNL     1      -1.840   0.652  24.964  0.00  0.00    +0.246 C 
ATOM     13  O   UNL     1      -2.640   0.657  25.163  0.00  0.00    -0.273 OA
ATOM     14  C   UNL     1      -1.547  -0.063  24.675  0.00  0.00    +0.172 C 
ATOM     15  C   UNL     1      -0.779  -0.244  24.431  0.00  0.00    +0.124 C 
ATOM     16  C   UNL     1      -0.767  -1.032  24.190  0.00  0.00    +0.045 C 
ATOM     17  C   UNL     1      -1.527  -1.339  24.283  0.00  0.00    +0.096 C 
ATOM     18  N   UNL     1      -2.009  -0.739  24.584  0.00  0.00    -0.272 N 
ATOM     19  C   UNL     1      -2.811  -0.806  24.761  0.00  0.00    +0.225 C 
ATOM     20  O   UNL     1      -3.223  -0.157  25.059  0.00  0.00    -0.275 OA
ATOM     27  N   UNL     1      -0.115   0.247  24.417  0.00  0.00    -0.204 NA
ATOM     28  C   UNL     1      -0.055   1.038  24.642  0.00  0.00    +0.260 C 
ATOM     29  O   UNL     1       0.693   1.377  24.561  0.00  0.00    -0.272 OA
ENDROOT
BRANCH  19  21
ATOM     21  C   UNL     1      -3.203  -1.522  24.640  0.00  0.00    +0.077 C 
ATOM     22  C   UNL     1      -3.691  -1.620  23.981  0.00  0.00    +0.009 C 
ATOM     23  C   UNL     1      -4.082  -2.336  23.860  0.00  0.00    +0.000 C 
ATOM     24  C   UNL     1      -3.986  -2.954  24.398  0.00  0.00    +0.000 C 
ATOM     25  C   UNL     1      -3.498  -2.857  25.056  0.00  0.00    +0.000 C 
ATOM     26  C   UNL     1      -3.107  -2.141  25.178  0.00  0.00    +0.009 C 
ENDBRANCH  19  21
BRANCH   7   6
ATOM      4  C   UNL     1      -1.619   3.986  25.156  0.00  0.00    +0.272 C 
ATOM      5  O   UNL     1      -1.774   3.789  24.370  0.00  0.00    -0.271 OA
ATOM      6  N   UNL     1      -1.344   3.410  25.679  0.00  0.00    -0.203 NA
BRANCH   4   3
ATOM      3  C   UNL     1      -1.739   4.759  25.418  0.00  0.00    +0.229 C 
BRANCH   3   2
ATOM      1  C   UNL     1      -1.709   6.139  25.049  0.00  0.00    +0.175 C 
ATOM      2  O   UNL     1      -1.368   5.388  25.036  0.00  0.00    -0.342 OA
ENDBRANCH   3   2
ENDBRANCH   4   3
ENDBRANCH   7   6
TORSDOF 4
ENDMDL
MODEL 4
REMARK VINA RESULT:     -10.5      2.812      4.326
REMARK  Name = 
REMARK  4 active torsions:
REMARK  status: ('A' for Active; 'I' for Inactive)
REMARK    1  A    between atoms: O_2  and  C_3
REMARK    2  A    between atoms: C_3  and  C_4
REMARK    3  A    between atoms: N_6  and  C_7
REMARK    4  A    between atoms: C_19  and  C_21
REMARK                            x       y       z     vdW  Elec       q    Type
REMARK                         _______ _______ _______ _____ _____    ______ ____
ROOT
ATOM      7  C   UNL     1      -0.250   0.059  24.242  0.00  0.00    +0.117 C 
ATOM      8  C   UNL     1      -0.510  -0.691  24.471  0.00  0.00    +0.053 C 
ATOM      9  C   UNL     1      -1.310  -0.634  24.666  0.00  0.00    +0.155 C 
ATOM     10  N   UNL     1      -1.544   0.150  24.558  0.00  0.00    -0.270 N 
ATOM     11  C   UNL     1      -0.888   0.578  24.296  0.00  0.00    +0.115 C 
ATOM     12  C   UNL     1      -2.288   0.486  24.679  0.00  0.00    +0.246 C 
ATOM     13  O   UNL     1      -2.346   1.294  24.520  0.00  0.00    -0.273 OA
ATOM     14  C   UNL     1      -2.981   0.121  24.937  0.00  0.00    +0.172 C 
ATOM     15  C   UNL     1      -3.102  -0.670  25.139  0.00  0.00    +0.124 C 
ATOM     16  C   UNL     1      -3.890  -0.759  25.363  0.00  0.00    +0.045 C 
ATOM     17  C   UNL     1      -4.258  -0.022  25.299  0.00  0.00    +0.096 C 
ATOM     18  N   UNL     1      -3.695   0.521  25.036  0.00  0.00    -0.272 N 
ATOM     19  C   UNL     1      -3.824   1.324  24.897  0.00  0.00    +0.225 C 
ATOM     20  O   UNL     1      -3.206   1.802  24.634  0.00  0.00    -0.275 OA
ATOM     27  N   UNL     1      -2.559  -1.292  25.132  0.00  0.00    -0.204 NA
ATOM     28  C   UNL     1      -1.761  -1.276  24.921  0.00  0.00    +0.260 C 
ATOM     29  O   UNL     1      -1.363  -1.996  24.973  0.00  0.00    -0.272 OA
ENDROOT
BRANCH  19  21
ATOM     21  C   UNL     1      -4.573   1.649  25.022  0.00  0.00    +0.077 C 
ATOM     22  C   UNL     1      -4.708   2.136  25.674  0.00  0.00    +0.009 C 
ATOM     23  C   UNL     1      -5.456   2.461  25.798  0.00  0.00    +0.000 C 
ATOM     24  C   UNL     1      -6.069   2.299  25.270  0.00  0.00    +0.000 C 
ATOM     25  C   UNL     1      -5.934   1.811  24.618  0.00  0.00    +0.000 C 
ATOM     26  C   UNL     1      -5.186   1.486  24.494  0.00  0.00    +0.009 C 
ENDBRANCH  19  21
BRANCH   7   6
ATOM      4  C   UNL     1       0.753   0.105  23.227  0.00  0.00    +0.272 C 
ATOM      5  O   UNL     1       0.228  -0.239  22.692  0.00  0.00    -0.271 OA
ATOM      6  N   UNL     1       0.514   0.254  24.002  0.00  0.00    -0.203 NA
BRANCH   4   3
ATOM      3  C   UNL     1       1.518   0.301  22.985  0.00  0.00    +0.229 C 
BRANCH   3   2
ATOM      1  C   UNL     1       2.662   0.037  22.171  0.00  0.00    +0.175 C 
ATOM      2  O   UNL     1       1.877  -0.117  22.372  0.00  0.00    -0.342 OA
ENDBRANCH   3   2
ENDBRANCH   4   3
ENDBRANCH   7   6
TORSDOF 4
ENDMDL
MODEL 5
REMARK VINA RESULT:      -9.9      1.997      5.615
REMARK  Name = 
REMARK  4 active torsions:
REMARK  status: ('A' for Active; 'I' for Inactive)
REMARK    1  A    between atoms: O_2  and  C_3
REMARK    2  A    between atoms: C_3  and  C_4
REMARK    3  A    between atoms: N_6  and  C_7
REMARK    4  A    between atoms: C_19  and  C_21
REMARK                            x       y       z     vdW  Elec       q    Type
REMARK                         _______ _______ _______ _____ _____    ______ ____
ROOT
ATOM      7  C   UNL     1      -2.597  -0.511  24.340  0.00  0.00    +0.117 C 
ATOM      8  C   UNL     1      -2.007  -0.697  24.886  0.00  0.00    +0.053 C 
ATOM      9  C   UNL     1      -1.658   0.008  25.133  0.00  0.00    +0.155 C 
ATOM     10  N   UNL     1      -2.033   0.630  24.740  0.00  0.00    -0.270 N 
ATOM     11  C   UNL     1      -2.613   0.308  24.250  0.00  0.00    +0.115 C 
ATOM     12  C   UNL     1      -1.884   1.440  24.798  0.00  0.00    +0.246 C 
ATOM     13  O   UNL     1      -2.358   1.925  24.329  0.00  0.00    -0.273 OA
ATOM     14  C   UNL     1      -1.324   1.827  25.264  0.00  0.00    +0.172 C 
ATOM     15  C   UNL     1      -0.774   1.502  25.787  0.00  0.00    +0.124 C 
ATOM     16  C   UNL     1      -0.341   2.119  26.118  0.00  0.00    +0.045 C 
ATOM     17  C   UNL     1      -0.622   2.828  25.801  0.00  0.00    +0.096 C 
ATOM     18  N   UNL     1      -1.230   2.647  25.273  0.00  0.00    -0.272 N 
ATOM     19  C   UNL     1      -1.666   3.189  24.832  0.00  0.00    +0.225 C 
ATOM     20  O   UNL     1      -2.260   2.926  24.324  0.00  0.00    -0.275 OA
ATOM     27  N   UNL     1      -0.649   0.707  25.972  0.00  0.00    -0.204 NA
ATOM     28  C   UNL     1      -1.043   0.043  25.681  0.00  0.00    +0.260 C 
ATOM     29  O   UNL     1      -0.786  -0.683  25.978  0.00  0.00    -0.272 OA
ENDROOT
BRANCH  19  21
ATOM     21  C   UNL     1      -1.508   3.997  24.898  0.00  0.00    +0.077 C 
ATOM     22  C   UNL     1      -0.839   4.318  24.538  0.00  0.00    +0.009 C 
ATOM     23  C   UNL     1      -0.681   5.124  24.604  0.00  0.00    +0.000 C 
ATOM     24  C   UNL     1      -1.193   5.611  25.031  0.00  0.00    +0.000 C 
ATOM     25  C   UNL     1      -1.863   5.290  25.391  0.00  0.00    +0.000 C 
ATOM     26  C   UNL     1      -2.020   4.484  25.325  0.00  0.00    +0.009 C 
ENDBRANCH  19  21
BRANCH   7   6
ATOM      4  C   UNL     1      -3.777  -1.316  24.316  0.00  0.00    +0.272 C 
ATOM      5  O   UNL     1      -3.979  -1.043  25.067  0.00  0.00    -0.271 OA
ATOM      6  N   UNL     1      -3.086  -1.051  23.952  0.00  0.00    -0.203 NA
BRANCH   4   3
ATOM      3  C   UNL     1      -4.267  -1.856  23.929  0.00  0.00    +0.229 C 
BRANCH   3   2
ATOM      1  C   UNL     1      -4.502  -3.222  23.583  0.00  0.00    +0.175 C 
ATOM      2  O   UNL     1      -4.232  -2.657  24.120  0.00  0.00    -0.342 OA
ENDBRANCH   3   2
ENDBRANCH   4   3
ENDBRANCH   7   6
TORSDOF 4
ENDMDL
MODEL 6
REMARK VINA RESULT:      -9.8      2.443      3.965
REMARK  Name = 
REMARK  4 active torsions:
REMARK  status: ('A' for Active; 'I' for Inactive)
REMARK    1  A    between atoms: O_2  and  C_3
REMARK    2  A    between atoms: C_3  and  C_4
REMARK    3  A    between atoms: N_6  and  C_7
REMARK    4  A    between atoms: C_19  and  C_21
REMARK                            x       y       z     vdW  Elec       q    Type
REMARK                         _______ _______ _______ _____ _____    ______ ____
ROOT
ATOM      7  C   UNL     1      -0.307   1.629  24.472  0.00  0.00    +0.117 C 
ATOM      8  C   UNL     1      -0.257   2.449  24.548  0.00  0.00    +0.053 C 
ATOM      9  C   UNL     1      -1.016   2.738  24.694  0.00  0.00    +0.155 C 
ATOM     10  N   UNL     1      -1.535   2.096  24.708  0.00  0.00    -0.270 N 
ATOM     11  C   UNL     1      -1.096   1.410  24.571  0.00  0.00    +0.115 C 
ATOM     12  C   UNL     1      -2.351   2.096  24.832  0.00  0.00    +0.246 C 
ATOM     13  O   UNL     1      -2.716   1.357  24.813  0.00  0.00    -0.273 OA
ATOM     14  C   UNL     1      -2.849   2.738  24.974  0.00  0.00    +0.172 C 
ATOM     15  C   UNL     1      -2.655   3.539  25.026  0.00  0.00    +0.124 C 
ATOM     16  C   UNL     1      -3.348   3.960  25.175  0.00  0.00    +0.045 C 
ATOM     17  C   UNL     1      -3.971   3.420  25.215  0.00  0.00    +0.096 C 
ATOM     18  N   UNL     1      -3.662   2.665  25.091  0.00  0.00    -0.272 N 
ATOM     19  C   UNL     1      -4.091   1.961  25.085  0.00  0.00    +0.225 C 
ATOM     20  O   UNL     1      -3.706   1.244  24.953  0.00  0.00    -0.275 OA
ATOM     27  N   UNL     1      -1.914   3.894  24.949  0.00  0.00    -0.204 NA
ATOM     28  C   UNL     1      -1.185   3.538  24.801  0.00  0.00    +0.260 C 
ATOM     29  O   UNL     1      -0.540   4.049  24.754  0.00  0.00    -0.272 OA
ENDROOT
BRANCH  19  21
ATOM     21  C   UNL     1      -4.907   1.973  25.211  0.00  0.00    +0.077 C 
ATOM     22  C   UNL     1      -5.424   1.949  24.568  0.00  0.00    +0.009 C 
ATOM     23  C   UNL     1      -6.239   1.961  24.694  0.00  0.00    +0.000 C 
ATOM     24  C   UNL     1      -6.537   1.998  25.462  0.00  0.00    +0.000 C 
ATOM     25  C   UNL     1      -6.020   2.023  26.105  0.00  0.00    +0.000 C 
ATOM     26  C   UNL     1      -5.205   2.010  25.979  0.00  0.00    +0.009 C 
ENDBRANCH  19  21
BRANCH   7   6
ATOM      4  C   UNL     1       0.387   0.746  23.590  0.00  0.00    +0.272 C 
ATOM      5  O   UNL     1      -0.176   0.887  23.005  0.00  0.00    -0.271 OA
ATOM      6  N   UNL     1       0.323   1.117  24.324  0.00  0.00    -0.203 NA
BRANCH   4   3
ATOM      3  C   UNL     1       1.017   0.233  23.440  0.00  0.00    +0.229 C 
BRANCH   3   2
ATOM      1  C   UNL     1       2.028  -0.214  22.536  0.00  0.00    +0.175 C 
ATOM      2  O   UNL     1       1.290   0.128  22.669  0.00  0.00    -0.342 OA
ENDBRANCH   3   2
ENDBRANCH   4   3
ENDBRANCH   7   6
TORSDOF 4
ENDMDL
MODEL 7
REMARK VINA RESULT:      -9.8      1.506      2.649
REMARK  Name = 
REMARK  4 active torsions:
REMARK  status: ('A' for Active; 'I' for Inactive)
REMARK    1  A    between atoms: O_2  and  C_3
REMARK    2  A    between atoms: C_3  and  C_4
REMARK    3  A    between atoms: N_6  and  C_7
REMARK    4  A    between atoms: C_19  and  C_21
REMARK                            x       y       z     vdW  Elec       q    Type
REMARK                         _______ _______ _______ _____ _____    ______ ____
ROOT
ATOM      7  C   UNL     1      -3.670   2.982  24.670  0.00  0.00    +0.117 C 
ATOM      8  C   UNL     1      -2.845   2.986  24.672  0.00  0.00    +0.053 C 
ATOM      9  C   UNL     1      -2.586   2.203  24.669  0.00  0.00    +0.155 C 
ATOM     10  N   UNL     1      -3.252   1.714  24.664  0.00  0.00    -0.270 N 
ATOM     11  C   UNL     1      -3.922   2.196  24.665  0.00  0.00    +0.115 C 
ATOM     12  C   UNL     1      -3.285   0.890  24.659  0.00  0.00    +0.246 C 
ATOM     13  O   UNL     1      -4.042   0.562  24.655  0.00  0.00    -0.273 OA
ATOM     14  C   UNL     1      -2.661   0.350  24.658  0.00  0.00    +0.172 C 
ATOM     15  C   UNL     1      -1.849   0.501  24.661  0.00  0.00    +0.124 C 
ATOM     16  C   UNL     1      -1.455  -0.223  24.659  0.00  0.00    +0.045 C 
ATOM     17  C   UNL     1      -2.022  -0.822  24.654  0.00  0.00    +0.096 C 
ATOM     18  N   UNL     1      -2.768  -0.468  24.654  0.00  0.00    -0.272 N 
ATOM     19  C   UNL     1      -3.492  -0.862  24.649  0.00  0.00    +0.225 C 
ATOM     20  O   UNL     1      -4.195  -0.432  24.650  0.00  0.00    -0.275 OA
ATOM     27  N   UNL     1      -1.462   1.230  24.667  0.00  0.00    -0.204 NA
ATOM     28  C   UNL     1      -1.790   1.987  24.670  0.00  0.00    +0.260 C 
ATOM     29  O   UNL     1      -1.251   2.611  24.675  0.00  0.00    -0.272 OA
ENDROOT
BRANCH  19  21
ATOM     21  C   UNL     1      -3.512  -1.687  24.645  0.00  0.00    +0.077 C 
ATOM     22  C   UNL     1      -3.697  -2.091  23.950  0.00  0.00    +0.009 C 
ATOM     23  C   UNL     1      -3.718  -2.916  23.945  0.00  0.00    +0.000 C 
ATOM     24  C   UNL     1      -3.554  -3.337  24.635  0.00  0.00    +0.000 C 
ATOM     25  C   UNL     1      -3.369  -2.932  25.331  0.00  0.00    +0.000 C 
ATOM     26  C   UNL     1      -3.348  -2.108  25.336  0.00  0.00    +0.009 C 
ENDBRANCH  19  21
BRANCH   7   6
ATOM      4  C   UNL     1      -4.593   3.836  25.347  0.00  0.00    +0.272 C 
ATOM      5  O   UNL     1      -4.539   3.361  26.019  0.00  0.00    -0.271 OA
ATOM      6  N   UNL     1      -4.159   3.646  24.672  0.00  0.00    -0.203 NA
BRANCH   4   3
ATOM      3  C   UNL     1      -5.083   4.501  25.350  0.00  0.00    +0.229 C 
BRANCH   3   2
ATOM      1  C   UNL     1      -6.356   5.094  25.610  0.00  0.00    +0.175 C 
ATOM      2  O   UNL     1      -5.837   4.457  25.680  0.00  0.00    -0.342 OA
ENDBRANCH   3   2
ENDBRANCH   4   3
ENDBRANCH   7   6
TORSDOF 4
ENDMDL
MODEL 8
REMARK VINA RESULT:      -8.8      3.359      3.921
REMARK  Name = 
REMARK  4 active torsions:
REMARK  status: ('A' for Active; 'I' for Inactive)
REMARK    1  A    between atoms: O_2  and  C_3
REMARK    2  A    between atoms: C_3  and  C_4
REMARK    3  A    between atoms: N_6  and  C_7
REMARK    4  A    between atoms: C_19  and  C_21
REMARK                            x       y       z     vdW  Elec       q    Type
REMARK                         _______ _______ _______ _____ _____    ______ ____
ROOT
ATOM      7  C   UNL     1       0.877   1.249  23.953  0.00  0.00    +0.117 C 
ATOM      8  C   UNL     1       0.338   1.874  23.963  0.00  0.00    +0.053 C 
ATOM      9  C   UNL     1      -0.415   1.560  24.082  0.00  0.00    +0.155 C 
ATOM     10  N   UNL     1      -0.343   0.740  24.145  0.00  0.00    -0.270 N 
ATOM     11  C   UNL     1       0.456   0.548  24.065  0.00  0.00    +0.115 C 
ATOM     12  C   UNL     1      -0.935   0.178  24.266  0.00  0.00    +0.246 C 
ATOM     13  O   UNL     1      -0.682  -0.606  24.305  0.00  0.00    -0.273 OA
ATOM     14  C   UNL     1      -1.746   0.298  24.354  0.00  0.00    +0.172 C 
ATOM     15  C   UNL     1      -2.166   1.008  24.343  0.00  0.00    +0.124 C 
ATOM     16  C   UNL     1      -2.964   0.835  24.455  0.00  0.00    +0.045 C 
ATOM     17  C   UNL     1      -3.039   0.016  24.536  0.00  0.00    +0.096 C 
ATOM     18  N   UNL     1      -2.285  -0.315  24.473  0.00  0.00    -0.272 N 
ATOM     19  C   UNL     1      -2.103  -1.118  24.522  0.00  0.00    +0.225 C 
ATOM     20  O   UNL     1      -1.321  -1.369  24.449  0.00  0.00    -0.275 OA
ATOM     27  N   UNL     1      -1.877   1.775  24.240  0.00  0.00    -0.204 NA
ATOM     28  C   UNL     1      -1.098   2.020  24.124  0.00  0.00    +0.260 C 
ATOM     29  O   UNL     1      -0.988   2.833  24.039  0.00  0.00    -0.272 OA
ENDROOT
BRANCH  19  21
ATOM     21  C   UNL     1      -2.705  -1.670  24.643  0.00  0.00    +0.077 C 
ATOM     22  C   UNL     1      -3.156  -1.936  24.005  0.00  0.00    +0.009 C 
ATOM     23  C   UNL     1      -3.756  -2.488  24.126  0.00  0.00    +0.000 C 
ATOM     24  C   UNL     1      -3.906  -2.775  24.886  0.00  0.00    +0.000 C 
ATOM     25  C   UNL     1      -3.455  -2.509  25.524  0.00  0.00    +0.000 C 
ATOM     26  C   UNL     1      -2.855  -1.957  25.403  0.00  0.00    +0.009 C 
ENDBRANCH  19  21
BRANCH   7   6
ATOM      4  C   UNL     1       2.059   0.922  23.222  0.00  0.00    +0.272 C 
ATOM      5  O   UNL     1       1.611   0.467  22.700  0.00  0.00    -0.271 OA
ATOM      6  N   UNL     1       1.692   1.313  23.848  0.00  0.00    -0.203 NA
BRANCH   4   3
ATOM      3  C   UNL     1       2.876   0.985  23.116  0.00  0.00    +0.229 C 
BRANCH   3   2
ATOM      1  C   UNL     1       4.080   0.537  22.492  0.00  0.00    +0.175 C 
ATOM      2  O   UNL     1       3.258   0.512  22.560  0.00  0.00    -0.342 OA
ENDBRANCH   3   2
ENDBRANCH   4   3
ENDBRANCH   7   6
TORSDOF 4
ENDMDL
MODEL 9
REMARK VINA RESULT:      -8.7     16.064     18.962
REMARK  Name = 
REMARK  4 active torsions:
REMARK  status: ('A' for Active; 'I' for Inactive)
REMARK    1  A    between atoms: O_2  and  C_3
REMARK    2  A    between atoms: C_3  and  C_4
REMARK    3  A    between atoms: N_6  and  C_7
REMARK    4  A    between atoms: C_19  and  C_21
REMARK                            x       y       z     vdW  Elec       q    Type
REMARK                         _______ _______ _______ _____ _____    ______ ____
ROOT
ATOM      7  C   UNL     1      13.961   7.518  17.498  0.00  0.00    +0.117 C 
ATOM      8  C   UNL     1      14.576   7.291  17.999  0.00  0.00    +0.053 C 
ATOM      9  C   UNL     1      14.284   7.280  18.771  0.00  0.00    +0.155 C 
ATOM     10  N   UNL     1      13.488   7.500  18.747  0.00  0.00    -0.270 N 
ATOM     11  C   UNL     1      13.289   7.647  17.959  0.00  0.00    +0.115 C 
ATOM     12  C   UNL     1      12.955   7.573  19.371  0.00  0.00    +0.246 C 
ATOM     13  O   UNL     1      12.191   7.806  19.165  0.00  0.00    -0.273 OA
ATOM     14  C   UNL     1      13.085   7.443  20.176  0.00  0.00    +0.172 C 
ATOM     15  C   UNL     1      13.780   7.208  20.554  0.00  0.00    +0.124 C 
ATOM     16  C   UNL     1      13.626   7.156  21.362  0.00  0.00    +0.045 C 
ATOM     17  C   UNL     1      12.834   7.358  21.485  0.00  0.00    +0.096 C 
ATOM     18  N   UNL     1      12.501   7.535  20.750  0.00  0.00    -0.272 N 
ATOM     19  C   UNL     1      11.720   7.764  20.616  0.00  0.00    +0.225 C 
ATOM     20  O   UNL     1      11.463   7.924  19.849  0.00  0.00    -0.275 OA
ATOM     27  N   UNL     1      14.517   7.046  20.220  0.00  0.00    -0.204 NA
ATOM     28  C   UNL     1      14.742   7.078  19.427  0.00  0.00    +0.260 C 
ATOM     29  O   UNL     1      15.527   6.882  19.269  0.00  0.00    -0.272 OA
ENDROOT
BRANCH  19  21
ATOM     21  C   UNL     1      11.195   7.833  21.249  0.00  0.00    +0.077 C 
ATOM     22  C   UNL     1      10.749   7.182  21.489  0.00  0.00    +0.009 C 
ATOM     23  C   UNL     1      10.225   7.251  22.121  0.00  0.00    +0.000 C 
ATOM     24  C   UNL     1      10.146   7.971  22.515  0.00  0.00    +0.000 C 
ATOM     25  C   UNL     1      10.592   8.623  22.276  0.00  0.00    +0.000 C 
ATOM     26  C   UNL     1      11.117   8.554  21.644  0.00  0.00    +0.009 C 
ENDBRANCH  19  21
BRANCH   7   6
ATOM      4  C   UNL     1      14.202   8.332  16.349  0.00  0.00    +0.272 C 
ATOM      5  O   UNL     1      14.347   8.980  16.839  0.00  0.00    -0.271 OA
ATOM      6  N   UNL     1      14.009   7.600  16.679  0.00  0.00    -0.203 NA
BRANCH   4   3
ATOM      3  C   UNL     1      14.251   8.416  15.529  0.00  0.00    +0.229 C 
BRANCH   3   2
ATOM      1  C   UNL     1      14.887   9.074  14.433  0.00  0.00    +0.175 C 
ATOM      2  O   UNL     1      14.593   9.091  15.203  0.00  0.00    -0.342 OA
ENDBRANCH   3   2
ENDBRANCH   4   3
ENDBRANCH   7   6
TORSDOF 4
ENDMDL
