MODEL 1
REMARK VINA RESULT:     -10.8      0.000      0.000
REMARK  Name = 
REMARK  5 active torsions:
REMARK  status: ('A' for Active; 'I' for Inactive)
REMARK    1  A    between atoms: C_4  and  C_13
REMARK    2  A    between atoms: C_6  and  C_8
REMARK    3  A    between atoms: C_20  and  C_21
REMARK    4  A    between atoms: C_21  and  N_22
REMARK    5  A    between atoms: C_23  and  C_25
REMARK                            x       y       z     vdW  Elec       q    Type
REMARK                         _______ _______ _______ _____ _____    ______ ____
ROOT
ATOM     13  C   UNL     1      -0.918   0.869  25.376  0.00  0.00    +0.056 C 
ATOM     14  C   UNL     1      -1.403   0.432  25.800  0.00  0.00    +0.078 C 
ATOM     15  N   UNL     1      -1.029   0.206  25.099  0.00  0.00    -0.272 NA
ATOM     16  C   UNL     1      -0.446   1.018  24.783  0.00  0.00    +0.072 C 
ATOM     17  C   UNL     1      -0.033   1.289  24.356  0.00  0.00    +0.018 C 
ATOM     18  C   UNL     1      -0.554   0.640  24.690  0.00  0.00    +0.010 C 
ATOM     19  C   UNL     1      -0.581  -0.108  24.232  0.00  0.00    +0.018 C 
ATOM     20  C   UNL     1      -1.052  -0.569  24.618  0.00  0.00    +0.079 C 
ENDROOT
BRANCH  13   4
ATOM      1  C   UNL     1       0.728   2.672  26.863  0.00  0.00    +0.074 C 
ATOM      2  C   UNL     1       0.064   2.533  26.394  0.00  0.00    +0.139 A 
ATOM      3  N   UNL     1      -0.095   1.771  26.120  0.00  0.00    -0.235 NA
ATOM      4  C   UNL     1      -0.759   1.632  25.651  0.00  0.00    +0.063 A 
ATOM      5  C   UNL     1      -1.264   2.253  25.455  0.00  0.00    +0.034 A 
ATOM      6  C   UNL     1      -1.106   3.015  25.729  0.00  0.00    +0.090 A 
ATOM      7  N   UNL     1      -0.442   3.155  26.198  0.00  0.00    -0.230 NA
BRANCH   6   8
ATOM      8  C   UNL     1      -1.611   3.637  25.534  0.00  0.00    +0.047 A 
ATOM      9  C   UNL     1      -1.419   4.290  25.067  0.00  0.00    +0.009 A 
ATOM     10  C   UNL     1      -2.085   4.772  25.016  0.00  0.00    +0.008 A 
ATOM     11  C   UNL     1      -2.690   4.419  25.451  0.00  0.00    +0.035 A 
ATOM     12  S   UNL     1      -2.397   3.717  25.772  0.00  0.00    -0.085 S 
ENDBRANCH   6   8
ENDBRANCH  13   4
BRANCH  20  21
ATOM     21  C   UNL     1      -1.385  -1.323  24.606  0.00  0.00    +0.131 C 
BRANCH  21  22
ATOM     22  N   UNL     1      -2.183  -1.419  24.421  0.00  0.00    -0.204 NA
ATOM     23  C   UNL     1      -2.514  -2.174  24.406  0.00  0.00    +0.241 C 
ATOM     24  O   UNL     1      -2.048  -2.833  24.575  0.00  0.00    -0.273 OA
BRANCH  23  25
ATOM     25  C   UNL     1      -3.313  -2.270  24.221  0.00  0.00    +0.078 C 
ATOM     26  C   UNL     1      -3.838  -2.906  24.217  0.00  0.00    +0.009 C 
ATOM     27  C   UNL     1      -4.442  -2.405  23.960  0.00  0.00    +0.001 C 
ATOM     28  C   UNL     1      -3.917  -1.770  23.964  0.00  0.00    +0.009 C 
ENDBRANCH  23  25
ENDBRANCH  21  22
ENDBRANCH  20  21
TORSDOF 5
ENDMDL
MODEL 2
REMARK VINA RESULT:     -10.7      2.199      3.094
REMARK  Name = 
REMARK  5 active torsions:
REMARK  status: ('A' for Active; 'I' for Inactive)
REMARK    1  A    between atoms: C_4  and  C_13
REMARK    2  A    between atoms: C_6  and  C_8
REMARK    3  A    between atoms: C_20  and  C_21
REMARK    4  A    between atoms: C_21  and  N_22
REMARK    5  A    between atoms: C_23  and  C_25
REMARK                            x       y       z     vdW  Elec       q    Type
REMARK                         _______ _______ _______ _____ _____    ______ ____
ROOT
ATOM     13  C   UNL     1      -3.822   1.647  24.338  0.00  0.00    +0.056 C 
ATOM     14  C   UNL     1      -3.502   1.198  23.788  0.00  0.00    +0.078 C 
ATOM     15  N   UNL     1      -4.062   0.961  24.346  0.00  0.00    -0.272 NA
ATOM     16  C   UNL     1      -4.285   1.798  24.937  0.00  0.00    +0.072 C 
ATOM     17  C   UNL     1      -4.613   2.074  25.430  0.00  0.00    +0.018 C 
ATOM     18  C   UNL     1      -4.371   1.406  24.882  0.00  0.00    +0.010 C 
ATOM     19  C   UNL     1      -4.757   0.631  25.025  0.00  0.00    +0.018 C 
ATOM     20  C   UNL     1      -4.468   0.158  24.501  0.00  0.00    +0.079 C 
ENDROOT
BRANCH  13   4
ATOM      1  C   UNL     1      -4.374   4.422  23.934  0.00  0.00    +0.074 C 
ATOM      2  C   UNL     1      -3.857   3.823  24.167  0.00  0.00    +0.139 A 
ATOM      3  N   UNL     1      -4.098   3.035  24.136  0.00  0.00    -0.235 NA
ATOM      4  C   UNL     1      -3.580   2.436  24.369  0.00  0.00    +0.063 A 
ATOM      5  C   UNL     1      -2.823   2.625  24.634  0.00  0.00    +0.034 A 
ATOM      6  C   UNL     1      -2.582   3.413  24.665  0.00  0.00    +0.090 A 
ATOM      7  N   UNL     1      -3.098   4.012  24.432  0.00  0.00    -0.230 NA
BRANCH   6   8
ATOM      8  C   UNL     1      -1.824   3.603  24.930  0.00  0.00    +0.047 A 
ATOM      9  C   UNL     1      -1.628   3.878  25.683  0.00  0.00    +0.009 A 
ATOM     10  C   UNL     1      -0.812   3.997  25.707  0.00  0.00    +0.008 A 
ATOM     11  C   UNL     1      -0.503   3.795  24.969  0.00  0.00    +0.035 A 
ATOM     12  S   UNL     1      -1.128   3.552  24.489  0.00  0.00    -0.085 S 
ENDBRANCH   6   8
ENDBRANCH  13   4
BRANCH  20  21
ATOM     21  C   UNL     1      -4.502  -0.621  24.232  0.00  0.00    +0.131 C 
BRANCH  21  22
ATOM     22  N   UNL     1      -3.923  -1.162  24.460  0.00  0.00    -0.204 NA
ATOM     23  C   UNL     1      -3.940  -1.932  24.164  0.00  0.00    +0.241 C 
ATOM     24  O   UNL     1      -4.534  -2.160  23.640  0.00  0.00    -0.273 OA
BRANCH  23  25
ATOM     25  C   UNL     1      -3.361  -2.474  24.393  0.00  0.00    +0.078 C 
ATOM     26  C   UNL     1      -2.536  -2.482  24.390  0.00  0.00    +0.009 C 
ATOM     27  C   UNL     1      -2.543  -3.240  24.716  0.00  0.00    +0.001 C 
ATOM     28  C   UNL     1      -3.367  -3.232  24.718  0.00  0.00    +0.009 C 
ENDBRANCH  23  25
ENDBRANCH  21  22
ENDBRANCH  20  21
TORSDOF 5
ENDMDL
MODEL 3
REMARK VINA RESULT:     -10.7      2.024      5.183
REMARK  Name = 
REMARK  5 active torsions:
REMARK  status: ('A' for Active; 'I' for Inactive)
REMARK    1  A    between atoms: C_4  and  C_13
REMARK    2  A    between atoms: C_6  and  C_8
REMARK    3  A    between atoms: C_20  and  C_21
REMARK    4  A    between atoms: C_21  and  N_22
REMARK    5  A    between atoms: C_23  and  C_25
REMARK                            x       y       z     vdW  Elec       q    Type
REMARK                         _______ _______ _______ _____ _____    ______ ____
ROOT
ATOM     13  C   UNL     1      -1.091   0.127  24.769  0.00  0.00    +0.056 C 
ATOM     14  C   UNL     1      -0.964   0.485  24.091  0.00  0.00    +0.078 C 
ATOM     15  N   UNL     1      -0.891   0.822  24.841  0.00  0.00    -0.272 NA
ATOM     16  C   UNL     1      -1.131   0.077  25.539  0.00  0.00    +0.072 C 
ATOM     17  C   UNL     1      -1.209  -0.117  26.158  0.00  0.00    +0.018 C 
ATOM     18  C   UNL     1      -1.018   0.464  25.502  0.00  0.00    +0.010 C 
ATOM     19  C   UNL     1      -0.791   1.272  25.757  0.00  0.00    +0.018 C 
ATOM     20  C   UNL     1      -0.656   1.660  25.113  0.00  0.00    +0.079 C 
ENDROOT
BRANCH  13   4
ATOM      1  C   UNL     1      -0.454  -2.647  25.041  0.00  0.00    +0.074 C 
ATOM      2  C   UNL     1      -1.002  -2.052  24.877  0.00  0.00    +0.139 A 
ATOM      3  N   UNL     1      -0.773  -1.261  24.905  0.00  0.00    -0.235 NA
ATOM      4  C   UNL     1      -1.321  -0.666  24.741  0.00  0.00    +0.063 A 
ATOM      5  C   UNL     1      -2.098  -0.863  24.548  0.00  0.00    +0.034 A 
ATOM      6  C   UNL     1      -2.327  -1.655  24.519  0.00  0.00    +0.090 A 
ATOM      7  N   UNL     1      -1.780  -2.250  24.684  0.00  0.00    -0.230 NA
BRANCH   6   8
ATOM      8  C   UNL     1      -3.105  -1.853  24.326  0.00  0.00    +0.047 A 
ATOM      9  C   UNL     1      -3.637  -1.380  23.909  0.00  0.00    +0.009 A 
ATOM     10  C   UNL     1      -4.347  -1.792  23.841  0.00  0.00    +0.008 A 
ATOM     11  C   UNL     1      -4.255  -2.521  24.216  0.00  0.00    +0.035 A 
ATOM     12  S   UNL     1      -3.488  -2.559  24.516  0.00  0.00    -0.085 S 
ENDBRANCH   6   8
ENDBRANCH  13   4
BRANCH  20  21
ATOM     21  C   UNL     1      -0.431   2.402  24.831  0.00  0.00    +0.131 C 
BRANCH  21  22
ATOM     22  N   UNL     1      -0.855   3.074  25.053  0.00  0.00    -0.204 NA
ATOM     23  C   UNL     1      -0.695   3.798  24.692  0.00  0.00    +0.241 C 
ATOM     24  O   UNL     1      -0.112   3.851  24.111  0.00  0.00    -0.273 OA
BRANCH  23  25
ATOM     25  C   UNL     1      -1.119   4.471  24.914  0.00  0.00    +0.078 C 
ATOM     26  C   UNL     1      -0.969   5.282  24.912  0.00  0.00    +0.009 C 
ATOM     27  C   UNL     1      -1.718   5.422  25.227  0.00  0.00    +0.001 C 
ATOM     28  C   UNL     1      -1.868   4.611  25.229  0.00  0.00    +0.009 C 
ENDBRANCH  23  25
ENDBRANCH  21  22
ENDBRANCH  20  21
TORSDOF 5
ENDMDL
MODEL 4
REMARK VINA RESULT:     -10.6      0.997      1.322
REMARK  Name = 
REMARK  5 active torsions:
REMARK  status: ('A' for Active; 'I' for Inactive)
REMARK    1  A    between atoms: C_4  and  C_13
REMARK    2  A    between atoms: C_6  and  C_8
REMARK    3  A    between atoms: C_20  and  C_21
REMARK    4  A    between atoms: C_21  and  N_22
REMARK    5  A    between atoms: C_23  and  C_25
REMARK                            x       y       z     vdW  Elec       q    Type
REMARK                         _______ _______ _______ _____ _____    ______ ____
ROOT
ATOM     13  C   UNL     1      -1.390   1.275  24.751  0.00  0.00    +0.056 C 
ATOM     14  C   UNL     1      -1.761   0.928  24.161  0.00  0.00    +0.078 C 
ATOM     15  N   UNL     1      -1.339   0.550  24.762  0.00  0.00    -0.272 NA
ATOM     16  C   UNL     1      -0.964   1.298  25.394  0.00  0.00    +0.072 C 
ATOM     17  C   UNL     1      -0.625   1.478  25.922  0.00  0.00    +0.018 C 
ATOM     18  C   UNL     1      -0.978   0.898  25.337  0.00  0.00    +0.010 C 
ATOM     19  C   UNL     1      -0.823   0.048  25.493  0.00  0.00    +0.018 C 
ATOM     20  C   UNL     1      -1.173  -0.331  24.931  0.00  0.00    +0.079 C 
ENDROOT
BRANCH  13   4
ATOM      1  C   UNL     1      -0.182   3.816  24.246  0.00  0.00    +0.074 C 
ATOM      2  C   UNL     1      -0.815   3.370  24.529  0.00  0.00    +0.139 A 
ATOM      3  N   UNL     1      -0.786   2.546  24.498  0.00  0.00    -0.235 NA
ATOM      4  C   UNL     1      -1.420   2.100  24.782  0.00  0.00    +0.063 A 
ATOM      5  C   UNL     1      -2.082   2.477  25.095  0.00  0.00    +0.034 A 
ATOM      6  C   UNL     1      -2.112   3.301  25.126  0.00  0.00    +0.090 A 
ATOM      7  N   UNL     1      -1.479   3.747  24.843  0.00  0.00    -0.230 NA
BRANCH   6   8
ATOM      8  C   UNL     1      -2.774   3.679  25.440  0.00  0.00    +0.047 A 
ATOM      9  C   UNL     1      -2.827   4.023  26.188  0.00  0.00    +0.009 A 
ATOM     10  C   UNL     1      -3.585   4.336  26.272  0.00  0.00    +0.008 A 
ATOM     11  C   UNL     1      -4.002   4.186  25.576  0.00  0.00    +0.035 A 
ATOM     12  S   UNL     1      -3.501   3.780  25.062  0.00  0.00    -0.085 S 
ENDBRANCH   6   8
ENDBRANCH  13   4
BRANCH  20  21
ATOM     21  C   UNL     1      -1.317  -1.091  24.645  0.00  0.00    +0.131 C 
BRANCH  21  22
ATOM     22  N   UNL     1      -2.088  -1.383  24.616  0.00  0.00    -0.204 NA
ATOM     23  C   UNL     1      -2.223  -2.169  24.407  0.00  0.00    +0.241 C 
ATOM     24  O   UNL     1      -1.589  -2.663  24.226  0.00  0.00    -0.273 OA
BRANCH  23  25
ATOM     25  C   UNL     1      -2.995  -2.461  24.379  0.00  0.00    +0.078 C 
ATOM     26  C   UNL     1      -3.355  -3.176  24.574  0.00  0.00    +0.009 C 
ATOM     27  C   UNL     1      -4.086  -2.873  24.338  0.00  0.00    +0.001 C 
ATOM     28  C   UNL     1      -3.725  -2.157  24.143  0.00  0.00    +0.009 C 
ENDBRANCH  23  25
ENDBRANCH  21  22
ENDBRANCH  20  21
TORSDOF 5
ENDMDL
MODEL 5
REMARK VINA RESULT:     -10.3      2.579      5.573
REMARK  Name = 
REMARK  5 active torsions:
REMARK  status: ('A' for Active; 'I' for Inactive)
REMARK    1  A    between atoms: C_4  and  C_13
REMARK    2  A    between atoms: C_6  and  C_8
REMARK    3  A    between atoms: C_20  and  C_21
REMARK    4  A    between atoms: C_21  and  N_22
REMARK    5  A    between atoms: C_23  and  C_25
REMARK                            x       y       z     vdW  Elec       q    Type
REMARK                         _______ _______ _______ _____ _____    ______ ____
ROOT
ATOM     13  C   UNL     1      -3.259   0.759  24.568  0.00  0.00    +0.056 C 
ATOM     14  C   UNL     1      -3.247   1.056  25.287  0.00  0.00    +0.078 C 
ATOM     15  N   UNL     1      -3.265   1.485  24.583  0.00  0.00    -0.272 NA
ATOM     16  C   UNL     1      -3.275   0.791  23.797  0.00  0.00    +0.072 C 
ATOM     17  C   UNL     1      -3.288   0.657  23.158  0.00  0.00    +0.018 C 
ATOM     18  C   UNL     1      -3.277   1.187  23.881  0.00  0.00    +0.010 C 
ATOM     19  C   UNL     1      -3.287   2.050  23.727  0.00  0.00    +0.018 C 
ATOM     20  C   UNL     1      -3.276   2.382  24.414  0.00  0.00    +0.079 C 
ENDROOT
BRANCH  13   4
ATOM      1  C   UNL     1      -4.631  -1.689  24.021  0.00  0.00    +0.074 C 
ATOM      2  C   UNL     1      -3.940  -1.288  24.226  0.00  0.00    +0.139 A 
ATOM      3  N   UNL     1      -3.945  -0.466  24.295  0.00  0.00    -0.235 NA
ATOM      4  C   UNL     1      -3.254  -0.065  24.500  0.00  0.00    +0.063 A 
ATOM      5  C   UNL     1      -2.558  -0.485  24.637  0.00  0.00    +0.034 A 
ATOM      6  C   UNL     1      -2.553  -1.307  24.568  0.00  0.00    +0.090 A 
ATOM      7  N   UNL     1      -3.243  -1.708  24.363  0.00  0.00    -0.230 NA
BRANCH   6   8
ATOM      8  C   UNL     1      -1.857  -1.728  24.705  0.00  0.00    +0.047 A 
ATOM      9  C   UNL     1      -1.571  -2.353  24.248  0.00  0.00    +0.009 A 
ATOM     10  C   UNL     1      -0.862  -2.610  24.581  0.00  0.00    +0.008 A 
ATOM     11  C   UNL     1      -0.710  -2.145  25.246  0.00  0.00    +0.035 A 
ATOM     12  S   UNL     1      -1.324  -1.600  25.322  0.00  0.00    -0.085 S 
ENDBRANCH   6   8
ENDBRANCH  13   4
BRANCH  20  21
ATOM     21  C   UNL     1      -3.274   3.118  24.786  0.00  0.00    +0.131 C 
BRANCH  21  22
ATOM     22  N   UNL     1      -2.632   3.628  24.690  0.00  0.00    -0.204 NA
ATOM     23  C   UNL     1      -2.486   4.215  25.251  0.00  0.00    +0.241 C 
ATOM     24  O   UNL     1      -2.980   4.293  25.906  0.00  0.00    -0.273 OA
BRANCH  23  25
ATOM     25  C   UNL     1      -1.844   4.724  25.156  0.00  0.00    +0.078 C 
ATOM     26  C   UNL     1      -1.750   5.542  25.105  0.00  0.00    +0.009 C 
ATOM     27  C   UNL     1      -0.935   5.444  25.021  0.00  0.00    +0.001 C 
ATOM     28  C   UNL     1      -1.029   4.626  25.072  0.00  0.00    +0.009 C 
ENDBRANCH  23  25
ENDBRANCH  21  22
ENDBRANCH  20  21
TORSDOF 5
ENDMDL
MODEL 6
REMARK VINA RESULT:     -10.0      2.388      4.040
REMARK  Name = 
REMARK  5 active torsions:
REMARK  status: ('A' for Active; 'I' for Inactive)
REMARK    1  A    between atoms: C_4  and  C_13
REMARK    2  A    between atoms: C_6  and  C_8
REMARK    3  A    between atoms: C_20  and  C_21
REMARK    4  A    between atoms: C_21  and  N_22
REMARK    5  A    between atoms: C_23  and  C_25
REMARK                            x       y       z     vdW  Elec       q    Type
REMARK                         _______ _______ _______ _____ _____    ______ ____
ROOT
ATOM     13  C   UNL     1      -1.090   0.835  23.941  0.00  0.00    +0.056 C 
ATOM     14  C   UNL     1      -0.926   1.061  23.215  0.00  0.00    +0.078 C 
ATOM     15  N   UNL     1      -0.472   0.554  23.681  0.00  0.00    -0.272 NA
ATOM     16  C   UNL     1      -0.967   0.453  24.600  0.00  0.00    +0.072 C 
ATOM     17  C   UNL     1      -1.002   0.200  25.202  0.00  0.00    +0.018 C 
ATOM     18  C   UNL     1      -0.640   0.336  24.392  0.00  0.00    +0.010 C 
ATOM     19  C   UNL     1       0.116  -0.080  24.233  0.00  0.00    +0.018 C 
ATOM     20  C   UNL     1       0.313   0.118  23.522  0.00  0.00    +0.079 C 
ENDROOT
BRANCH  13   4
ATOM      1  C   UNL     1      -3.803   0.448  24.756  0.00  0.00    +0.074 C 
ATOM      2  C   UNL     1      -3.140   0.935  24.688  0.00  0.00    +0.139 A 
ATOM      3  N   UNL     1      -2.447   0.642  24.349  0.00  0.00    -0.235 NA
ATOM      4  C   UNL     1      -1.784   1.128  24.281  0.00  0.00    +0.063 A 
ATOM      5  C   UNL     1      -1.813   1.906  24.552  0.00  0.00    +0.034 A 
ATOM      6  C   UNL     1      -2.505   2.199  24.891  0.00  0.00    +0.090 A 
ATOM      7  N   UNL     1      -3.169   1.713  24.959  0.00  0.00    -0.230 NA
BRANCH   6   8
ATOM      8  C   UNL     1      -2.535   2.977  25.163  0.00  0.00    +0.047 A 
ATOM      9  C   UNL     1      -2.186   3.264  25.853  0.00  0.00    +0.009 A 
ATOM     10  C   UNL     1      -2.354   4.068  25.909  0.00  0.00    +0.008 A 
ATOM     11  C   UNL     1      -2.807   4.281  25.254  0.00  0.00    +0.035 A 
ATOM     12  S   UNL     1      -2.919   3.606  24.792  0.00  0.00    -0.085 S 
ENDBRANCH   6   8
ENDBRANCH  13   4
BRANCH  20  21
ATOM     21  C   UNL     1       0.895   0.004  22.949  0.00  0.00    +0.131 C 
BRANCH  21  22
ATOM     22  N   UNL     1       1.677   0.212  23.107  0.00  0.00    -0.204 NA
ATOM     23  C   UNL     1       2.251   0.131  22.521  0.00  0.00    +0.241 C 
ATOM     24  O   UNL     1       2.044  -0.157  21.776  0.00  0.00    -0.273 OA
BRANCH  23  25
ATOM     25  C   UNL     1       3.034   0.339  22.679  0.00  0.00    +0.078 C 
ATOM     26  C   UNL     1       3.721  -0.075  22.870  0.00  0.00    +0.009 C 
ATOM     27  C   UNL     1       4.141   0.634  22.902  0.00  0.00    +0.001 C 
ATOM     28  C   UNL     1       3.454   1.049  22.711  0.00  0.00    +0.009 C 
ENDBRANCH  23  25
ENDBRANCH  21  22
ENDBRANCH  20  21
TORSDOF 5
ENDMDL
MODEL 7
REMARK VINA RESULT:      -9.9      2.428      4.660
REMARK  Name = 
REMARK  5 active torsions:
REMARK  status: ('A' for Active; 'I' for Inactive)
REMARK    1  A    between atoms: C_4  and  C_13
REMARK    2  A    between atoms: C_6  and  C_8
REMARK    3  A    between atoms: C_20  and  C_21
REMARK    4  A    between atoms: C_21  and  N_22
REMARK    5  A    between atoms: C_23  and  C_25
REMARK                            x       y       z     vdW  Elec       q    Type
REMARK                         _______ _______ _______ _____ _____    ______ ____
ROOT
ATOM     13  C   UNL     1      -1.351   1.427  24.334  0.00  0.00    +0.056 C 
ATOM     14  C   UNL     1      -1.987   1.535  23.898  0.00  0.00    +0.078 C 
ATOM     15  N   UNL     1      -1.723   2.028  24.506  0.00  0.00    -0.272 NA
ATOM     16  C   UNL     1      -0.844   1.603  24.889  0.00  0.00    +0.072 C 
ATOM     17  C   UNL     1      -0.344   1.615  25.309  0.00  0.00    +0.018 C 
ATOM     18  C   UNL     1      -1.098   1.915  24.928  0.00  0.00    +0.010 C 
ATOM     19  C   UNL     1      -1.424   2.662  25.254  0.00  0.00    +0.018 C 
ATOM     20  C   UNL     1      -2.055   2.805  24.849  0.00  0.00    +0.079 C 
ENDROOT
BRANCH  13   4
ATOM      1  C   UNL     1       0.955   0.225  23.146  0.00  0.00    +0.074 C 
ATOM      2  C   UNL     1       0.258   0.156  23.583  0.00  0.00    +0.139 A 
ATOM      3  N   UNL     1      -0.198   0.825  23.740  0.00  0.00    -0.235 NA
ATOM      4  C   UNL     1      -0.895   0.757  24.177  0.00  0.00    +0.063 A 
ATOM      5  C   UNL     1      -1.135   0.020  24.457  0.00  0.00    +0.034 A 
ATOM      6  C   UNL     1      -0.679  -0.650  24.300  0.00  0.00    +0.090 A 
ATOM      7  N   UNL     1       0.017  -0.582  23.863  0.00  0.00    -0.230 NA
BRANCH   6   8
ATOM      8  C   UNL     1      -0.919  -1.388  24.580  0.00  0.00    +0.047 A 
ATOM      9  C   UNL     1      -0.635  -1.766  25.257  0.00  0.00    +0.009 A 
ATOM     10  C   UNL     1      -1.025  -2.488  25.328  0.00  0.00    +0.008 A 
ATOM     11  C   UNL     1      -1.550  -2.559  24.695  0.00  0.00    +0.035 A 
ATOM     12  S   UNL     1      -1.485  -1.878  24.233  0.00  0.00    -0.085 S 
ENDBRANCH   6   8
ENDBRANCH  13   4
BRANCH  20  21
ATOM     21  C   UNL     1      -2.674   3.344  24.770  0.00  0.00    +0.131 C 
BRANCH  21  22
ATOM     22  N   UNL     1      -3.414   3.174  25.091  0.00  0.00    -0.204 NA
ATOM     23  C   UNL     1      -4.068   3.631  24.883  0.00  0.00    +0.241 C 
ATOM     24  O   UNL     1      -3.983   4.258  24.354  0.00  0.00    -0.273 OA
BRANCH  23  25
ATOM     25  C   UNL     1      -4.809   3.461  25.205  0.00  0.00    +0.078 C 
ATOM     26  C   UNL     1      -5.353   3.874  25.668  0.00  0.00    +0.009 C 
ATOM     27  C   UNL     1      -5.856   3.220  25.660  0.00  0.00    +0.001 C 
ATOM     28  C   UNL     1      -5.312   2.808  25.197  0.00  0.00    +0.009 C 
ENDBRANCH  23  25
ENDBRANCH  21  22
ENDBRANCH  20  21
TORSDOF 5
ENDMDL
MODEL 8
REMARK VINA RESULT:      -9.8      2.519      3.724
REMARK  Name = 
REMARK  5 active torsions:
REMARK  status: ('A' for Active; 'I' for Inactive)
REMARK    1  A    between atoms: C_4  and  C_13
REMARK    2  A    between atoms: C_6  and  C_8
REMARK    3  A    between atoms: C_20  and  C_21
REMARK    4  A    between atoms: C_21  and  N_22
REMARK    5  A    between atoms: C_23  and  C_25
REMARK                            x       y       z     vdW  Elec       q    Type
REMARK                         _______ _______ _______ _____ _____    ______ ____
ROOT
ATOM     13  C   UNL     1      -1.356   2.275  24.442  0.00  0.00    +0.056 C 
ATOM     14  C   UNL     1      -1.379   2.077  23.689  0.00  0.00    +0.078 C 
ATOM     15  N   UNL     1      -0.896   1.740  24.268  0.00  0.00    -0.272 NA
ATOM     16  C   UNL     1      -1.107   2.228  25.171  0.00  0.00    +0.072 C 
ATOM     17  C   UNL     1      -1.004   2.308  25.811  0.00  0.00    +0.018 C 
ATOM     18  C   UNL     1      -0.879   1.940  25.003  0.00  0.00    +0.010 C 
ATOM     19  C   UNL     1      -0.280   1.299  24.960  0.00  0.00    +0.018 C 
ATOM     20  C   UNL     1      -0.272   1.075  24.231  0.00  0.00    +0.079 C 
ENDROOT
BRANCH  13   4
ATOM      1  C   UNL     1      -1.771   4.993  25.223  0.00  0.00    +0.074 C 
ATOM      2  C   UNL     1      -2.070   4.237  25.079  0.00  0.00    +0.139 A 
ATOM      3  N   UNL     1      -1.564   3.634  24.833  0.00  0.00    -0.235 NA
ATOM      4  C   UNL     1      -1.863   2.878  24.689  0.00  0.00    +0.063 A 
ATOM      5  C   UNL     1      -2.666   2.726  24.792  0.00  0.00    +0.034 A 
ATOM      6  C   UNL     1      -3.172   3.329  25.039  0.00  0.00    +0.090 A 
ATOM      7  N   UNL     1      -2.874   4.084  25.183  0.00  0.00    -0.230 NA
BRANCH   6   8
ATOM      8  C   UNL     1      -3.976   3.177  25.142  0.00  0.00    +0.047 A 
ATOM      9  C   UNL     1      -4.463   2.764  24.619  0.00  0.00    +0.009 A 
ATOM     10  C   UNL     1      -5.222   2.743  24.940  0.00  0.00    +0.008 A 
ATOM     11  C   UNL     1      -5.206   3.143  25.661  0.00  0.00    +0.035 A 
ATOM     12  S   UNL     1      -4.436   3.411  25.786  0.00  0.00    -0.085 S 
ENDBRANCH   6   8
ENDBRANCH  13   4
BRANCH  20  21
ATOM     21  C   UNL     1       0.090   0.544  23.713  0.00  0.00    +0.131 C 
BRANCH  21  22
ATOM     22  N   UNL     1       0.871   0.664  23.478  0.00  0.00    -0.204 NA
ATOM     23  C   UNL     1       1.249   0.104  23.005  0.00  0.00    +0.241 C 
ATOM     24  O   UNL     1       0.846  -0.576  22.767  0.00  0.00    -0.273 OA
BRANCH  23  25
ATOM     25  C   UNL     1       2.030   0.224  22.769  0.00  0.00    +0.078 C 
ATOM     26  C   UNL     1       2.684   0.610  23.090  0.00  0.00    +0.009 C 
ATOM     27  C   UNL     1       3.136   0.393  22.435  0.00  0.00    +0.001 C 
ATOM     28  C   UNL     1       2.482   0.007  22.113  0.00  0.00    +0.009 C 
ENDBRANCH  23  25
ENDBRANCH  21  22
ENDBRANCH  20  21
TORSDOF 5
ENDMDL
