MODEL 1
REMARK VINA RESULT:     -10.1      0.000      0.000
REMARK  Name = 
REMARK  4 active torsions:
REMARK  status: ('A' for Active; 'I' for Inactive)
REMARK    1  A    between atoms: N_3  and  C_4
REMARK    2  A    between atoms: C_8  and  N_12
REMARK    3  A    between atoms: C_15  and  C_19
REMARK    4  A    between atoms: N_24  and  C_25
REMARK                            x       y       z     vdW  Elec       q    Type
REMARK                         _______ _______ _______ _____ _____    ______ ____
ROOT
ATOM      4  C   UNL     1       0.447   0.505  23.460  0.00  0.00    +0.156 C 
ATOM      5  C   UNL     1       0.399   1.328  23.465  0.00  0.00    +0.166 C 
ATOM      6  O   UNL     1      -0.285   1.540  23.874  0.00  0.00    -0.350 OA
ATOM      7  C   UNL     1      -0.660   0.849  24.121  0.00  0.00    +0.166 C 
ATOM      8  C   UNL     1      -1.314   0.552  24.526  0.00  0.00    +0.154 C 
ATOM      9  C   UNL     1      -1.267  -0.272  24.521  0.00  0.00    +0.166 C 
ATOM     10  O   UNL     1      -0.583  -0.484  24.112  0.00  0.00    -0.350 OA
ATOM     11  C   UNL     1      -0.208   0.209  23.865  0.00  0.00    +0.166 C 
ENDROOT
BRANCH   8  12
ATOM     12  N   UNL     1      -1.912   1.000  24.876  0.00  0.00    -0.200 NA
ATOM     13  C   UNL     1      -2.698   0.890  24.649  0.00  0.00    +0.236 A 
ATOM     14  N   UNL     1      -3.295   1.338  24.998  0.00  0.00    -0.217 NA
ATOM     15  C   UNL     1      -4.081   1.228  24.771  0.00  0.00    +0.063 A 
ATOM     16  C   UNL     1      -4.269   0.670  24.194  0.00  0.00    +0.035 A 
ATOM     17  C   UNL     1      -3.671   0.221  23.844  0.00  0.00    +0.103 A 
ATOM     18  N   UNL     1      -2.886   0.332  24.072  0.00  0.00    -0.211 NA
BRANCH  15  19
ATOM     19  C   UNL     1      -4.678   1.676  25.120  0.00  0.00    +0.040 C 
ATOM     20  C   UNL     1      -4.696   2.500  25.179  0.00  0.00    +0.006 C 
ATOM     21  C   UNL     1      -5.392   2.712  25.567  0.00  0.00    +0.000 C 
ATOM     22  C   UNL     1      -5.804   2.022  25.748  0.00  0.00    +0.000 C 
ATOM     23  C   UNL     1      -5.363   1.381  25.472  0.00  0.00    +0.006 C 
ENDBRANCH  15  19
ENDBRANCH   8  12
BRANCH   4   3
ATOM      1  O   UNL     1       2.020   0.987  23.584  0.00  0.00    -0.249 OA
ATOM      2  C   UNL     1       1.831   0.297  23.172  0.00  0.00    +0.344 C 
ATOM      3  N   UNL     1       1.045   0.056  23.110  0.00  0.00    -0.184 NA
ATOM     24  N   UNL     1       2.429  -0.151  22.822  0.00  0.00    -0.161 NA
BRANCH  24  25
ATOM     25  C   UNL     1       3.216   0.090  22.884  0.00  0.00    +0.075 A 
ATOM     26  C   UNL     1       3.475   0.760  22.481  0.00  0.00    +0.017 A 
ATOM     27  C   UNL     1       4.262   1.001  22.543  0.00  0.00    +0.001 A 
ATOM     28  C   UNL     1       4.789   0.570  23.008  0.00  0.00    +0.000 A 
ATOM     29  C   UNL     1       4.530  -0.101  23.412  0.00  0.00    +0.001 A 
ATOM     30  C   UNL     1       3.743  -0.341  23.349  0.00  0.00    +0.017 A 
ENDBRANCH  24  25
ENDBRANCH   4   3
TORSDOF 4
ENDMDL
MODEL 2
REMARK VINA RESULT:      -9.8      1.032      6.781
REMARK  Name = 
REMARK  4 active torsions:
REMARK  status: ('A' for Active; 'I' for Inactive)
REMARK    1  A    between atoms: N_3  and  C_4
REMARK    2  A    between atoms: C_8  and  N_12
REMARK    3  A    between atoms: C_15  and  C_19
REMARK    4  A    between atoms: N_24  and  C_25
REMARK                            x       y       z     vdW  Elec       q    Type
REMARK                         _______ _______ _______ _____ _____    ______ ____
ROOT
ATOM      4  C   UNL     1      -2.037   1.594  23.779  0.00  0.00    +0.156 C 
ATOM      5  C   UNL     1      -1.658   2.326  23.808  0.00  0.00    +0.166 C 
ATOM      6  O   UNL     1      -0.845   2.190  23.848  0.00  0.00    -0.350 OA
ATOM      7  C   UNL     1      -0.722   1.375  23.844  0.00  0.00    +0.166 C 
ATOM      8  C   UNL     1      -0.144   0.786  23.867  0.00  0.00    +0.154 C 
ATOM      9  C   UNL     1      -0.524   0.054  23.839  0.00  0.00    +0.166 C 
ATOM     10  O   UNL     1      -1.336   0.190  23.798  0.00  0.00    -0.350 OA
ATOM     11  C   UNL     1      -1.459   1.006  23.802  0.00  0.00    +0.166 C 
ENDROOT
BRANCH   8  12
ATOM     12  N   UNL     1       0.671   0.909  23.911  0.00  0.00    -0.200 NA
ATOM     13  C   UNL     1       1.173   0.546  23.366  0.00  0.00    +0.236 A 
ATOM     14  N   UNL     1       1.987   0.668  23.409  0.00  0.00    -0.217 NA
ATOM     15  C   UNL     1       2.489   0.306  22.864  0.00  0.00    +0.063 A 
ATOM     16  C   UNL     1       2.176  -0.179  22.275  0.00  0.00    +0.035 A 
ATOM     17  C   UNL     1       1.361  -0.302  22.231  0.00  0.00    +0.103 A 
ATOM     18  N   UNL     1       0.859   0.061  22.777  0.00  0.00    -0.211 NA
BRANCH  15  19
ATOM     19  C   UNL     1       3.303   0.428  22.907  0.00  0.00    +0.040 C 
ATOM     20  C   UNL     1       3.707   1.100  22.650  0.00  0.00    +0.006 C 
ATOM     21  C   UNL     1       4.510   0.987  22.799  0.00  0.00    +0.000 C 
ATOM     22  C   UNL     1       4.603   0.247  23.149  0.00  0.00    +0.000 C 
ATOM     23  C   UNL     1       3.857  -0.099  23.216  0.00  0.00    +0.006 C 
ENDBRANCH  15  19
ENDBRANCH   8  12
BRANCH   4   3
ATOM      1  O   UNL     1      -3.041   2.333  24.860  0.00  0.00    -0.249 OA
ATOM      2  C   UNL     1      -3.355   1.841  24.275  0.00  0.00    +0.344 C 
ATOM      3  N   UNL     1      -2.852   1.471  23.735  0.00  0.00    -0.184 NA
ATOM     24  N   UNL     1      -4.169   1.718  24.232  0.00  0.00    -0.161 NA
BRANCH  24  25
ATOM     25  C   UNL     1      -4.671   2.088  24.772  0.00  0.00    +0.075 A 
ATOM     26  C   UNL     1      -4.754   2.908  24.765  0.00  0.00    +0.017 A 
ATOM     27  C   UNL     1      -5.257   3.277  25.305  0.00  0.00    +0.001 A 
ATOM     28  C   UNL     1      -5.677   2.825  25.852  0.00  0.00    +0.000 A 
ATOM     29  C   UNL     1      -5.594   2.004  25.860  0.00  0.00    +0.001 A 
ATOM     30  C   UNL     1      -5.092   1.636  25.319  0.00  0.00    +0.017 A 
ENDBRANCH  24  25
ENDBRANCH   4   3
TORSDOF 4
ENDMDL
MODEL 3
REMARK VINA RESULT:      -9.2      1.969      2.686
REMARK  Name = 
REMARK  4 active torsions:
REMARK  status: ('A' for Active; 'I' for Inactive)
REMARK    1  A    between atoms: N_3  and  C_4
REMARK    2  A    between atoms: C_8  and  N_12
REMARK    3  A    between atoms: C_15  and  C_19
REMARK    4  A    between atoms: N_24  and  C_25
REMARK                            x       y       z     vdW  Elec       q    Type
REMARK                         _______ _______ _______ _____ _____    ______ ____
ROOT
ATOM      4  C   UNL     1       1.959   0.522  22.896  0.00  0.00    +0.156 C 
ATOM      5  C   UNL     1       1.785  -0.137  22.432  0.00  0.00    +0.166 C 
ATOM      6  O   UNL     1       1.003  -0.353  22.579  0.00  0.00    -0.350 OA
ATOM      7  C   UNL     1       0.693   0.172  23.134  0.00  0.00    +0.166 C 
ATOM      8  C   UNL     1       0.018   0.364  23.568  0.00  0.00    +0.154 C 
ATOM      9  C   UNL     1       0.191   1.023  24.032  0.00  0.00    +0.166 C 
ATOM     10  O   UNL     1       0.973   1.239  23.885  0.00  0.00    -0.350 OA
ATOM     11  C   UNL     1       1.284   0.713  23.330  0.00  0.00    +0.166 C 
ENDROOT
BRANCH   8  12
ATOM     12  N   UNL     1      -0.704  -0.035  23.542  0.00  0.00    -0.200 NA
ATOM     13  C   UNL     1      -1.028  -0.347  24.234  0.00  0.00    +0.236 A 
ATOM     14  N   UNL     1      -1.750  -0.745  24.208  0.00  0.00    -0.217 NA
ATOM     15  C   UNL     1      -2.074  -1.058  24.900  0.00  0.00    +0.063 A 
ATOM     16  C   UNL     1      -1.675  -0.971  25.617  0.00  0.00    +0.035 A 
ATOM     17  C   UNL     1      -0.953  -0.573  25.643  0.00  0.00    +0.103 A 
ATOM     18  N   UNL     1      -0.630  -0.261  24.951  0.00  0.00    -0.211 NA
BRANCH  15  19
ATOM     19  C   UNL     1      -2.795  -1.456  24.875  0.00  0.00    +0.040 C 
ATOM     20  C   UNL     1      -2.898  -2.266  24.753  0.00  0.00    +0.006 C 
ATOM     21  C   UNL     1      -3.707  -2.425  24.770  0.00  0.00    +0.000 C 
ATOM     22  C   UNL     1      -4.104  -1.715  24.901  0.00  0.00    +0.000 C 
ATOM     23  C   UNL     1      -3.540  -1.116  24.966  0.00  0.00    +0.006 C 
ENDBRANCH  15  19
ENDBRANCH   8  12
BRANCH   4   3
ATOM      1  O   UNL     1       3.344  -0.302  23.249  0.00  0.00    -0.249 OA
ATOM      2  C   UNL     1       3.374   0.509  23.098  0.00  0.00    +0.344 C 
ATOM      3  N   UNL     1       2.681   0.921  22.922  0.00  0.00    -0.184 NA
ATOM     24  N   UNL     1       4.095   0.907  23.124  0.00  0.00    -0.161 NA
BRANCH  24  25
ATOM     25  C   UNL     1       4.788   0.495  23.300  0.00  0.00    +0.075 A 
ATOM     26  C   UNL     1       5.214   0.127  22.698  0.00  0.00    +0.017 A 
ATOM     27  C   UNL     1       5.907  -0.285  22.874  0.00  0.00    +0.001 A 
ATOM     28  C   UNL     1       6.174  -0.328  23.654  0.00  0.00    +0.000 A 
ATOM     29  C   UNL     1       5.748   0.040  24.257  0.00  0.00    +0.001 A 
ATOM     30  C   UNL     1       5.055   0.452  24.080  0.00  0.00    +0.017 A 
ENDBRANCH  24  25
ENDBRANCH   4   3
TORSDOF 4
ENDMDL
MODEL 4
REMARK VINA RESULT:      -8.2      3.020      4.620
REMARK  Name = 
REMARK  4 active torsions:
REMARK  status: ('A' for Active; 'I' for Inactive)
REMARK    1  A    between atoms: N_3  and  C_4
REMARK    2  A    between atoms: C_8  and  N_12
REMARK    3  A    between atoms: C_15  and  C_19
REMARK    4  A    between atoms: N_24  and  C_25
REMARK                            x       y       z     vdW  Elec       q    Type
REMARK                         _______ _______ _______ _____ _____    ______ ____
ROOT
ATOM      4  C   UNL     1      -0.485   1.842  24.573  0.00  0.00    +0.156 C 
ATOM      5  C   UNL     1      -0.600   1.651  23.779  0.00  0.00    +0.166 C 
ATOM      6  O   UNL     1      -0.900   0.884  23.743  0.00  0.00    -0.350 OA
ATOM      7  C   UNL     1      -0.971   0.600  24.513  0.00  0.00    +0.166 C 
ATOM      8  C   UNL     1      -1.201  -0.049  24.968  0.00  0.00    +0.154 C 
ATOM      9  C   UNL     1      -1.086   0.142  25.762  0.00  0.00    +0.166 C 
ATOM     10  O   UNL     1      -0.785   0.909  25.799  0.00  0.00    -0.350 OA
ATOM     11  C   UNL     1      -0.714   1.193  25.027  0.00  0.00    +0.166 C 
ENDROOT
BRANCH   8  12
ATOM     12  N   UNL     1      -1.494  -0.764  24.679  0.00  0.00    -0.200 NA
ATOM     13  C   UNL     1      -2.284  -0.967  24.804  0.00  0.00    +0.236 A 
ATOM     14  N   UNL     1      -2.577  -1.681  24.515  0.00  0.00    -0.217 NA
ATOM     15  C   UNL     1      -3.367  -1.884  24.640  0.00  0.00    +0.063 A 
ATOM     16  C   UNL     1      -3.863  -1.373  25.054  0.00  0.00    +0.035 A 
ATOM     17  C   UNL     1      -3.570  -0.657  25.344  0.00  0.00    +0.103 A 
ATOM     18  N   UNL     1      -2.780  -0.455  25.218  0.00  0.00    -0.211 NA
BRANCH  15  19
ATOM     19  C   UNL     1      -3.660  -2.599  24.351  0.00  0.00    +0.040 C 
ATOM     20  C   UNL     1      -3.430  -3.353  24.596  0.00  0.00    +0.006 C 
ATOM     21  C   UNL     1      -3.862  -3.905  24.163  0.00  0.00    +0.000 C 
ATOM     22  C   UNL     1      -4.360  -3.493  23.650  0.00  0.00    +0.000 C 
ATOM     23  C   UNL     1      -4.235  -2.686  23.766  0.00  0.00    +0.006 C 
ENDBRANCH  15  19
ENDBRANCH   8  12
BRANCH   4   3
ATOM      1  O   UNL     1      -1.406   3.208  24.483  0.00  0.00    -0.249 OA
ATOM      2  C   UNL     1      -0.652   3.240  24.818  0.00  0.00    +0.344 C 
ATOM      3  N   UNL     1      -0.192   2.557  24.862  0.00  0.00    -0.184 NA
ATOM     24  N   UNL     1      -0.359   3.955  25.107  0.00  0.00    -0.161 NA
BRANCH  24  25
ATOM     25  C   UNL     1      -0.820   4.638  25.062  0.00  0.00    +0.075 A 
ATOM     26  C   UNL     1      -0.568   5.276  24.603  0.00  0.00    +0.017 A 
ATOM     27  C   UNL     1      -1.028   5.959  24.559  0.00  0.00    +0.001 A 
ATOM     28  C   UNL     1      -1.741   6.004  24.972  0.00  0.00    +0.000 A 
ATOM     29  C   UNL     1      -1.993   5.366  25.431  0.00  0.00    +0.001 A 
ATOM     30  C   UNL     1      -1.532   4.683  25.476  0.00  0.00    +0.017 A 
ENDBRANCH  24  25
ENDBRANCH   4   3
TORSDOF 4
ENDMDL
MODEL 5
REMARK VINA RESULT:      -8.1      1.874      6.520
REMARK  Name = 
REMARK  4 active torsions:
REMARK  status: ('A' for Active; 'I' for Inactive)
REMARK    1  A    between atoms: N_3  and  C_4
REMARK    2  A    between atoms: C_8  and  N_12
REMARK    3  A    between atoms: C_15  and  C_19
REMARK    4  A    between atoms: N_24  and  C_25
REMARK                            x       y       z     vdW  Elec       q    Type
REMARK                         _______ _______ _______ _____ _____    ______ ____
ROOT
ATOM      4  C   UNL     1      -1.493   0.363  24.843  0.00  0.00    +0.156 C 
ATOM      5  C   UNL     1      -0.986   0.163  25.462  0.00  0.00    +0.166 C 
ATOM      6  O   UNL     1      -0.221   0.385  25.246  0.00  0.00    -0.350 OA
ATOM      7  C   UNL     1      -0.256   0.722  24.495  0.00  0.00    +0.166 C 
ATOM      8  C   UNL     1       0.194   1.069  23.896  0.00  0.00    +0.154 C 
ATOM      9  C   UNL     1      -0.313   1.269  23.278  0.00  0.00    +0.166 C 
ATOM     10  O   UNL     1      -1.077   1.047  23.494  0.00  0.00    -0.350 OA
ATOM     11  C   UNL     1      -1.042   0.709  24.246  0.00  0.00    +0.166 C 
ENDROOT
BRANCH   8  12
ATOM     12  N   UNL     1       1.010   1.192  23.914  0.00  0.00    -0.200 NA
ATOM     13  C   UNL     1       1.504   0.763  23.411  0.00  0.00    +0.236 A 
ATOM     14  N   UNL     1       2.319   0.886  23.429  0.00  0.00    -0.217 NA
ATOM     15  C   UNL     1       2.813   0.457  22.926  0.00  0.00    +0.063 A 
ATOM     16  C   UNL     1       2.491  -0.096  22.406  0.00  0.00    +0.035 A 
ATOM     17  C   UNL     1       1.675  -0.220  22.388  0.00  0.00    +0.103 A 
ATOM     18  N   UNL     1       1.182   0.210  22.891  0.00  0.00    -0.211 NA
BRANCH  15  19
ATOM     19  C   UNL     1       3.628   0.580  22.944  0.00  0.00    +0.040 C 
ATOM     20  C   UNL     1       4.024   1.245  22.655  0.00  0.00    +0.006 C 
ATOM     21  C   UNL     1       4.831   1.136  22.786  0.00  0.00    +0.000 C 
ATOM     22  C   UNL     1       4.934   0.406  23.154  0.00  0.00    +0.000 C 
ATOM     23  C   UNL     1       4.190   0.062  23.252  0.00  0.00    +0.006 C 
ENDBRANCH  15  19
ENDBRANCH   8  12
BRANCH   4   3
ATOM      1  O   UNL     1      -2.093  -1.136  24.505  0.00  0.00    -0.249 OA
ATOM      2  C   UNL     1      -2.609  -0.510  24.656  0.00  0.00    +0.344 C 
ATOM      3  N   UNL     1      -2.309   0.240  24.826  0.00  0.00    -0.184 NA
ATOM     24  N   UNL     1      -3.424  -0.634  24.639  0.00  0.00    -0.161 NA
BRANCH  24  25
ATOM     25  C   UNL     1      -3.724  -1.384  24.469  0.00  0.00    +0.075 A 
ATOM     26  C   UNL     1      -4.166  -1.506  23.784  0.00  0.00    +0.017 A 
ATOM     27  C   UNL     1      -4.467  -2.256  23.615  0.00  0.00    +0.001 A 
ATOM     28  C   UNL     1      -4.325  -2.883  24.132  0.00  0.00    +0.000 A 
ATOM     29  C   UNL     1      -3.882  -2.761  24.818  0.00  0.00    +0.001 A 
ATOM     30  C   UNL     1      -3.582  -2.011  24.986  0.00  0.00    +0.017 A 
ENDBRANCH  24  25
ENDBRANCH   4   3
TORSDOF 4
ENDMDL
MODEL 6
REMARK VINA RESULT:      -7.4     17.204     18.080
REMARK  Name = 
REMARK  4 active torsions:
REMARK  status: ('A' for Active; 'I' for Inactive)
REMARK    1  A    between atoms: N_3  and  C_4
REMARK    2  A    between atoms: C_8  and  N_12
REMARK    3  A    between atoms: C_15  and  C_19
REMARK    4  A    between atoms: N_24  and  C_25
REMARK                            x       y       z     vdW  Elec       q    Type
REMARK                         _______ _______ _______ _____ _____    ______ ____
ROOT
ATOM      4  C   UNL     1      -5.035  -9.151   9.717  0.00  0.00    +0.156 C 
ATOM      5  C   UNL     1      -4.844  -8.369   9.897  0.00  0.00    +0.166 C 
ATOM      6  O   UNL     1      -5.450  -7.887   9.612  0.00  0.00    -0.350 OA
ATOM      7  C   UNL     1      -6.014  -8.370   9.255  0.00  0.00    +0.166 C 
ATOM      8  C   UNL     1      -6.738  -8.373   8.858  0.00  0.00    +0.154 C 
ATOM      9  C   UNL     1      -6.928  -9.154   8.678  0.00  0.00    +0.166 C 
ATOM     10  O   UNL     1      -6.323  -9.636   8.963  0.00  0.00    -0.350 OA
ATOM     11  C   UNL     1      -5.758  -9.152   9.320  0.00  0.00    +0.166 C 
ENDROOT
BRANCH   8  12
ATOM     12  N   UNL     1      -7.191  -7.708   8.674  0.00  0.00    -0.200 NA
ATOM     13  C   UNL     1      -8.003  -7.709   8.818  0.00  0.00    +0.236 A 
ATOM     14  N   UNL     1      -8.456  -7.045   8.634  0.00  0.00    -0.217 NA
ATOM     15  C   UNL     1      -9.269  -7.047   8.779  0.00  0.00    +0.063 A 
ATOM     16  C   UNL     1      -9.628  -7.713   9.107  0.00  0.00    +0.035 A 
ATOM     17  C   UNL     1      -9.174  -8.378   9.291  0.00  0.00    +0.103 A 
ATOM     18  N   UNL     1      -8.362  -8.375   9.147  0.00  0.00    -0.211 NA
BRANCH  15  19
ATOM     19  C   UNL     1      -9.722  -6.383   8.595  0.00  0.00    +0.040 C 
ATOM     20  C   UNL     1      -9.540  -5.602   8.790  0.00  0.00    +0.006 C 
ATOM     21  C   UNL     1     -10.142  -5.119   8.499  0.00  0.00    +0.000 C 
ATOM     22  C   UNL     1     -10.696  -5.601   8.124  0.00  0.00    +0.000 C 
ATOM     23  C   UNL     1     -10.436  -6.382   8.183  0.00  0.00    +0.006 C 
ENDBRANCH  15  19
ENDBRANCH   8  12
BRANCH   4   3
ATOM      1  O   UNL     1      -3.981  -9.105  10.986  0.00  0.00    -0.249 OA
ATOM      2  C   UNL     1      -4.055  -9.793  10.535  0.00  0.00    +0.344 C 
ATOM      3  N   UNL     1      -4.582  -9.816   9.901  0.00  0.00    -0.184 NA
ATOM     24  N   UNL     1      -3.602 -10.457  10.720  0.00  0.00    -0.161 NA
BRANCH  24  25
ATOM     25  C   UNL     1      -3.075 -10.434  11.354  0.00  0.00    +0.075 A 
ATOM     26  C   UNL     1      -3.321 -10.671  12.104  0.00  0.00    +0.017 A 
ATOM     27  C   UNL     1      -2.794 -10.649  12.739  0.00  0.00    +0.001 A 
ATOM     28  C   UNL     1      -2.020 -10.389  12.622  0.00  0.00    +0.000 A 
ATOM     29  C   UNL     1      -1.773 -10.152  11.871  0.00  0.00    +0.001 A 
ATOM     30  C   UNL     1      -2.300 -10.175  11.237  0.00  0.00    +0.017 A 
ENDBRANCH  24  25
ENDBRANCH   4   3
TORSDOF 4
ENDMDL
MODEL 7
REMARK VINA RESULT:      -6.6     14.959     15.973
REMARK  Name = 
REMARK  4 active torsions:
REMARK  status: ('A' for Active; 'I' for Inactive)
REMARK    1  A    between atoms: N_3  and  C_4
REMARK    2  A    between atoms: C_8  and  N_12
REMARK    3  A    between atoms: C_15  and  C_19
REMARK    4  A    between atoms: N_24  and  C_25
REMARK                            x       y       z     vdW  Elec       q    Type
REMARK                         _______ _______ _______ _____ _____    ______ ____
ROOT
ATOM      4  C   UNL     1      -5.792 -10.393  13.185  0.00  0.00    +0.156 C 
ATOM      5  C   UNL     1      -5.390  -9.976  13.771  0.00  0.00    +0.166 C 
ATOM      6  O   UNL     1      -5.927  -9.798  14.371  0.00  0.00    -0.350 OA
ATOM      7  C   UNL     1      -6.661 -10.105  14.157  0.00  0.00    +0.166 C 
ATOM      8  C   UNL     1      -7.447 -10.186  14.394  0.00  0.00    +0.154 C 
ATOM      9  C   UNL     1      -7.849 -10.604  13.807  0.00  0.00    +0.166 C 
ATOM     10  O   UNL     1      -7.312 -10.781  13.207  0.00  0.00    -0.350 OA
ATOM     11  C   UNL     1      -6.578 -10.473  13.423  0.00  0.00    +0.166 C 
ENDROOT
BRANCH   8  12
ATOM     12  N   UNL     1      -7.773  -9.899  15.095  0.00  0.00    -0.200 NA
ATOM     13  C   UNL     1      -8.497  -9.504  15.083  0.00  0.00    +0.236 A 
ATOM     14  N   UNL     1      -8.823  -9.217  15.784  0.00  0.00    -0.217 NA
ATOM     15  C   UNL     1      -9.548  -8.823  15.771  0.00  0.00    +0.063 A 
ATOM     16  C   UNL     1      -9.946  -8.715  15.057  0.00  0.00    +0.035 A 
ATOM     17  C   UNL     1      -9.620  -9.002  14.355  0.00  0.00    +0.103 A 
ATOM     18  N   UNL     1      -8.896  -9.397  14.369  0.00  0.00    -0.211 NA
BRANCH  15  19
ATOM     19  C   UNL     1      -9.874  -8.536  16.472  0.00  0.00    +0.040 C 
ATOM     20  C   UNL     1      -9.895  -7.745  16.709  0.00  0.00    +0.006 C 
ATOM     21  C   UNL     1     -10.270  -7.710  17.443  0.00  0.00    +0.000 C 
ATOM     22  C   UNL     1     -10.481  -8.477  17.659  0.00  0.00    +0.000 C 
ATOM     23  C   UNL     1     -10.236  -8.987  17.059  0.00  0.00    +0.006 C 
ENDBRANCH  15  19
ENDBRANCH   8  12
BRANCH   4   3
ATOM      1  O   UNL     1      -4.830  -9.420  12.264  0.00  0.00    -0.249 OA
ATOM      2  C   UNL     1      -4.985 -10.194  12.022  0.00  0.00    +0.344 C 
ATOM      3  N   UNL     1      -5.466 -10.680  12.483  0.00  0.00    -0.184 NA
ATOM     24  N   UNL     1      -4.659 -10.480  11.321  0.00  0.00    -0.161 NA
BRANCH  24  25
ATOM     25  C   UNL     1      -4.178  -9.994  10.860  0.00  0.00    +0.075 A 
ATOM     26  C   UNL     1      -4.515  -9.478  10.313  0.00  0.00    +0.017 A 
ATOM     27  C   UNL     1      -4.034  -8.991   9.852  0.00  0.00    +0.001 A 
ATOM     28  C   UNL     1      -3.214  -9.021   9.939  0.00  0.00    +0.000 A 
ATOM     29  C   UNL     1      -2.876  -9.538  10.486  0.00  0.00    +0.001 A 
ATOM     30  C   UNL     1      -3.358 -10.024  10.947  0.00  0.00    +0.017 A 
ENDBRANCH  24  25
ENDBRANCH   4   3
TORSDOF 4
ENDMDL
MODEL 8
REMARK VINA RESULT:      -6.5     14.533     16.631
REMARK  Name = 
REMARK  4 active torsions:
REMARK  status: ('A' for Active; 'I' for Inactive)
REMARK    1  A    between atoms: N_3  and  C_4
REMARK    2  A    between atoms: C_8  and  N_12
REMARK    3  A    between atoms: C_15  and  C_19
REMARK    4  A    between atoms: N_24  and  C_25
REMARK                            x       y       z     vdW  Elec       q    Type
REMARK                         _______ _______ _______ _____ _____    ______ ____
ROOT
ATOM      4  C   UNL     1      -7.149 -10.054  15.687  0.00  0.00    +0.156 C 
ATOM      5  C   UNL     1      -6.563  -9.695  16.143  0.00  0.00    +0.166 C 
ATOM      6  O   UNL     1      -5.851  -9.751  15.731  0.00  0.00    -0.350 OA
ATOM      7  C   UNL     1      -5.996 -10.142  15.021  0.00  0.00    +0.166 C 
ATOM      8  C   UNL     1      -5.647 -10.419  14.326  0.00  0.00    +0.154 C 
ATOM      9  C   UNL     1      -6.234 -10.777  13.870  0.00  0.00    +0.166 C 
ATOM     10  O   UNL     1      -6.946 -10.722  14.283  0.00  0.00    -0.350 OA
ATOM     11  C   UNL     1      -6.799 -10.330  14.994  0.00  0.00    +0.166 C 
ENDROOT
BRANCH   8  12
ATOM     12  N   UNL     1      -4.850 -10.349  14.124  0.00  0.00    -0.200 NA
ATOM     13  C   UNL     1      -4.618 -10.409  13.335  0.00  0.00    +0.236 A 
ATOM     14  N   UNL     1      -3.822 -10.340  13.132  0.00  0.00    -0.217 NA
ATOM     15  C   UNL     1      -3.590 -10.400  12.343  0.00  0.00    +0.063 A 
ATOM     16  C   UNL     1      -4.154 -10.529  11.756  0.00  0.00    +0.035 A 
ATOM     17  C   UNL     1      -4.951 -10.599  11.958  0.00  0.00    +0.103 A 
ATOM     18  N   UNL     1      -5.183 -10.539  12.748  0.00  0.00    -0.211 NA
BRANCH  15  19
ATOM     19  C   UNL     1      -2.793 -10.330  12.140  0.00  0.00    +0.040 C 
ATOM     20  C   UNL     1      -2.497 -10.021  11.434  0.00  0.00    +0.006 C 
ATOM     21  C   UNL     1      -1.674 -10.057  11.466  0.00  0.00    +0.000 C 
ATOM     22  C   UNL     1      -1.461 -10.388  12.190  0.00  0.00    +0.000 C 
ATOM     23  C   UNL     1      -2.153 -10.557  12.607  0.00  0.00    +0.006 C 
ENDBRANCH  15  19
ENDBRANCH   8  12
BRANCH   4   3
ATOM      1  O   UNL     1      -7.975  -8.741  16.250  0.00  0.00    -0.249 OA
ATOM      2  C   UNL     1      -8.360  -9.467  16.171  0.00  0.00    +0.344 C 
ATOM      3  N   UNL     1      -7.947 -10.123  15.890  0.00  0.00    -0.184 NA
ATOM     24  N   UNL     1      -9.156  -9.536  16.373  0.00  0.00    -0.161 NA
BRANCH  24  25
ATOM     25  C   UNL     1      -9.570  -8.880  16.655  0.00  0.00    +0.075 A 
ATOM     26  C   UNL     1      -9.889  -8.335  16.125  0.00  0.00    +0.017 A 
ATOM     27  C   UNL     1     -10.302  -7.679  16.407  0.00  0.00    +0.001 A 
ATOM     28  C   UNL     1     -10.396  -7.568  17.219  0.00  0.00    +0.000 A 
ATOM     29  C   UNL     1     -10.077  -8.113  17.749  0.00  0.00    +0.001 A 
ATOM     30  C   UNL     1      -9.663  -8.769  17.467  0.00  0.00    +0.017 A 
ENDBRANCH  24  25
ENDBRANCH   4   3
TORSDOF 4
ENDMDL
MODEL 9
REMARK VINA RESULT:      -6.5     17.193     19.022
REMARK  Name = 
REMARK  4 active torsions:
REMARK  status: ('A' for Active; 'I' for Inactive)
REMARK    1  A    between atoms: N_3  and  C_4
REMARK    2  A    between atoms: C_8  and  N_12
REMARK    3  A    between atoms: C_15  and  C_19
REMARK    4  A    between atoms: N_24  and  C_25
REMARK                            x       y       z     vdW  Elec       q    Type
REMARK                         _______ _______ _______ _____ _____    ______ ____
ROOT
ATOM      4  C   UNL     1      -6.521  -8.766   8.949  0.00  0.00    +0.156 C 
ATOM      5  C   UNL     1      -6.352  -8.050   9.321  0.00  0.00    +0.166 C 
ATOM      6  O   UNL     1      -5.548  -8.041   9.503  0.00  0.00    -0.350 OA
ATOM      7  C   UNL     1      -5.219  -8.750   9.244  0.00  0.00    +0.166 C 
ATOM      8  C   UNL     1      -4.519  -9.185   9.196  0.00  0.00    +0.154 C 
ATOM      9  C   UNL     1      -4.688  -9.901   8.824  0.00  0.00    +0.166 C 
ATOM     10  O   UNL     1      -5.492  -9.910   8.642  0.00  0.00    -0.350 OA
ATOM     11  C   UNL     1      -5.821  -9.199   8.902  0.00  0.00    +0.166 C 
ENDROOT
BRANCH   8  12
ATOM     12  N   UNL     1      -3.780  -8.944   9.472  0.00  0.00    -0.200 NA
ATOM     13  C   UNL     1      -3.388  -9.389  10.046  0.00  0.00    +0.236 A 
ATOM     14  N   UNL     1      -2.650  -9.148  10.322  0.00  0.00    -0.217 NA
ATOM     15  C   UNL     1      -2.258  -9.593  10.896  0.00  0.00    +0.063 A 
ATOM     16  C   UNL     1      -2.606 -10.279  11.194  0.00  0.00    +0.035 A 
ATOM     17  C   UNL     1      -3.345 -10.520  10.918  0.00  0.00    +0.103 A 
ATOM     18  N   UNL     1      -3.736 -10.075  10.344  0.00  0.00    -0.211 NA
BRANCH  15  19
ATOM     19  C   UNL     1      -1.519  -9.353  11.172  0.00  0.00    +0.040 C 
ATOM     20  C   UNL     1      -0.921  -9.007  10.720  0.00  0.00    +0.006 C 
ATOM     21  C   UNL     1      -0.281  -8.856  11.217  0.00  0.00    +0.000 C 
ATOM     22  C   UNL     1      -0.482  -9.108  11.976  0.00  0.00    +0.000 C 
ATOM     23  C   UNL     1      -1.248  -9.415  11.948  0.00  0.00    +0.006 C 
ENDBRANCH  15  19
ENDBRANCH   8  12
BRANCH   4   3
ATOM      1  O   UNL     1      -7.880  -8.414   9.816  0.00  0.00    -0.249 OA
ATOM      2  C   UNL     1      -7.940  -8.831   9.106  0.00  0.00    +0.344 C 
ATOM      3  N   UNL     1      -7.260  -9.007   8.673  0.00  0.00    -0.184 NA
ATOM     24  N   UNL     1      -8.679  -9.072   8.831  0.00  0.00    -0.161 NA
BRANCH  24  25
ATOM     25  C   UNL     1      -9.359  -8.896   9.264  0.00  0.00    +0.075 A 
ATOM     26  C   UNL     1      -9.628  -9.420   9.841  0.00  0.00    +0.017 A 
ATOM     27  C   UNL     1     -10.308  -9.244  10.274  0.00  0.00    +0.001 A 
ATOM     28  C   UNL     1     -10.719  -8.543  10.129  0.00  0.00    +0.000 A 
ATOM     29  C   UNL     1     -10.449  -8.018   9.552  0.00  0.00    +0.001 A 
ATOM     30  C   UNL     1      -9.770  -8.195   9.119  0.00  0.00    +0.017 A 
ENDBRANCH  24  25
ENDBRANCH   4   3
TORSDOF 4
ENDMDL
MODEL 10
REMARK VINA RESULT:      -6.3     15.152     17.256
REMARK  Name = 
REMARK  4 active torsions:
REMARK  status: ('A' for Active; 'I' for Inactive)
REMARK    1  A    between atoms: N_3  and  C_4
REMARK    2  A    between atoms: C_8  and  N_12
REMARK    3  A    between atoms: C_15  and  C_19
REMARK    4  A    between atoms: N_24  and  C_25
REMARK                            x       y       z     vdW  Elec       q    Type
REMARK                         _______ _______ _______ _____ _____    ______ ____
ROOT
ATOM      4  C   UNL     1      -7.618 -10.137  14.673  0.00  0.00    +0.156 C 
ATOM      5  C   UNL     1      -8.131  -9.896  14.074  0.00  0.00    +0.166 C 
ATOM      6  O   UNL     1      -7.675  -9.647  13.433  0.00  0.00    -0.350 OA
ATOM      7  C   UNL     1      -6.881  -9.734  13.636  0.00  0.00    +0.166 C 
ATOM      8  C   UNL     1      -6.107  -9.634  13.367  0.00  0.00    +0.154 C 
ATOM      9  C   UNL     1      -5.594  -9.875  13.966  0.00  0.00    +0.166 C 
ATOM     10  O   UNL     1      -6.051 -10.124  14.607  0.00  0.00    -0.350 OA
ATOM     11  C   UNL     1      -6.846 -10.037  14.403  0.00  0.00    +0.166 C 
ENDROOT
BRANCH   8  12
ATOM     12  N   UNL     1      -5.886  -9.344  12.627  0.00  0.00    -0.200 NA
ATOM     13  C   UNL     1      -5.297  -9.726  12.193  0.00  0.00    +0.236 A 
ATOM     14  N   UNL     1      -5.075  -9.436  11.454  0.00  0.00    -0.217 NA
ATOM     15  C   UNL     1      -4.486  -9.818  11.020  0.00  0.00    +0.063 A 
ATOM     16  C   UNL     1      -4.118 -10.489  11.327  0.00  0.00    +0.035 A 
ATOM     17  C   UNL     1      -4.340 -10.780  12.067  0.00  0.00    +0.103 A 
ATOM     18  N   UNL     1      -4.929 -10.398  12.500  0.00  0.00    -0.211 NA
BRANCH  15  19
ATOM     19  C   UNL     1      -4.264  -9.528  10.281  0.00  0.00    +0.040 C 
ATOM     20  C   UNL     1      -4.717  -9.562   9.591  0.00  0.00    +0.006 C 
ATOM     21  C   UNL     1      -4.284  -9.208   8.985  0.00  0.00    +0.000 C 
ATOM     22  C   UNL     1      -3.564  -8.957   9.299  0.00  0.00    +0.000 C 
ATOM     23  C   UNL     1      -3.552  -9.154  10.099  0.00  0.00    +0.006 C 
ENDBRANCH  15  19
ENDBRANCH   8  12
BRANCH   4   3
ATOM      1  O   UNL     1      -8.891  -9.461  15.477  0.00  0.00    -0.249 OA
ATOM      2  C   UNL     1      -8.476 -10.089  15.816  0.00  0.00    +0.344 C 
ATOM      3  N   UNL     1      -7.840 -10.427  15.413  0.00  0.00    -0.184 NA
ATOM     24  N   UNL     1      -8.697 -10.379  16.555  0.00  0.00    -0.161 NA
BRANCH  24  25
ATOM     25  C   UNL     1      -9.334 -10.041  16.958  0.00  0.00    +0.075 A 
ATOM     26  C   UNL     1     -10.083 -10.381  16.904  0.00  0.00    +0.017 A 
ATOM     27  C   UNL     1     -10.720 -10.043  17.306  0.00  0.00    +0.001 A 
ATOM     28  C   UNL     1     -10.606  -9.365  17.762  0.00  0.00    +0.000 A 
ATOM     29  C   UNL     1      -9.856  -9.025  17.817  0.00  0.00    +0.001 A 
ATOM     30  C   UNL     1      -9.220  -9.364  17.414  0.00  0.00    +0.017 A 
ENDBRANCH  24  25
ENDBRANCH   4   3
TORSDOF 4
ENDMDL
