MODEL 1
REMARK VINA RESULT:     -10.7      0.000      0.000
REMARK  Name = 
REMARK  6 active torsions:
REMARK  status: ('A' for Active; 'I' for Inactive)
REMARK    1  A    between atoms: N_2  and  C_4
REMARK    2  A    between atoms: C_7  and  C_10
REMARK    3  A    between atoms: C_13  and  C_15
REMARK    4  A    between atoms: N_19  and  C_20
REMARK    5  A    between atoms: C_20  and  C_21
REMARK    6  A    between atoms: C_24  and  C_27
REMARK                            x       y       z     vdW  Elec       q    Type
REMARK                         _______ _______ _______ _____ _____    ______ ____
ROOT
ATOM     15  C   UNL     1      -4.950   2.256  25.402  0.00  0.00    +0.138 C 
ATOM     16  C   UNL     1      -5.525   2.554  25.913  0.00  0.00    +0.027 C 
ATOM     17  C   UNL     1      -5.318   3.328  26.107  0.00  0.00    +0.019 C 
ATOM     18  C   UNL     1      -4.614   3.510  25.717  0.00  0.00    +0.073 C 
ATOM     19  N   UNL     1      -4.387   2.847  25.280  0.00  0.00    -0.263 NA
ENDROOT
BRANCH  15  13
ATOM     10  C   UNL     1      -4.576   0.253  24.767  0.00  0.00    +0.205 A 
ATOM     11  N   UNL     1      -5.270   0.423  24.355  0.00  0.00    -0.056 NA
ATOM     12  O   UNL     1      -5.495   1.195  24.542  0.00  0.00    -0.336 OA
ATOM     13  C   UNL     1      -4.940   1.501  25.071  0.00  0.00    +0.251 A 
ATOM     14  N   UNL     1      -4.372   0.918  25.209  0.00  0.00    -0.190 NA
BRANCH  10   7
ATOM      4  C   UNL     1      -3.327  -1.883  24.690  0.00  0.00    +0.132 A 
ATOM      5  C   UNL     1      -3.389  -1.466  25.399  0.00  0.00    +0.034 A 
ATOM      6  C   UNL     1      -3.805  -0.754  25.425  0.00  0.00    +0.008 A 
ATOM      7  C   UNL     1      -4.160  -0.459  24.742  0.00  0.00    +0.058 A 
ATOM      8  C   UNL     1      -4.098  -0.875  24.032  0.00  0.00    +0.103 A 
ATOM      9  N   UNL     1      -3.682  -1.587  24.006  0.00  0.00    -0.229 NA
BRANCH   4   2
ATOM      1  C   UNL     1      -3.317  -3.311  24.706  0.00  0.00    +0.114 C 
ATOM      2  N   UNL     1      -2.910  -2.594  24.665  0.00  0.00    -0.290 N 
ATOM      3  C   UNL     1      -2.089  -2.589  24.598  0.00  0.00    +0.114 C 
ENDBRANCH   4   2
ENDBRANCH  10   7
ENDBRANCH  15  13
BRANCH  19  20
ATOM     20  C   UNL     1      -3.714   2.786  24.807  0.00  0.00    +0.099 C 
BRANCH  20  21
ATOM     21  C   UNL     1      -3.105   3.336  24.882  0.00  0.00    -0.006 A 
ATOM     22  C   UNL     1      -3.093   4.007  24.402  0.00  0.00    -0.003 A 
ATOM     23  C   UNL     1      -2.483   4.558  24.477  0.00  0.00    +0.006 A 
ATOM     24  C   UNL     1      -1.886   4.437  25.034  0.00  0.00    +0.080 A 
ATOM     25  C   UNL     1      -1.898   3.767  25.514  0.00  0.00    +0.006 A 
ATOM     26  C   UNL     1      -2.507   3.217  25.439  0.00  0.00    -0.003 A 
BRANCH  24  27
ATOM     27  C   UNL     1      -1.276   4.988  25.109  0.00  0.00    +0.388 C 
ATOM     28  O   UNL     1      -1.452   5.788  25.212  0.00  0.00    -0.241 OA
ATOM     29  O   UNL     1      -0.490   4.739  25.083  0.00  0.00    -0.241 OA
ENDBRANCH  24  27
ENDBRANCH  20  21
ENDBRANCH  19  20
TORSDOF 6
ENDMDL
MODEL 2
REMARK VINA RESULT:     -10.2      1.776      5.276
REMARK  Name = 
REMARK  6 active torsions:
REMARK  status: ('A' for Active; 'I' for Inactive)
REMARK    1  A    between atoms: N_2  and  C_4
REMARK    2  A    between atoms: C_7  and  C_10
REMARK    3  A    between atoms: C_13  and  C_15
REMARK    4  A    between atoms: N_19  and  C_20
REMARK    5  A    between atoms: C_20  and  C_21
REMARK    6  A    between atoms: C_24  and  C_27
REMARK                            x       y       z     vdW  Elec       q    Type
REMARK                         _______ _______ _______ _____ _____    ______ ____
ROOT
ATOM     15  C   UNL     1      -5.252   1.912  25.174  0.00  0.00    +0.138 C 
ATOM     16  C   UNL     1      -6.066   1.972  25.054  0.00  0.00    +0.027 C 
ATOM     17  C   UNL     1      -6.342   1.235  24.806  0.00  0.00    +0.019 C 
ATOM     18  C   UNL     1      -5.698   0.720  24.773  0.00  0.00    +0.073 C 
ATOM     19  N   UNL     1      -5.024   1.139  25.001  0.00  0.00    -0.263 NA
ENDROOT
BRANCH  15  13
ATOM     10  C   UNL     1      -3.724   3.367  25.502  0.00  0.00    +0.205 A 
ATOM     11  N   UNL     1      -4.247   3.544  26.116  0.00  0.00    -0.056 NA
ATOM     12  O   UNL     1      -4.883   3.020  26.068  0.00  0.00    -0.336 OA
ATOM     13  C   UNL     1      -4.753   2.520  25.425  0.00  0.00    +0.251 A 
ATOM     14  N   UNL     1      -4.037   2.735  25.075  0.00  0.00    -0.190 NA
BRANCH  10   7
ATOM      4  C   UNL     1      -1.593   4.532  25.025  0.00  0.00    +0.132 A 
ATOM      5  C   UNL     1      -1.704   4.153  25.750  0.00  0.00    +0.034 A 
ATOM      6  C   UNL     1      -2.414   3.765  25.908  0.00  0.00    +0.008 A 
ATOM      7  C   UNL     1      -3.014   3.755  25.343  0.00  0.00    +0.058 A 
ATOM      8  C   UNL     1      -2.904   4.134  24.618  0.00  0.00    +0.103 A 
ATOM      9  N   UNL     1      -2.194   4.522  24.459  0.00  0.00    -0.229 NA
BRANCH   4   2
ATOM      1  C   UNL     1      -0.204   4.483  24.695  0.00  0.00    +0.114 C 
ATOM      2  N   UNL     1      -0.883   4.920  24.867  0.00  0.00    -0.290 N 
ATOM      3  C   UNL     1      -0.851   5.744  24.880  0.00  0.00    +0.114 C 
ENDBRANCH   4   2
ENDBRANCH  10   7
ENDBRANCH  15  13
BRANCH  19  20
ATOM     20  C   UNL     1      -4.258   0.836  25.047  0.00  0.00    +0.099 C 
BRANCH  20  21
ATOM     21  C   UNL     1      -4.116   0.043  24.872  0.00  0.00    -0.006 A 
ATOM     22  C   UNL     1      -4.087  -0.207  24.087  0.00  0.00    -0.003 A 
ATOM     23  C   UNL     1      -3.945  -1.001  23.912  0.00  0.00    +0.006 A 
ATOM     24  C   UNL     1      -3.832  -1.544  24.523  0.00  0.00    +0.080 A 
ATOM     25  C   UNL     1      -3.861  -1.294  25.308  0.00  0.00    +0.006 A 
ATOM     26  C   UNL     1      -4.003  -0.500  25.483  0.00  0.00    -0.003 A 
BRANCH  24  27
ATOM     27  C   UNL     1      -3.690  -2.338  24.348  0.00  0.00    +0.388 C 
ATOM     28  O   UNL     1      -3.034  -2.721  24.671  0.00  0.00    -0.241 OA
ATOM     29  O   UNL     1      -4.204  -2.748  23.849  0.00  0.00    -0.241 OA
ENDBRANCH  24  27
ENDBRANCH  20  21
ENDBRANCH  19  20
TORSDOF 6
ENDMDL
MODEL 3
REMARK VINA RESULT:      -9.8      2.567      6.208
REMARK  Name = 
REMARK  6 active torsions:
REMARK  status: ('A' for Active; 'I' for Inactive)
REMARK    1  A    between atoms: N_2  and  C_4
REMARK    2  A    between atoms: C_7  and  C_10
REMARK    3  A    between atoms: C_13  and  C_15
REMARK    4  A    between atoms: N_19  and  C_20
REMARK    5  A    between atoms: C_20  and  C_21
REMARK    6  A    between atoms: C_24  and  C_27
REMARK                            x       y       z     vdW  Elec       q    Type
REMARK                         _______ _______ _______ _____ _____    ______ ____
ROOT
ATOM     15  C   UNL     1      -0.582   0.051  24.776  0.00  0.00    +0.138 C 
ATOM     16  C   UNL     1       0.073  -0.183  24.331  0.00  0.00    +0.027 C 
ATOM     17  C   UNL     1      -0.081  -0.931  24.022  0.00  0.00    +0.019 C 
ATOM     18  C   UNL     1      -0.833  -1.161  24.275  0.00  0.00    +0.073 C 
ATOM     19  N   UNL     1      -1.142  -0.554  24.741  0.00  0.00    -0.263 NA
ENDROOT
BRANCH  15  13
ATOM     10  C   UNL     1      -0.872   2.054  25.453  0.00  0.00    +0.205 A 
ATOM     11  N   UNL     1      -0.702   1.669  26.163  0.00  0.00    -0.056 NA
ATOM     12  O   UNL     1      -0.572   0.871  25.995  0.00  0.00    -0.336 OA
ATOM     13  C   UNL     1      -0.663   0.764  25.182  0.00  0.00    +0.251 A 
ATOM     14  N   UNL     1      -0.848   1.495  24.848  0.00  0.00    -0.190 NA
BRANCH  10   7
ATOM      4  C   UNL     1      -1.368   4.465  25.190  0.00  0.00    +0.132 A 
ATOM      5  C   UNL     1      -1.956   3.948  25.451  0.00  0.00    +0.034 A 
ATOM      6  C   UNL     1      -1.790   3.145  25.539  0.00  0.00    +0.008 A 
ATOM      7  C   UNL     1      -1.037   2.858  25.365  0.00  0.00    +0.058 A 
ATOM      8  C   UNL     1      -0.449   3.373  25.104  0.00  0.00    +0.103 A 
ATOM      9  N   UNL     1      -0.614   4.177  25.016  0.00  0.00    -0.229 NA
BRANCH   4   2
ATOM      1  C   UNL     1      -2.260   5.569  25.352  0.00  0.00    +0.114 C 
ATOM      2  N   UNL     1      -1.533   5.268  25.102  0.00  0.00    -0.290 N 
ATOM      3  C   UNL     1      -0.973   5.770  24.764  0.00  0.00    +0.114 C 
ENDBRANCH   4   2
ENDBRANCH  10   7
ENDBRANCH  15  13
BRANCH  19  20
ATOM     20  C   UNL     1      -1.881  -0.552  25.107  0.00  0.00    +0.099 C 
BRANCH  20  21
ATOM     21  C   UNL     1      -2.479  -1.048  24.831  0.00  0.00    -0.006 A 
ATOM     22  C   UNL     1      -3.003  -0.780  24.253  0.00  0.00    -0.003 A 
ATOM     23  C   UNL     1      -3.603  -1.276  23.977  0.00  0.00    +0.006 A 
ATOM     24  C   UNL     1      -3.677  -2.040  24.279  0.00  0.00    +0.080 A 
ATOM     25  C   UNL     1      -3.153  -2.308  24.856  0.00  0.00    +0.006 A 
ATOM     26  C   UNL     1      -2.554  -1.812  25.133  0.00  0.00    -0.003 A 
BRANCH  24  27
ATOM     27  C   UNL     1      -4.276  -2.536  24.002  0.00  0.00    +0.388 C 
ATOM     28  O   UNL     1      -4.162  -3.353  23.990  0.00  0.00    -0.241 OA
ATOM     29  O   UNL     1      -4.988  -2.214  23.739  0.00  0.00    -0.241 OA
ENDBRANCH  24  27
ENDBRANCH  20  21
ENDBRANCH  19  20
TORSDOF 6
ENDMDL
MODEL 4
REMARK VINA RESULT:      -9.6      2.210      3.580
REMARK  Name = 
REMARK  6 active torsions:
REMARK  status: ('A' for Active; 'I' for Inactive)
REMARK    1  A    between atoms: N_2  and  C_4
REMARK    2  A    between atoms: C_7  and  C_10
REMARK    3  A    between atoms: C_13  and  C_15
REMARK    4  A    between atoms: N_19  and  C_20
REMARK    5  A    between atoms: C_20  and  C_21
REMARK    6  A    between atoms: C_24  and  C_27
REMARK                            x       y       z     vdW  Elec       q    Type
REMARK                         _______ _______ _______ _____ _____    ______ ____
ROOT
ATOM     15  C   UNL     1      -1.134   3.509  24.839  0.00  0.00    +0.138 C 
ATOM     16  C   UNL     1      -0.733   4.168  25.133  0.00  0.00    +0.027 C 
ATOM     17  C   UNL     1      -1.284   4.768  25.255  0.00  0.00    +0.019 C 
ATOM     18  C   UNL     1      -2.027   4.481  25.037  0.00  0.00    +0.073 C 
ATOM     19  N   UNL     1      -1.934   3.703  24.780  0.00  0.00    -0.263 NA
ENDROOT
BRANCH  15  13
ATOM     10  C   UNL     1      -0.554   1.473  24.564  0.00  0.00    +0.205 A 
ATOM     11  N   UNL     1       0.009   1.863  24.103  0.00  0.00    -0.056 NA
ATOM     12  O   UNL     1      -0.140   2.673  24.150  0.00  0.00    -0.336 OA
ATOM     13  C   UNL     1      -0.794   2.784  24.640  0.00  0.00    +0.251 A 
ATOM     14  N   UNL     1      -1.050   2.042  24.896  0.00  0.00    -0.190 NA
BRANCH  10   7
ATOM      4  C   UNL     1      -0.721  -0.974  24.895  0.00  0.00    +0.132 A 
ATOM      5  C   UNL     1      -0.988  -0.459  25.481  0.00  0.00    +0.034 A 
ATOM      6  C   UNL     1      -0.932   0.357  25.371  0.00  0.00    +0.008 A 
ATOM      7  C   UNL     1      -0.610   0.657  24.675  0.00  0.00    +0.058 A 
ATOM      8  C   UNL     1      -0.343   0.143  24.087  0.00  0.00    +0.103 A 
ATOM      9  N   UNL     1      -0.398  -0.673  24.197  0.00  0.00    -0.229 NA
BRANCH   4   2
ATOM      1  C   UNL     1      -1.434  -2.200  24.720  0.00  0.00    +0.114 C 
ATOM      2  N   UNL     1      -0.777  -1.790  25.005  0.00  0.00    -0.290 N 
ATOM      3  C   UNL     1      -0.177  -2.195  25.399  0.00  0.00    +0.114 C 
ENDBRANCH   4   2
ENDBRANCH  10   7
ENDBRANCH  15  13
BRANCH  19  20
ATOM     20  C   UNL     1      -2.534   3.206  24.511  0.00  0.00    +0.099 C 
BRANCH  20  21
ATOM     21  C   UNL     1      -3.308   3.312  24.776  0.00  0.00    -0.006 A 
ATOM     22  C   UNL     1      -3.865   3.676  24.290  0.00  0.00    -0.003 A 
ATOM     23  C   UNL     1      -4.639   3.782  24.556  0.00  0.00    +0.006 A 
ATOM     24  C   UNL     1      -4.855   3.524  25.309  0.00  0.00    +0.080 A 
ATOM     25  C   UNL     1      -4.297   3.160  25.796  0.00  0.00    +0.006 A 
ATOM     26  C   UNL     1      -3.524   3.054  25.530  0.00  0.00    -0.003 A 
BRANCH  24  27
ATOM     27  C   UNL     1      -5.629   3.630  25.575  0.00  0.00    +0.388 C 
ATOM     28  O   UNL     1      -6.100   2.974  25.749  0.00  0.00    -0.241 OA
ATOM     29  O   UNL     1      -5.932   4.392  25.667  0.00  0.00    -0.241 OA
ENDBRANCH  24  27
ENDBRANCH  20  21
ENDBRANCH  19  20
TORSDOF 6
ENDMDL
MODEL 5
REMARK VINA RESULT:      -9.6      3.007      4.126
REMARK  Name = 
REMARK  6 active torsions:
REMARK  status: ('A' for Active; 'I' for Inactive)
REMARK    1  A    between atoms: N_2  and  C_4
REMARK    2  A    between atoms: C_7  and  C_10
REMARK    3  A    between atoms: C_13  and  C_15
REMARK    4  A    between atoms: N_19  and  C_20
REMARK    5  A    between atoms: C_20  and  C_21
REMARK    6  A    between atoms: C_24  and  C_27
REMARK                            x       y       z     vdW  Elec       q    Type
REMARK                         _______ _______ _______ _____ _____    ______ ____
ROOT
ATOM     15  C   UNL     1      -2.900  -0.152  25.145  0.00  0.00    +0.138 C 
ATOM     16  C   UNL     1      -3.282  -0.844  25.383  0.00  0.00    +0.027 C 
ATOM     17  C   UNL     1      -4.095  -0.709  25.359  0.00  0.00    +0.019 C 
ATOM     18  C   UNL     1      -4.216   0.068  25.105  0.00  0.00    +0.073 C 
ATOM     19  N   UNL     1      -3.478   0.411  24.974  0.00  0.00    -0.263 NA
ENDROOT
BRANCH  15  13
ATOM     10  C   UNL     1      -0.845   0.036  24.599  0.00  0.00    +0.205 A 
ATOM     11  N   UNL     1      -0.812   0.211  25.405  0.00  0.00    -0.056 NA
ATOM     12  O   UNL     1      -1.579   0.162  25.708  0.00  0.00    -0.336 OA
ATOM     13  C   UNL     1      -2.084  -0.044  25.089  0.00  0.00    +0.251 A 
ATOM     14  N   UNL     1      -1.631  -0.121  24.404  0.00  0.00    -0.190 NA
BRANCH  10   7
ATOM      4  C   UNL     1       1.078  -0.008  23.041  0.00  0.00    +0.132 A 
ATOM      5  C   UNL     1       0.753   0.713  23.275  0.00  0.00    +0.034 A 
ATOM      6  C   UNL     1       0.112   0.728  23.795  0.00  0.00    +0.008 A 
ATOM      7  C   UNL     1      -0.204   0.021  24.080  0.00  0.00    +0.058 A 
ATOM      8  C   UNL     1       0.120  -0.701  23.846  0.00  0.00    +0.103 A 
ATOM      9  N   UNL     1       0.761  -0.715  23.327  0.00  0.00    -0.229 NA
BRANCH   4   2
ATOM      1  C   UNL     1       2.456   0.252  22.770  0.00  0.00    +0.114 C 
ATOM      2  N   UNL     1       1.719  -0.023  22.522  0.00  0.00    -0.290 N 
ATOM      3  C   UNL     1       1.622  -0.313  21.756  0.00  0.00    +0.114 C 
ENDBRANCH   4   2
ENDBRANCH  10   7
ENDBRANCH  15  13
BRANCH  19  20
ATOM     20  C   UNL     1      -3.341   1.183  24.716  0.00  0.00    +0.099 C 
BRANCH  20  21
ATOM     21  C   UNL     1      -3.872   1.783  24.910  0.00  0.00    -0.006 A 
ATOM     22  C   UNL     1      -3.668   2.348  25.475  0.00  0.00    -0.003 A 
ATOM     23  C   UNL     1      -4.199   2.949  25.669  0.00  0.00    +0.006 A 
ATOM     24  C   UNL     1      -4.935   2.984  25.297  0.00  0.00    +0.080 A 
ATOM     25  C   UNL     1      -5.140   2.418  24.733  0.00  0.00    +0.006 A 
ATOM     26  C   UNL     1      -4.609   1.818  24.539  0.00  0.00    -0.003 A 
BRANCH  24  27
ATOM     27  C   UNL     1      -5.467   3.584  25.492  0.00  0.00    +0.388 C 
ATOM     28  O   UNL     1      -6.148   3.409  25.924  0.00  0.00    -0.241 OA
ATOM     29  O   UNL     1      -5.317   4.360  25.254  0.00  0.00    -0.241 OA
ENDBRANCH  24  27
ENDBRANCH  20  21
ENDBRANCH  19  20
TORSDOF 6
ENDMDL
MODEL 6
REMARK VINA RESULT:      -9.4      2.311      3.286
REMARK  Name = 
REMARK  6 active torsions:
REMARK  status: ('A' for Active; 'I' for Inactive)
REMARK    1  A    between atoms: N_2  and  C_4
REMARK    2  A    between atoms: C_7  and  C_10
REMARK    3  A    between atoms: C_13  and  C_15
REMARK    4  A    between atoms: N_19  and  C_20
REMARK    5  A    between atoms: C_20  and  C_21
REMARK    6  A    between atoms: C_24  and  C_27
REMARK                            x       y       z     vdW  Elec       q    Type
REMARK                         _______ _______ _______ _____ _____    ______ ____
ROOT
ATOM     15  C   UNL     1      -0.135   0.851  24.510  0.00  0.00    +0.138 C 
ATOM     16  C   UNL     1       0.482   0.820  23.963  0.00  0.00    +0.027 C 
ATOM     17  C   UNL     1       0.765   1.587  23.853  0.00  0.00    +0.019 C 
ATOM     18  C   UNL     1       0.323   2.093  24.333  0.00  0.00    +0.073 C 
ATOM     19  N   UNL     1      -0.233   1.638  24.740  0.00  0.00    -0.263 NA
ENDROOT
BRANCH  15  13
ATOM     10  C   UNL     1      -1.484  -0.767  24.854  0.00  0.00    +0.205 A 
ATOM     11  N   UNL     1      -1.024  -0.795  25.539  0.00  0.00    -0.056 NA
ATOM     12  O   UNL     1      -0.462  -0.192  25.493  0.00  0.00    -0.336 OA
ATOM     13  C   UNL     1      -0.575   0.209  24.781  0.00  0.00    +0.251 A 
ATOM     14  N   UNL     1      -1.207  -0.147  24.386  0.00  0.00    -0.190 NA
BRANCH  10   7
ATOM      4  C   UNL     1      -3.366  -2.277  24.304  0.00  0.00    +0.132 A 
ATOM      5  C   UNL     1      -3.508  -1.479  24.456  0.00  0.00    +0.034 A 
ATOM      6  C   UNL     1      -2.881  -0.975  24.640  0.00  0.00    +0.008 A 
ATOM      7  C   UNL     1      -2.112  -1.270  24.671  0.00  0.00    +0.058 A 
ATOM      8  C   UNL     1      -1.968  -2.068  24.519  0.00  0.00    +0.103 A 
ATOM      9  N   UNL     1      -2.596  -2.572  24.335  0.00  0.00    -0.229 NA
BRANCH   4   2
ATOM      1  C   UNL     1      -4.644  -2.493  23.702  0.00  0.00    +0.114 C 
ATOM      2  N   UNL     1      -3.994  -2.781  24.121  0.00  0.00    -0.290 N 
ATOM      3  C   UNL     1      -3.970  -3.570  24.356  0.00  0.00    +0.114 C 
ENDBRANCH   4   2
ENDBRANCH  10   7
ENDBRANCH  15  13
BRANCH  19  20
ATOM     20  C   UNL     1      -0.789   1.920  25.279  0.00  0.00    +0.099 C 
BRANCH  20  21
ATOM     21  C   UNL     1      -1.006   2.715  25.271  0.00  0.00    -0.006 A 
ATOM     22  C   UNL     1      -0.563   3.268  25.692  0.00  0.00    -0.003 A 
ATOM     23  C   UNL     1      -0.780   4.065  25.683  0.00  0.00    +0.006 A 
ATOM     24  C   UNL     1      -1.441   4.306  25.253  0.00  0.00    +0.080 A 
ATOM     25  C   UNL     1      -1.884   3.753  24.832  0.00  0.00    +0.006 A 
ATOM     26  C   UNL     1      -1.667   2.958  24.840  0.00  0.00    -0.003 A 
BRANCH  24  27
ATOM     27  C   UNL     1      -1.659   5.103  25.244  0.00  0.00    +0.388 C 
ATOM     28  O   UNL     1      -1.162   5.663  24.896  0.00  0.00    -0.241 OA
ATOM     29  O   UNL     1      -2.373   5.338  25.583  0.00  0.00    -0.241 OA
ENDBRANCH  24  27
ENDBRANCH  20  21
ENDBRANCH  19  20
TORSDOF 6
ENDMDL
MODEL 7
REMARK VINA RESULT:      -9.4      3.078      4.508
REMARK  Name = 
REMARK  6 active torsions:
REMARK  status: ('A' for Active; 'I' for Inactive)
REMARK    1  A    between atoms: N_2  and  C_4
REMARK    2  A    between atoms: C_7  and  C_10
REMARK    3  A    between atoms: C_13  and  C_15
REMARK    4  A    between atoms: N_19  and  C_20
REMARK    5  A    between atoms: C_20  and  C_21
REMARK    6  A    between atoms: C_24  and  C_27
REMARK                            x       y       z     vdW  Elec       q    Type
REMARK                         _______ _______ _______ _____ _____    ______ ____
ROOT
ATOM     15  C   UNL     1      -1.705   2.903  25.271  0.00  0.00    +0.138 C 
ATOM     16  C   UNL     1      -1.529   3.623  25.635  0.00  0.00    +0.027 C 
ATOM     17  C   UNL     1      -2.208   4.091  25.616  0.00  0.00    +0.019 C 
ATOM     18  C   UNL     1      -2.804   3.660  25.241  0.00  0.00    +0.073 C 
ATOM     19  N   UNL     1      -2.493   2.926  25.027  0.00  0.00    -0.263 NA
ENDROOT
BRANCH  15  13
ATOM     10  C   UNL     1      -0.295   1.435  24.630  0.00  0.00    +0.205 A 
ATOM     11  N   UNL     1      -0.469   1.167  25.392  0.00  0.00    -0.056 NA
ATOM     12  O   UNL     1      -1.018   1.685  25.724  0.00  0.00    -0.336 OA
ATOM     13  C   UNL     1      -1.184   2.272  25.169  0.00  0.00    +0.251 A 
ATOM     14  N   UNL     1      -0.736   2.117  24.493  0.00  0.00    -0.190 NA
BRANCH  10   7
ATOM      4  C   UNL     1       1.278   0.374  23.040  0.00  0.00    +0.132 A 
ATOM      5  C   UNL     1       0.557   0.011  23.213  0.00  0.00    +0.034 A 
ATOM      6  C   UNL     1       0.033   0.364  23.743  0.00  0.00    +0.008 A 
ATOM      7  C   UNL     1       0.229   1.081  24.100  0.00  0.00    +0.058 A 
ATOM      8  C   UNL     1       0.950   1.445  23.928  0.00  0.00    +0.103 A 
ATOM      9  N   UNL     1       1.474   1.091  23.398  0.00  0.00    -0.229 NA
BRANCH   4   2
ATOM      1  C   UNL     1       2.615   0.072  22.639  0.00  0.00    +0.114 C 
ATOM      2  N   UNL     1       1.802   0.020  22.510  0.00  0.00    -0.290 N 
ATOM      3  C   UNL     1       1.512  -0.385  21.853  0.00  0.00    +0.114 C 
ENDBRANCH   4   2
ENDBRANCH  10   7
ENDBRANCH  15  13
BRANCH  19  20
ATOM     20  C   UNL     1      -2.898   2.322  24.639  0.00  0.00    +0.099 C 
BRANCH  20  21
ATOM     21  C   UNL     1      -3.706   2.219  24.766  0.00  0.00    -0.006 A 
ATOM     22  C   UNL     1      -3.976   1.577  25.208  0.00  0.00    -0.003 A 
ATOM     23  C   UNL     1      -4.785   1.474  25.335  0.00  0.00    +0.006 A 
ATOM     24  C   UNL     1      -5.324   2.014  25.020  0.00  0.00    +0.080 A 
ATOM     25  C   UNL     1      -5.054   2.656  24.579  0.00  0.00    +0.006 A 
ATOM     26  C   UNL     1      -4.246   2.759  24.452  0.00  0.00    -0.003 A 
BRANCH  24  27
ATOM     27  C   UNL     1      -6.133   1.911  25.148  0.00  0.00    +0.388 C 
ATOM     28  O   UNL     1      -6.621   1.668  24.528  0.00  0.00    -0.241 OA
ATOM     29  O   UNL     1      -6.453   2.051  25.895  0.00  0.00    -0.241 OA
ENDBRANCH  24  27
ENDBRANCH  20  21
ENDBRANCH  19  20
TORSDOF 6
ENDMDL
MODEL 8
REMARK VINA RESULT:      -9.1      3.034      4.882
REMARK  Name = 
REMARK  6 active torsions:
REMARK  status: ('A' for Active; 'I' for Inactive)
REMARK    1  A    between atoms: N_2  and  C_4
REMARK    2  A    between atoms: C_7  and  C_10
REMARK    3  A    between atoms: C_13  and  C_15
REMARK    4  A    between atoms: N_19  and  C_20
REMARK    5  A    between atoms: C_20  and  C_21
REMARK    6  A    between atoms: C_24  and  C_27
REMARK                            x       y       z     vdW  Elec       q    Type
REMARK                         _______ _______ _______ _____ _____    ______ ____
ROOT
ATOM     15  C   UNL     1      -1.654  -0.653  24.787  0.00  0.00    +0.138 C 
ATOM     16  C   UNL     1      -1.562  -1.257  25.342  0.00  0.00    +0.027 C 
ATOM     17  C   UNL     1      -0.765  -1.469  25.358  0.00  0.00    +0.019 C 
ATOM     18  C   UNL     1      -0.365  -0.997  24.812  0.00  0.00    +0.073 C 
ATOM     19  N   UNL     1      -0.914  -0.492  24.460  0.00  0.00    -0.263 NA
ENDROOT
BRANCH  15  13
ATOM     10  C   UNL     1      -3.399   0.565  24.614  0.00  0.00    +0.205 A 
ATOM     11  N   UNL     1      -3.505   0.044  23.981  0.00  0.00    -0.056 NA
ATOM     12  O   UNL     1      -2.863  -0.475  23.970  0.00  0.00    -0.336 OA
ATOM     13  C   UNL     1      -2.362  -0.276  24.594  0.00  0.00    +0.251 A 
ATOM     14  N   UNL     1      -2.694   0.367  24.992  0.00  0.00    -0.190 NA
BRANCH  10   7
ATOM      4  C   UNL     1      -4.933   2.397  25.259  0.00  0.00    +0.132 A 
ATOM      5  C   UNL     1      -5.197   1.615  25.267  0.00  0.00    +0.034 A 
ATOM      6  C   UNL     1      -4.685   1.004  25.052  0.00  0.00    +0.008 A 
ATOM      7  C   UNL     1      -3.911   1.175  24.829  0.00  0.00    +0.058 A 
ATOM      8  C   UNL     1      -3.646   1.957  24.820  0.00  0.00    +0.103 A 
ATOM      9  N   UNL     1      -4.157   2.567  25.036  0.00  0.00    -0.229 NA
BRANCH   4   2
ATOM      1  C   UNL     1      -6.173   2.832  25.819  0.00  0.00    +0.114 C 
ATOM      2  N   UNL     1      -5.444   3.007  25.475  0.00  0.00    -0.290 N 
ATOM      3  C   UNL     1      -5.226   3.792  25.346  0.00  0.00    +0.114 C 
ENDBRANCH   4   2
ENDBRANCH  10   7
ENDBRANCH  15  13
BRANCH  19  20
ATOM     20  C   UNL     1      -0.752   0.073  23.882  0.00  0.00    +0.099 C 
BRANCH  20  21
ATOM     21  C   UNL     1       0.023   0.191  23.626  0.00  0.00    -0.006 A 
ATOM     22  C   UNL     1       0.362  -0.329  23.083  0.00  0.00    -0.003 A 
ATOM     23  C   UNL     1       1.138  -0.211  22.827  0.00  0.00    +0.006 A 
ATOM     24  C   UNL     1       1.574   0.428  23.114  0.00  0.00    +0.080 A 
ATOM     25  C   UNL     1       1.234   0.948  23.657  0.00  0.00    +0.006 A 
ATOM     26  C   UNL     1       0.459   0.830  23.913  0.00  0.00    -0.003 A 
BRANCH  24  27
ATOM     27  C   UNL     1       2.349   0.546  22.858  0.00  0.00    +0.388 C 
ATOM     28  O   UNL     1       2.818   1.126  23.213  0.00  0.00    -0.241 OA
ATOM     29  O   UNL     1       2.656   0.085  22.246  0.00  0.00    -0.241 OA
ENDBRANCH  24  27
ENDBRANCH  20  21
ENDBRANCH  19  20
TORSDOF 6
ENDMDL
