MODEL 1
REMARK VINA RESULT:     -10.1      0.000      0.000
REMARK  Name = 
REMARK  5 active torsions:
REMARK  status: ('A' for Active; 'I' for Inactive)
REMARK    1  A    between atoms: C_2  and  C_5
REMARK    2  A    between atoms: C_9  and  N_10
REMARK    3  A    between atoms: N_20  and  C_21
REMARK    4  A    between atoms: C_21  and  C_22
REMARK    5  A    between atoms: C_22  and  N_23
REMARK                            x       y       z     vdW  Elec       q    Type
REMARK                         _______ _______ _______ _____ _____    ______ ____
ROOT
ATOM     10  N   UNL     1      -4.154   0.977  25.060  0.00  0.00    -0.162 NA
ATOM     11  C   UNL     1      -3.512   1.214  24.600  0.00  0.00    +0.327 C 
ATOM     12  O   UNL     1      -3.559   1.904  24.150  0.00  0.00    -0.250 OA
ATOM     13  N   UNL     1      -2.822   0.761  24.589  0.00  0.00    -0.263 N 
ATOM     14  C   UNL     1      -2.775   0.071  25.039  0.00  0.00    +0.095 C 
ATOM     15  C   UNL     1      -2.086  -0.382  25.029  0.00  0.00    +0.022 C 
ATOM     16  C   UNL     1      -1.443  -0.145  24.568  0.00  0.00    +0.012 C 
ATOM     17  C   UNL     1      -0.813  -0.673  24.637  0.00  0.00    +0.085 C 
ATOM     18  C   UNL     1      -0.074  -0.641  24.271  0.00  0.00    +0.226 C 
ATOM     19  O   UNL     1       0.442  -1.258  24.454  0.00  0.00    -0.275 OA
ATOM     20  N   UNL     1       0.217  -0.074  23.748  0.00  0.00    -0.278 N 
ATOM     29  C   UNL     1      -0.159   0.602  23.461  0.00  0.00    +0.094 C 
ATOM     30  C   UNL     1      -0.919   0.877  23.625  0.00  0.00    +0.023 C 
ATOM     31  C   UNL     1      -1.491   0.545  24.118  0.00  0.00    +0.022 C 
ATOM     32  C   UNL     1      -2.180   0.998  24.129  0.00  0.00    +0.095 C 
ENDROOT
BRANCH  10   9
ATOM      5  C   UNL     1      -5.521   2.645  25.399  0.00  0.00    +0.073 A 
ATOM      6  C   UNL     1      -6.223   2.336  25.093  0.00  0.00    +0.004 A 
ATOM      7  C   UNL     1      -6.235   1.575  24.777  0.00  0.00    +0.001 A 
ATOM      8  C   UNL     1      -5.545   1.122  24.766  0.00  0.00    +0.017 A 
ATOM      9  C   UNL     1      -4.844   1.430  25.071  0.00  0.00    +0.075 A 
ATOM     33  C   UNL     1      -4.832   2.192  25.387  0.00  0.00    +0.021 A 
BRANCH   5   2
ATOM      1  F   UNL     1      -5.496   4.169  26.032  0.00  0.00    -0.166 F 
ATOM      2  C   UNL     1      -5.508   3.407  25.715  0.00  0.00    +0.419 C 
ATOM      3  F   UNL     1      -5.495   3.091  26.477  0.00  0.00    -0.166 F 
ATOM      4  F   UNL     1      -5.521   3.724  24.953  0.00  0.00    -0.166 F 
ENDBRANCH   5   2
ENDBRANCH  10   9
BRANCH  20  21
ATOM     21  C   UNL     1       0.986  -0.199  23.476  0.00  0.00    +0.115 C 
BRANCH  21  22
ATOM     22  C   UNL     1       1.218   0.102  22.744  0.00  0.00    +0.117 C 
BRANCH  22  23
ATOM     23  N   UNL     1       2.020   0.167  22.561  0.00  0.00    -0.259 N 
ATOM     24  C   UNL     1       2.611   0.452  23.063  0.00  0.00    +0.118 C 
ATOM     25  C   UNL     1       3.328   0.420  22.655  0.00  0.00    +0.138 C 
ATOM     26  N   UNL     1       3.180   0.115  21.903  0.00  0.00    -0.187 NA
ATOM     27  C   UNL     1       2.372  -0.041  21.845  0.00  0.00    +0.323 C 
ATOM     28  O   UNL     1       1.984  -0.350  21.185  0.00  0.00    -0.251 OA
ENDBRANCH  22  23
ENDBRANCH  21  22
ENDBRANCH  20  21
TORSDOF 5
ENDMDL
MODEL 2
REMARK VINA RESULT:      -9.7      3.711      7.280
REMARK  Name = 
REMARK  5 active torsions:
REMARK  status: ('A' for Active; 'I' for Inactive)
REMARK    1  A    between atoms: C_2  and  C_5
REMARK    2  A    between atoms: C_9  and  N_10
REMARK    3  A    between atoms: N_20  and  C_21
REMARK    4  A    between atoms: C_21  and  C_22
REMARK    5  A    between atoms: C_22  and  N_23
REMARK                            x       y       z     vdW  Elec       q    Type
REMARK                         _______ _______ _______ _____ _____    ______ ____
ROOT
ATOM     10  N   UNL     1       2.293   0.135  23.143  0.00  0.00    -0.162 NA
ATOM     11  C   UNL     1       1.818   0.760  23.394  0.00  0.00    +0.327 C 
ATOM     12  O   UNL     1       2.138   1.516  23.469  0.00  0.00    -0.250 OA
ATOM     13  N   UNL     1       1.023   0.630  23.570  0.00  0.00    -0.263 N 
ATOM     14  C   UNL     1       0.702  -0.127  23.495  0.00  0.00    +0.095 C 
ATOM     15  C   UNL     1      -0.093  -0.259  23.671  0.00  0.00    +0.022 C 
ATOM     16  C   UNL     1      -0.568   0.368  23.923  0.00  0.00    +0.012 C 
ATOM     17  C   UNL     1      -1.341   0.119  24.069  0.00  0.00    +0.085 C 
ATOM     18  C   UNL     1      -1.985   0.566  24.327  0.00  0.00    +0.226 C 
ATOM     19  O   UNL     1      -2.692   0.153  24.422  0.00  0.00    -0.275 OA
ATOM     20  N   UNL     1      -2.015   1.372  24.501  0.00  0.00    -0.278 N 
ATOM     29  C   UNL     1      -1.408   1.929  24.462  0.00  0.00    +0.094 C 
ATOM     30  C   UNL     1      -0.622   1.819  24.238  0.00  0.00    +0.023 C 
ATOM     31  C   UNL     1      -0.248   1.124  23.998  0.00  0.00    +0.022 C 
ATOM     32  C   UNL     1       0.548   1.255  23.822  0.00  0.00    +0.095 C 
ENDROOT
BRANCH  10   9
ATOM      5  C   UNL     1       4.469   0.144  23.316  0.00  0.00    +0.073 A 
ATOM      6  C   UNL     1       4.680   0.525  22.614  0.00  0.00    +0.004 A 
ATOM      7  C   UNL     1       4.095   0.775  22.089  0.00  0.00    +0.001 A 
ATOM      8  C   UNL     1       3.299   0.645  22.265  0.00  0.00    +0.017 A 
ATOM      9  C   UNL     1       3.089   0.265  22.966  0.00  0.00    +0.075 A 
ATOM     33  C   UNL     1       3.673   0.015  23.491  0.00  0.00    +0.021 A 
BRANCH   5   2
ATOM      1  F   UNL     1       5.638  -0.356  24.367  0.00  0.00    -0.166 F 
ATOM      2  C   UNL     1       5.054  -0.106  23.842  0.00  0.00    +0.419 C 
ATOM      3  F   UNL     1       4.875  -0.892  23.666  0.00  0.00    -0.166 F 
ATOM      4  F   UNL     1       5.232   0.680  24.017  0.00  0.00    -0.166 F 
ENDBRANCH   5   2
ENDBRANCH  10   9
BRANCH  20  21
ATOM     21  C   UNL     1      -2.748   1.657  24.748  0.00  0.00    +0.115 C 
BRANCH  21  22
ATOM     22  C   UNL     1      -2.839   2.456  24.931  0.00  0.00    +0.117 C 
BRANCH  22  23
ATOM     23  N   UNL     1      -3.584   2.752  25.125  0.00  0.00    -0.259 N 
ATOM     24  C   UNL     1      -4.309   2.439  24.884  0.00  0.00    +0.118 C 
ATOM     25  C   UNL     1      -4.908   2.907  25.205  0.00  0.00    +0.138 C 
ATOM     26  N   UNL     1      -4.554   3.509  25.644  0.00  0.00    -0.187 NA
ATOM     27  C   UNL     1      -3.736   3.413  25.595  0.00  0.00    +0.323 C 
ATOM     28  O   UNL     1      -3.168   3.895  25.952  0.00  0.00    -0.251 OA
ENDBRANCH  22  23
ENDBRANCH  21  22
ENDBRANCH  20  21
TORSDOF 5
ENDMDL
MODEL 3
REMARK VINA RESULT:      -8.6      3.555      7.188
REMARK  Name = 
REMARK  5 active torsions:
REMARK  status: ('A' for Active; 'I' for Inactive)
REMARK    1  A    between atoms: C_2  and  C_5
REMARK    2  A    between atoms: C_9  and  N_10
REMARK    3  A    between atoms: N_20  and  C_21
REMARK    4  A    between atoms: C_21  and  C_22
REMARK    5  A    between atoms: C_22  and  N_23
REMARK                            x       y       z     vdW  Elec       q    Type
REMARK                         _______ _______ _______ _____ _____    ______ ____
ROOT
ATOM     10  N   UNL     1       1.553   1.249  23.644  0.00  0.00    -0.162 NA
ATOM     11  C   UNL     1       0.743   1.112  23.581  0.00  0.00    +0.327 C 
ATOM     12  O   UNL     1       0.463   0.514  23.087  0.00  0.00    -0.250 OA
ATOM     13  N   UNL     1       0.211   1.573  24.012  0.00  0.00    -0.263 N 
ATOM     14  C   UNL     1       0.491   2.171  24.507  0.00  0.00    +0.095 C 
ATOM     15  C   UNL     1      -0.039   2.632  24.938  0.00  0.00    +0.022 C 
ATOM     16  C   UNL     1      -0.851   2.495  24.875  0.00  0.00    +0.012 C 
ATOM     17  C   UNL     1      -1.282   3.015  25.350  0.00  0.00    +0.085 C 
ATOM     18  C   UNL     1      -2.099   3.063  25.447  0.00  0.00    +0.226 C 
ATOM     19  O   UNL     1      -2.363   3.648  25.966  0.00  0.00    -0.275 OA
ATOM     20  N   UNL     1      -2.688   2.606  25.094  0.00  0.00    -0.278 N 
ATOM     29  C   UNL     1      -2.604   1.986  24.557  0.00  0.00    +0.094 C 
ATOM     30  C   UNL     1      -1.911   1.670  24.239  0.00  0.00    +0.023 C 
ATOM     31  C   UNL     1      -1.131   1.897  24.381  0.00  0.00    +0.022 C 
ATOM     32  C   UNL     1      -0.599   1.436  23.950  0.00  0.00    +0.095 C 
ENDROOT
BRANCH  10   9
ATOM      5  C   UNL     1       3.423   0.507  22.795  0.00  0.00    +0.073 A 
ATOM      6  C   UNL     1       3.149  -0.133  22.351  0.00  0.00    +0.004 A 
ATOM      7  C   UNL     1       2.344  -0.312  22.338  0.00  0.00    +0.001 A 
ATOM      8  C   UNL     1       1.812   0.149  22.769  0.00  0.00    +0.017 A 
ATOM      9  C   UNL     1       2.085   0.788  23.213  0.00  0.00    +0.075 A 
ATOM     33  C   UNL     1       2.890   0.967  23.226  0.00  0.00    +0.021 A 
BRANCH   5   2
ATOM      1  F   UNL     1       5.033   0.866  22.821  0.00  0.00    -0.166 F 
ATOM      2  C   UNL     1       4.228   0.687  22.808  0.00  0.00    +0.419 C 
ATOM      3  F   UNL     1       4.152   1.081  22.088  0.00  0.00    -0.166 F 
ATOM      4  F   UNL     1       4.304   0.292  23.529  0.00  0.00    -0.166 F 
ENDBRANCH   5   2
ENDBRANCH  10   9
BRANCH  20  21
ATOM     21  C   UNL     1      -3.463   2.793  25.307  0.00  0.00    +0.115 C 
BRANCH  21  22
ATOM     22  C   UNL     1      -4.089   2.338  25.024  0.00  0.00    +0.117 C 
BRANCH  22  23
ATOM     23  N   UNL     1      -4.862   2.513  25.252  0.00  0.00    -0.259 N 
ATOM     24  C   UNL     1      -5.126   3.233  25.558  0.00  0.00    +0.118 C 
ATOM     25  C   UNL     1      -5.935   3.165  25.709  0.00  0.00    +0.138 C 
ATOM     26  N   UNL     1      -6.170   2.403  25.496  0.00  0.00    -0.187 NA
ATOM     27  C   UNL     1      -5.507   2.001  25.214  0.00  0.00    +0.323 C 
ATOM     28  O   UNL     1      -5.492   1.222  24.941  0.00  0.00    -0.251 OA
ENDBRANCH  22  23
ENDBRANCH  21  22
ENDBRANCH  20  21
TORSDOF 5
ENDMDL
MODEL 4
REMARK VINA RESULT:      -8.1     15.306     16.538
REMARK  Name = 
REMARK  5 active torsions:
REMARK  status: ('A' for Active; 'I' for Inactive)
REMARK    1  A    between atoms: C_2  and  C_5
REMARK    2  A    between atoms: C_9  and  N_10
REMARK    3  A    between atoms: N_20  and  C_21
REMARK    4  A    between atoms: C_21  and  C_22
REMARK    5  A    between atoms: C_22  and  N_23
REMARK                            x       y       z     vdW  Elec       q    Type
REMARK                         _______ _______ _______ _____ _____    ______ ____
ROOT
ATOM     10  N   UNL     1      -5.046 -10.114  11.915  0.00  0.00    -0.162 NA
ATOM     11  C   UNL     1      -4.830 -10.141  12.710  0.00  0.00    +0.327 C 
ATOM     12  O   UNL     1      -4.034 -10.195  12.920  0.00  0.00    -0.250 OA
ATOM     13  N   UNL     1      -5.410 -10.114  13.297  0.00  0.00    -0.263 N 
ATOM     14  C   UNL     1      -6.206 -10.060  13.087  0.00  0.00    +0.095 C 
ATOM     15  C   UNL     1      -6.786 -10.033  13.673  0.00  0.00    +0.022 C 
ATOM     16  C   UNL     1      -6.570 -10.060  14.469  0.00  0.00    +0.012 C 
ATOM     17  C   UNL     1      -7.231 -10.027  14.962  0.00  0.00    +0.085 C 
ATOM     18  C   UNL     1      -7.258 -10.039  15.787  0.00  0.00    +0.226 C 
ATOM     19  O   UNL     1      -8.011  -9.997  16.120  0.00  0.00    -0.275 OA
ATOM     20  N   UNL     1      -6.632 -10.087  16.322  0.00  0.00    -0.278 N 
ATOM     29  C   UNL     1      -5.824 -10.136  16.164  0.00  0.00    +0.094 C 
ATOM     30  C   UNL     1      -5.442 -10.148  15.433  0.00  0.00    +0.023 C 
ATOM     31  C   UNL     1      -5.773 -10.114  14.679  0.00  0.00    +0.022 C 
ATOM     32  C   UNL     1      -5.194 -10.141  14.092  0.00  0.00    +0.095 C 
ENDROOT
BRANCH  10   9
ATOM      5  C   UNL     1      -3.862  -9.581  10.161  0.00  0.00    +0.073 A 
ATOM      6  C   UNL     1      -3.308 -10.193  10.154  0.00  0.00    +0.004 A 
ATOM      7  C   UNL     1      -3.334 -10.779  10.735  0.00  0.00    +0.001 A 
ATOM      8  C   UNL     1      -3.913 -10.752  11.322  0.00  0.00    +0.017 A 
ATOM      9  C   UNL     1      -4.467 -10.141  11.328  0.00  0.00    +0.075 A 
ATOM     33  C   UNL     1      -4.441  -9.555  10.748  0.00  0.00    +0.021 A 
BRANCH   5   2
ATOM      1  F   UNL     1      -3.810  -8.410   8.999  0.00  0.00    -0.166 F 
ATOM      2  C   UNL     1      -3.836  -8.995   9.580  0.00  0.00    +0.419 C 
ATOM      3  F   UNL     1      -4.477  -9.347   9.197  0.00  0.00    -0.166 F 
ATOM      4  F   UNL     1      -3.196  -8.643   9.963  0.00  0.00    -0.166 F 
ENDBRANCH   5   2
ENDBRANCH  10   9
BRANCH  20  21
ATOM     21  C   UNL     1      -6.842 -10.087  17.119  0.00  0.00    +0.115 C 
BRANCH  21  22
ATOM     22  C   UNL     1      -6.335 -10.418  17.679  0.00  0.00    +0.117 C 
BRANCH  22  23
ATOM     23  N   UNL     1      -6.587 -10.513  18.459  0.00  0.00    -0.259 N 
ATOM     24  C   UNL     1      -7.366 -10.630  18.706  0.00  0.00    +0.118 C 
ATOM     25  C   UNL     1      -7.365 -10.697  19.528  0.00  0.00    +0.138 C 
ATOM     26  N   UNL     1      -6.585 -10.622  19.789  0.00  0.00    -0.187 NA
ATOM     27  C   UNL     1      -6.105 -10.508  19.128  0.00  0.00    +0.323 C 
ATOM     28  O   UNL     1      -5.286 -10.408  19.135  0.00  0.00    -0.251 OA
ENDBRANCH  22  23
ENDBRANCH  21  22
ENDBRANCH  20  21
TORSDOF 5
ENDMDL
MODEL 5
REMARK VINA RESULT:      -8.1      2.845      3.632
REMARK  Name = 
REMARK  5 active torsions:
REMARK  status: ('A' for Active; 'I' for Inactive)
REMARK    1  A    between atoms: C_2  and  C_5
REMARK    2  A    between atoms: C_9  and  N_10
REMARK    3  A    between atoms: N_20  and  C_21
REMARK    4  A    between atoms: C_21  and  C_22
REMARK    5  A    between atoms: C_22  and  N_23
REMARK                            x       y       z     vdW  Elec       q    Type
REMARK                         _______ _______ _______ _____ _____    ______ ____
ROOT
ATOM     10  N   UNL     1      -2.086  -0.401  24.648  0.00  0.00    -0.162 NA
ATOM     11  C   UNL     1      -1.379  -0.752  24.409  0.00  0.00    +0.327 C 
ATOM     12  O   UNL     1      -1.316  -1.574  24.382  0.00  0.00    -0.250 OA
ATOM     13  N   UNL     1      -0.735  -0.282  24.198  0.00  0.00    -0.263 N 
ATOM     14  C   UNL     1      -0.798   0.540  24.225  0.00  0.00    +0.095 C 
ATOM     15  C   UNL     1      -0.155   1.011  24.014  0.00  0.00    +0.022 C 
ATOM     16  C   UNL     1       0.553   0.659  23.776  0.00  0.00    +0.012 C 
ATOM     17  C   UNL     1       1.123   1.227  23.590  0.00  0.00    +0.085 C 
ATOM     18  C   UNL     1       1.897   1.110  23.331  0.00  0.00    +0.226 C 
ATOM     19  O   UNL     1       2.334   1.796  23.190  0.00  0.00    -0.275 OA
ATOM     20  N   UNL     1       2.293   0.400  23.193  0.00  0.00    -0.278 N 
ATOM     29  C   UNL     1       2.012  -0.371  23.281  0.00  0.00    +0.094 C 
ATOM     30  C   UNL     1       1.266  -0.621  23.528  0.00  0.00    +0.023 C 
ATOM     31  C   UNL     1       0.616  -0.163  23.748  0.00  0.00    +0.022 C 
ATOM     32  C   UNL     1      -0.028  -0.633  23.960  0.00  0.00    +0.095 C 
ENDROOT
BRANCH  10   9
ATOM      5  C   UNL     1      -3.835  -1.696  24.484  0.00  0.00    +0.073 A 
ATOM      6  C   UNL     1      -4.019  -1.812  25.280  0.00  0.00    +0.004 A 
ATOM      7  C   UNL     1      -3.558  -1.457  25.866  0.00  0.00    +0.001 A 
ATOM      8  C   UNL     1      -2.914  -0.987  25.654  0.00  0.00    +0.017 A 
ATOM      9  C   UNL     1      -2.730  -0.871  24.859  0.00  0.00    +0.075 A 
ATOM     33  C   UNL     1      -3.191  -1.226  24.274  0.00  0.00    +0.021 A 
BRANCH   5   2
ATOM      1  F   UNL     1      -4.757  -2.405  23.313  0.00  0.00    -0.166 F 
ATOM      2  C   UNL     1      -4.296  -2.051  23.898  0.00  0.00    +0.419 C 
ATOM      3  F   UNL     1      -4.657  -1.325  23.743  0.00  0.00    -0.166 F 
ATOM      4  F   UNL     1      -3.935  -2.776  24.054  0.00  0.00    -0.166 F 
ENDBRANCH   5   2
ENDBRANCH  10   9
BRANCH  20  21
ATOM     21  C   UNL     1       3.073   0.469  22.934  0.00  0.00    +0.115 C 
BRANCH  21  22
ATOM     22  C   UNL     1       3.596  -0.162  23.027  0.00  0.00    +0.117 C 
BRANCH  22  23
ATOM     23  N   UNL     1       4.392  -0.018  23.188  0.00  0.00    -0.259 N 
ATOM     24  C   UNL     1       4.807   0.671  23.001  0.00  0.00    +0.118 C 
ATOM     25  C   UNL     1       5.585   0.578  23.262  0.00  0.00    +0.138 C 
ATOM     26  N   UNL     1       5.649  -0.167  23.611  0.00  0.00    -0.187 NA
ATOM     27  C   UNL     1       4.912  -0.535  23.565  0.00  0.00    +0.323 C 
ATOM     28  O   UNL     1       4.727  -1.288  23.847  0.00  0.00    -0.251 OA
ENDBRANCH  22  23
ENDBRANCH  21  22
ENDBRANCH  20  21
TORSDOF 5
ENDMDL
MODEL 6
REMARK VINA RESULT:      -7.2     15.534     17.000
REMARK  Name = 
REMARK  5 active torsions:
REMARK  status: ('A' for Active; 'I' for Inactive)
REMARK    1  A    between atoms: C_2  and  C_5
REMARK    2  A    between atoms: C_9  and  N_10
REMARK    3  A    between atoms: N_20  and  C_21
REMARK    4  A    between atoms: C_21  and  C_22
REMARK    5  A    between atoms: C_22  and  N_23
REMARK                            x       y       z     vdW  Elec       q    Type
REMARK                         _______ _______ _______ _____ _____    ______ ____
ROOT
ATOM     10  N   UNL     1      -4.621 -10.369  12.145  0.00  0.00    -0.162 NA
ATOM     11  C   UNL     1      -4.801 -10.210  12.934  0.00  0.00    +0.327 C 
ATOM     12  O   UNL     1      -4.200 -10.015  13.463  0.00  0.00    -0.250 OA
ATOM     13  N   UNL     1      -5.584 -10.246  13.194  0.00  0.00    -0.263 N 
ATOM     14  C   UNL     1      -6.186 -10.442  12.665  0.00  0.00    +0.095 C 
ATOM     15  C   UNL     1      -6.968 -10.479  12.925  0.00  0.00    +0.022 C 
ATOM     16  C   UNL     1      -7.148 -10.319  13.715  0.00  0.00    +0.012 C 
ATOM     17  C   UNL     1      -7.958 -10.386  13.858  0.00  0.00    +0.085 C 
ATOM     18  C   UNL     1      -8.365 -10.273  14.566  0.00  0.00    +0.226 C 
ATOM     19  O   UNL     1      -9.182 -10.382  14.530  0.00  0.00    -0.275 OA
ATOM     20  N   UNL     1      -8.064 -10.066  15.306  0.00  0.00    -0.278 N 
ATOM     29  C   UNL     1      -7.281  -9.921  15.519  0.00  0.00    +0.094 C 
ATOM     30  C   UNL     1      -6.605  -9.946  15.047  0.00  0.00    +0.023 C 
ATOM     31  C   UNL     1      -6.546 -10.124  14.244  0.00  0.00    +0.022 C 
ATOM     32  C   UNL     1      -5.764 -10.087  13.983  0.00  0.00    +0.095 C 
ENDROOT
BRANCH  10   9
ATOM      5  C   UNL     1      -2.858  -9.811  10.986  0.00  0.00    +0.073 A 
ATOM      6  C   UNL     1      -2.276 -10.260  11.362  0.00  0.00    +0.004 A 
ATOM      7  C   UNL     1      -2.476 -10.745  11.999  0.00  0.00    +0.001 A 
ATOM      8  C   UNL     1      -3.258 -10.781  12.260  0.00  0.00    +0.017 A 
ATOM      9  C   UNL     1      -3.839 -10.333  11.884  0.00  0.00    +0.075 A 
ATOM     33  C   UNL     1      -3.639  -9.848  11.248  0.00  0.00    +0.021 A 
BRANCH   5   2
ATOM      1  F   UNL     1      -2.458  -8.841   9.713  0.00  0.00    -0.166 F 
ATOM      2  C   UNL     1      -2.658  -9.326  10.349  0.00  0.00    +0.419 C 
ATOM      3  F   UNL     1      -2.108  -8.933  10.822  0.00  0.00    -0.166 F 
ATOM      4  F   UNL     1      -3.209  -9.719   9.877  0.00  0.00    -0.166 F 
ENDBRANCH   5   2
ENDBRANCH  10   9
BRANCH  20  21
ATOM     21  C   UNL     1      -8.620  -9.995  15.911  0.00  0.00    +0.115 C 
BRANCH  21  22
ATOM     22  C   UNL     1      -8.658  -9.302  16.356  0.00  0.00    +0.117 C 
BRANCH  22  23
ATOM     23  N   UNL     1      -9.201  -9.238  16.974  0.00  0.00    -0.259 N 
ATOM     24  C   UNL     1      -9.480  -9.859  17.440  0.00  0.00    +0.118 C 
ATOM     25  C   UNL     1     -10.012  -9.547  17.989  0.00  0.00    +0.138 C 
ATOM     26  N   UNL     1     -10.061  -8.733  17.861  0.00  0.00    -0.187 NA
ATOM     27  C   UNL     1      -9.560  -8.543  17.234  0.00  0.00    +0.323 C 
ATOM     28  O   UNL     1      -9.438  -7.788  16.922  0.00  0.00    -0.251 OA
ENDBRANCH  22  23
ENDBRANCH  21  22
ENDBRANCH  20  21
TORSDOF 5
ENDMDL
MODEL 7
REMARK VINA RESULT:      -7.1     16.297     16.821
REMARK  Name = 
REMARK  5 active torsions:
REMARK  status: ('A' for Active; 'I' for Inactive)
REMARK    1  A    between atoms: C_2  and  C_5
REMARK    2  A    between atoms: C_9  and  N_10
REMARK    3  A    between atoms: N_20  and  C_21
REMARK    4  A    between atoms: C_21  and  C_22
REMARK    5  A    between atoms: C_22  and  N_23
REMARK                            x       y       z     vdW  Elec       q    Type
REMARK                         _______ _______ _______ _____ _____    ______ ____
ROOT
ATOM     10  N   UNL     1      -7.549  -9.382  10.940  0.00  0.00    -0.162 NA
ATOM     11  C   UNL     1      -6.783  -9.650  11.083  0.00  0.00    +0.327 C 
ATOM     12  O   UNL     1      -6.284  -9.829  10.450  0.00  0.00    -0.250 OA
ATOM     13  N   UNL     1      -6.514  -9.740  11.858  0.00  0.00    -0.263 N 
ATOM     14  C   UNL     1      -7.013  -9.562  12.490  0.00  0.00    +0.095 C 
ATOM     15  C   UNL     1      -6.746  -9.651  13.265  0.00  0.00    +0.022 C 
ATOM     16  C   UNL     1      -5.979  -9.920  13.408  0.00  0.00    +0.012 C 
ATOM     17  C   UNL     1      -5.823  -9.970  14.217  0.00  0.00    +0.085 C 
ATOM     18  C   UNL     1      -5.129 -10.211  14.593  0.00  0.00    +0.226 C 
ATOM     19  O   UNL     1      -5.147 -10.201  15.417  0.00  0.00    -0.275 OA
ATOM     20  N   UNL     1      -4.421 -10.462  14.253  0.00  0.00    -0.278 N 
ATOM     29  C   UNL     1      -4.231 -10.533  13.454  0.00  0.00    +0.094 C 
ATOM     30  C   UNL     1      -4.702 -10.371  12.796  0.00  0.00    +0.023 C 
ATOM     31  C   UNL     1      -5.480 -10.098  12.776  0.00  0.00    +0.022 C 
ATOM     32  C   UNL     1      -5.748 -10.008  12.001  0.00  0.00    +0.095 C 
ENDROOT
BRANCH  10   9
ATOM      5  C   UNL     1      -8.089  -8.454   9.039  0.00  0.00    +0.073 A 
ATOM      6  C   UNL     1      -8.355  -9.111   8.615  0.00  0.00    +0.004 A 
ATOM      7  C   UNL     1      -8.352  -9.857   8.966  0.00  0.00    +0.001 A 
ATOM      8  C   UNL     1      -8.084  -9.947   9.741  0.00  0.00    +0.017 A 
ATOM      9  C   UNL     1      -7.818  -9.292  10.165  0.00  0.00    +0.075 A 
ATOM     33  C   UNL     1      -7.821  -8.545   9.814  0.00  0.00    +0.021 A 
BRANCH   5   2
ATOM      1  F   UNL     1      -8.094  -6.961   8.337  0.00  0.00    -0.166 F 
ATOM      2  C   UNL     1      -8.091  -7.707   8.688  0.00  0.00    +0.419 C 
ATOM      3  F   UNL     1      -8.714  -7.479   9.179  0.00  0.00    -0.166 F 
ATOM      4  F   UNL     1      -7.469  -7.936   8.198  0.00  0.00    -0.166 F 
ENDBRANCH   5   2
ENDBRANCH  10   9
BRANCH  20  21
ATOM     21  C   UNL     1      -3.823 -10.669  14.783  0.00  0.00    +0.115 C 
BRANCH  21  22
ATOM     22  C   UNL     1      -3.033 -10.580  14.568  0.00  0.00    +0.117 C 
BRANCH  22  23
ATOM     23  N   UNL     1      -2.443 -10.601  15.144  0.00  0.00    -0.259 N 
ATOM     24  C   UNL     1      -2.552 -10.780  15.943  0.00  0.00    +0.118 C 
ATOM     25  C   UNL     1      -1.817 -10.737  16.316  0.00  0.00    +0.138 C 
ATOM     26  N   UNL     1      -1.255 -10.532  15.749  0.00  0.00    -0.187 NA
ATOM     27  C   UNL     1      -1.642 -10.448  15.025  0.00  0.00    +0.323 C 
ATOM     28  O   UNL     1      -1.289 -10.247  14.306  0.00  0.00    -0.251 OA
ENDBRANCH  22  23
ENDBRANCH  21  22
ENDBRANCH  20  21
TORSDOF 5
ENDMDL
