MODEL 1
REMARK VINA RESULT:      -7.7      0.000      0.000
REMARK  Name = 
REMARK  6 active torsions:
REMARK  status: ('A' for Active; 'I' for Inactive)
REMARK    1  A    between atoms: O_2  and  C_3
REMARK    2  A    between atoms: C_6  and  C_7
REMARK    3  A    between atoms: C_7  and  N_8
REMARK    4  A    between atoms: C_17  and  C_18
REMARK    5  A    between atoms: C_18  and  C_19
REMARK    6  A    between atoms: C_19  and  C_20
REMARK                            x       y       z     vdW  Elec       q    Type
REMARK                         _______ _______ _______ _____ _____    ______ ____
ROOT
ATOM      8  N   UNL     1      -3.046   1.506  24.439  0.00  0.00    -0.262 NA
ATOM      9  C   UNL     1      -3.117   0.941  25.036  0.00  0.00    +0.074 C 
ATOM     10  C   UNL     1      -2.430   0.483  25.036  0.00  0.00    +0.035 C 
ATOM     11  C   UNL     1      -1.936   0.766  24.440  0.00  0.00    +0.083 C 
ATOM     12  C   UNL     1      -2.317   1.398  24.071  0.00  0.00    +0.151 C 
ATOM     13  C   UNL     1      -2.051   1.864  23.444  0.00  0.00    +0.257 C 
ATOM     14  O   UNL     1      -2.564   2.460  23.197  0.00  0.00    -0.272 OA
ATOM     15  N   UNL     1      -1.337   1.812  23.031  0.00  0.00    -0.203 NA
ATOM     16  C   UNL     1      -0.715   1.283  23.143  0.00  0.00    +0.131 C 
ATOM     17  C   UNL     1      -0.652   0.673  23.695  0.00  0.00    +0.080 C 
ATOM     28  N   UNL     1      -1.196   0.443  24.273  0.00  0.00    -0.271 NA
ATOM     29  C   UNL     1      -0.968  -0.194  24.745  0.00  0.00    +0.090 C 
ENDROOT
BRANCH   8   7
ATOM      7  C   UNL     1      -3.607   2.080  24.245  0.00  0.00    +0.100 C 
BRANCH   7   6
ATOM      3  C   UNL     1      -5.535   2.480  25.745  0.00  0.00    +0.139 A 
ATOM      4  C   UNL     1      -4.865   2.959  25.798  0.00  0.00    +0.037 A 
ATOM      5  C   UNL     1      -4.222   2.825  25.298  0.00  0.00    +0.000 A 
ATOM      6  C   UNL     1      -4.250   2.213  24.745  0.00  0.00    -0.006 A 
ATOM     30  C   UNL     1      -4.920   1.734  24.692  0.00  0.00    +0.000 A 
ATOM     31  C   UNL     1      -5.562   1.868  25.192  0.00  0.00    +0.037 A 
BRANCH   3   2
ATOM      1  C   UNL     1      -6.527   1.982  26.645  0.00  0.00    +0.252 C 
ATOM      2  O   UNL     1      -6.178   2.613  26.245  0.00  0.00    -0.471 OA
ENDBRANCH   3   2
ENDBRANCH   7   6
ENDBRANCH   8   7
BRANCH  17  18
ATOM     18  C   UNL     1       0.047   0.236  23.667  0.00  0.00    +0.027 C 
BRANCH  18  19
ATOM     19  C   UNL     1       0.719   0.554  23.310  0.00  0.00    +0.087 C 
BRANCH  19  20
ATOM     20  C   UNL     1       1.273   0.056  22.956  0.00  0.00    +0.226 C 
ATOM     21  O   UNL     1       1.047  -0.693  22.693  0.00  0.00    -0.275 OA
ATOM     22  N   UNL     1       2.054   0.307  22.864  0.00  0.00    -0.274 N 
ATOM     23  C   UNL     1       2.280   1.055  23.127  0.00  0.00    +0.125 C 
ATOM     24  C   UNL     1       3.060   1.305  23.035  0.00  0.00    +0.164 C 
ATOM     25  O   UNL     1       3.614   0.808  22.681  0.00  0.00    -0.350 OA
ATOM     26  C   UNL     1       3.388   0.060  22.419  0.00  0.00    +0.164 C 
ATOM     27  C   UNL     1       2.608  -0.191  22.510  0.00  0.00    +0.125 C 
ENDBRANCH  19  20
ENDBRANCH  18  19
ENDBRANCH  17  18
TORSDOF 6
ENDMDL
MODEL 2
REMARK VINA RESULT:      -7.3      1.443      2.493
REMARK  Name = 
REMARK  6 active torsions:
REMARK  status: ('A' for Active; 'I' for Inactive)
REMARK    1  A    between atoms: O_2  and  C_3
REMARK    2  A    between atoms: C_6  and  C_7
REMARK    3  A    between atoms: C_7  and  N_8
REMARK    4  A    between atoms: C_17  and  C_18
REMARK    5  A    between atoms: C_18  and  C_19
REMARK    6  A    between atoms: C_19  and  C_20
REMARK                            x       y       z     vdW  Elec       q    Type
REMARK                         _______ _______ _______ _____ _____    ______ ____
ROOT
ATOM      8  N   UNL     1      -1.344   0.314  24.394  0.00  0.00    -0.262 NA
ATOM      9  C   UNL     1      -1.392   1.104  24.625  0.00  0.00    +0.074 C 
ATOM     10  C   UNL     1      -0.674   1.468  24.441  0.00  0.00    +0.035 C 
ATOM     11  C   UNL     1      -0.183   0.902  24.097  0.00  0.00    +0.083 C 
ATOM     12  C   UNL     1      -0.597   0.189  24.068  0.00  0.00    +0.151 C 
ATOM     13  C   UNL     1      -0.346  -0.541  23.775  0.00  0.00    +0.257 C 
ATOM     14  O   UNL     1      -0.894  -1.155  23.825  0.00  0.00    -0.272 OA
ATOM     15  N   UNL     1       0.381  -0.737  23.437  0.00  0.00    -0.203 NA
ATOM     16  C   UNL     1       1.037  -0.252  23.310  0.00  0.00    +0.131 C 
ATOM     17  C   UNL     1       1.127   0.548  23.489  0.00  0.00    +0.080 C 
ATOM     28  N   UNL     1       0.584   1.062  23.839  0.00  0.00    -0.271 NA
ATOM     29  C   UNL     1       0.843   1.837  23.946  0.00  0.00    +0.090 C 
ENDROOT
BRANCH   8   7
ATOM      7  C   UNL     1      -1.939  -0.252  24.476  0.00  0.00    +0.100 C 
BRANCH   7   6
ATOM      3  C   UNL     1      -4.282   0.461  24.836  0.00  0.00    +0.139 A 
ATOM      4  C   UNL     1      -3.936   0.542  24.092  0.00  0.00    +0.037 A 
ATOM      5  C   UNL     1      -3.155   0.304  23.972  0.00  0.00    +0.000 A 
ATOM      6  C   UNL     1      -2.720  -0.014  24.596  0.00  0.00    -0.006 A 
ATOM     30  C   UNL     1      -3.065  -0.095  25.341  0.00  0.00    +0.000 A 
ATOM     31  C   UNL     1      -3.846   0.143  25.461  0.00  0.00    +0.037 A 
BRANCH   3   2
ATOM      1  C   UNL     1      -5.233   1.490  25.116  0.00  0.00    +0.252 C 
ATOM      2  O   UNL     1      -5.062   0.699  24.957  0.00  0.00    -0.471 OA
ENDBRANCH   3   2
ENDBRANCH   7   6
ENDBRANCH   8   7
BRANCH  17  18
ATOM     18  C   UNL     1       1.856   0.878  23.292  0.00  0.00    +0.027 C 
BRANCH  18  19
ATOM     19  C   UNL     1       2.513   0.393  23.180  0.00  0.00    +0.087 C 
BRANCH  19  20
ATOM     20  C   UNL     1       3.256   0.726  23.050  0.00  0.00    +0.226 C 
ATOM     21  O   UNL     1       3.319   1.496  22.761  0.00  0.00    -0.275 OA
ATOM     22  N   UNL     1       3.938   0.289  23.210  0.00  0.00    -0.274 N 
ATOM     23  C   UNL     1       3.876  -0.481  23.499  0.00  0.00    +0.125 C 
ATOM     24  C   UNL     1       4.558  -0.917  23.658  0.00  0.00    +0.164 C 
ATOM     25  O   UNL     1       5.301  -0.583  23.528  0.00  0.00    -0.350 OA
ATOM     26  C   UNL     1       5.363   0.186  23.239  0.00  0.00    +0.164 C 
ATOM     27  C   UNL     1       4.681   0.623  23.080  0.00  0.00    +0.125 C 
ENDBRANCH  19  20
ENDBRANCH  18  19
ENDBRANCH  17  18
TORSDOF 6
ENDMDL
MODEL 3
REMARK VINA RESULT:      -7.1      1.200      6.595
REMARK  Name = 
REMARK  6 active torsions:
REMARK  status: ('A' for Active; 'I' for Inactive)
REMARK    1  A    between atoms: O_2  and  C_3
REMARK    2  A    between atoms: C_6  and  C_7
REMARK    3  A    between atoms: C_7  and  N_8
REMARK    4  A    between atoms: C_17  and  C_18
REMARK    5  A    between atoms: C_18  and  C_19
REMARK    6  A    between atoms: C_19  and  C_20
REMARK                            x       y       z     vdW  Elec       q    Type
REMARK                         _______ _______ _______ _____ _____    ______ ____
ROOT
ATOM      8  N   UNL     1       0.208   1.023  23.849  0.00  0.00    -0.262 NA
ATOM      9  C   UNL     1       0.567   1.762  23.777  0.00  0.00    +0.074 C 
ATOM     10  C   UNL     1       0.029   2.333  24.034  0.00  0.00    +0.035 C 
ATOM     11  C   UNL     1      -0.661   1.946  24.265  0.00  0.00    +0.083 C 
ATOM     12  C   UNL     1      -0.551   1.136  24.150  0.00  0.00    +0.151 C 
ATOM     13  C   UNL     1      -1.078   0.519  24.298  0.00  0.00    +0.257 C 
ATOM     14  O   UNL     1      -0.801  -0.238  24.124  0.00  0.00    -0.272 OA
ATOM     15  N   UNL     1      -1.846   0.559  24.597  0.00  0.00    -0.203 NA
ATOM     16  C   UNL     1      -2.277   1.225  24.822  0.00  0.00    +0.131 C 
ATOM     17  C   UNL     1      -2.046   2.017  24.803  0.00  0.00    +0.080 C 
ATOM     28  N   UNL     1      -1.326   2.338  24.555  0.00  0.00    -0.271 NA
ATOM     29  C   UNL     1      -1.265   3.158  24.605  0.00  0.00    +0.090 C 
ENDROOT
BRANCH   8   7
ATOM      7  C   UNL     1       0.549   0.297  23.653  0.00  0.00    +0.100 C 
BRANCH   7   6
ATOM      3  C   UNL     1       2.687   0.231  22.407  0.00  0.00    +0.139 A 
ATOM      4  C   UNL     1       2.000  -0.072  22.064  0.00  0.00    +0.037 A 
ATOM      5  C   UNL     1       1.288  -0.050  22.480  0.00  0.00    +0.000 A 
ATOM      6  C   UNL     1       1.262   0.275  23.238  0.00  0.00    -0.006 A 
ATOM     30  C   UNL     1       1.948   0.579  23.580  0.00  0.00    +0.000 A 
ATOM     31  C   UNL     1       2.661   0.557  23.165  0.00  0.00    +0.037 A 
BRANCH   3   2
ATOM      1  C   UNL     1       4.058   0.612  22.281  0.00  0.00    +0.252 C 
ATOM      2  O   UNL     1       3.399   0.209  21.992  0.00  0.00    -0.471 OA
ENDBRANCH   3   2
ENDBRANCH   7   6
ENDBRANCH   8   7
BRANCH  17  18
ATOM     18  C   UNL     1      -2.607   2.560  25.067  0.00  0.00    +0.027 C 
BRANCH  18  19
ATOM     19  C   UNL     1      -3.409   2.368  25.047  0.00  0.00    +0.087 C 
BRANCH  19  20
ATOM     20  C   UNL     1      -3.964   2.876  25.384  0.00  0.00    +0.226 C 
ATOM     21  O   UNL     1      -3.717   3.569  25.758  0.00  0.00    -0.275 OA
ATOM     22  N   UNL     1      -4.768   2.692  25.348  0.00  0.00    -0.274 N 
ATOM     23  C   UNL     1      -5.015   1.999  24.975  0.00  0.00    +0.125 C 
ATOM     24  C   UNL     1      -5.819   1.815  24.939  0.00  0.00    +0.164 C 
ATOM     25  O   UNL     1      -6.374   2.324  25.276  0.00  0.00    -0.350 OA
ATOM     26  C   UNL     1      -6.126   3.015  25.649  0.00  0.00    +0.164 C 
ATOM     27  C   UNL     1      -5.323   3.200  25.685  0.00  0.00    +0.125 C 
ENDBRANCH  19  20
ENDBRANCH  18  19
ENDBRANCH  17  18
TORSDOF 6
ENDMDL
MODEL 4
REMARK VINA RESULT:      -6.8     15.385     16.741
REMARK  Name = 
REMARK  6 active torsions:
REMARK  status: ('A' for Active; 'I' for Inactive)
REMARK    1  A    between atoms: O_2  and  C_3
REMARK    2  A    between atoms: C_6  and  C_7
REMARK    3  A    between atoms: C_7  and  N_8
REMARK    4  A    between atoms: C_17  and  C_18
REMARK    5  A    between atoms: C_18  and  C_19
REMARK    6  A    between atoms: C_19  and  C_20
REMARK                            x       y       z     vdW  Elec       q    Type
REMARK                         _______ _______ _______ _____ _____    ______ ____
ROOT
ATOM      8  N   UNL     1      -4.916 -10.012  12.350  0.00  0.00    -0.262 NA
ATOM      9  C   UNL     1      -5.631  -9.731  12.052  0.00  0.00    +0.074 C 
ATOM     10  C   UNL     1      -6.164  -9.674  12.679  0.00  0.00    +0.035 C 
ATOM     11  C   UNL     1      -5.778  -9.921  13.365  0.00  0.00    +0.083 C 
ATOM     12  C   UNL     1      -5.006 -10.130  13.161  0.00  0.00    +0.151 C 
ATOM     13  C   UNL     1      -4.403 -10.411  13.650  0.00  0.00    +0.257 C 
ATOM     14  O   UNL     1      -3.685 -10.572  13.277  0.00  0.00    -0.272 OA
ATOM     15  N   UNL     1      -4.424 -10.552  14.463  0.00  0.00    -0.203 NA
ATOM     16  C   UNL     1      -5.051 -10.447  14.988  0.00  0.00    +0.131 C 
ATOM     17  C   UNL     1      -5.814 -10.176  14.829  0.00  0.00    +0.080 C 
ATOM     28  N   UNL     1      -6.138  -9.942  14.107  0.00  0.00    -0.271 NA
ATOM     29  C   UNL     1      -6.924  -9.695  14.130  0.00  0.00    +0.090 C 
ENDROOT
BRANCH   8   7
ATOM      7  C   UNL     1      -4.229 -10.152  11.914  0.00  0.00    +0.100 C 
BRANCH   7   6
ATOM      3  C   UNL     1      -4.257  -9.895   9.452  0.00  0.00    +0.139 A 
ATOM      4  C   UNL     1      -4.080  -9.248   9.932  0.00  0.00    +0.037 A 
ATOM      5  C   UNL     1      -4.071  -9.334  10.753  0.00  0.00    +0.000 A 
ATOM      6  C   UNL     1      -4.239 -10.067  11.093  0.00  0.00    -0.006 A 
ATOM     30  C   UNL     1      -4.416 -10.714  10.613  0.00  0.00    +0.000 A 
ATOM     31  C   UNL     1      -4.425 -10.628   9.792  0.00  0.00    +0.037 A 
BRANCH   3   2
ATOM      1  C   UNL     1      -4.979  -9.674   8.239  0.00  0.00    +0.252 C 
ATOM      2  O   UNL     1      -4.267  -9.810   8.631  0.00  0.00    -0.471 OA
ENDBRANCH   3   2
ENDBRANCH   7   6
ENDBRANCH   8   7
BRANCH  17  18
ATOM     18  C   UNL     1      -6.320 -10.132  15.479  0.00  0.00    +0.027 C 
BRANCH  18  19
ATOM     19  C   UNL     1      -6.028 -10.258  16.240  0.00  0.00    +0.087 C 
BRANCH  19  20
ATOM     20  C   UNL     1      -6.526 -10.178  16.892  0.00  0.00    +0.226 C 
ATOM     21  O   UNL     1      -7.304  -9.923  16.789  0.00  0.00    -0.275 OA
ATOM     22  N   UNL     1      -6.247 -10.352  17.649  0.00  0.00    -0.274 N 
ATOM     23  C   UNL     1      -5.469 -10.607  17.752  0.00  0.00    +0.125 C 
ATOM     24  C   UNL     1      -5.190 -10.781  18.509  0.00  0.00    +0.164 C 
ATOM     25  O   UNL     1      -5.688 -10.700  19.161  0.00  0.00    -0.350 OA
ATOM     26  C   UNL     1      -6.465 -10.446  19.057  0.00  0.00    +0.164 C 
ATOM     27  C   UNL     1      -6.745 -10.271  18.301  0.00  0.00    +0.125 C 
ENDBRANCH  19  20
ENDBRANCH  18  19
ENDBRANCH  17  18
TORSDOF 6
ENDMDL
MODEL 5
REMARK VINA RESULT:      -6.7     17.479     18.938
REMARK  Name = 
REMARK  6 active torsions:
REMARK  status: ('A' for Active; 'I' for Inactive)
REMARK    1  A    between atoms: O_2  and  C_3
REMARK    2  A    between atoms: C_6  and  C_7
REMARK    3  A    between atoms: C_7  and  N_8
REMARK    4  A    between atoms: C_17  and  C_18
REMARK    5  A    between atoms: C_18  and  C_19
REMARK    6  A    between atoms: C_19  and  C_20
REMARK                            x       y       z     vdW  Elec       q    Type
REMARK                         _______ _______ _______ _____ _____    ______ ____
ROOT
ATOM      8  N   UNL     1      -4.748  -9.614  10.264  0.00  0.00    -0.262 NA
ATOM      9  C   UNL     1      -4.905  -9.546  11.071  0.00  0.00    +0.074 C 
ATOM     10  C   UNL     1      -5.691  -9.311  11.159  0.00  0.00    +0.035 C 
ATOM     11  C   UNL     1      -6.020  -9.234  10.407  0.00  0.00    +0.083 C 
ATOM     12  C   UNL     1      -5.437  -9.421   9.854  0.00  0.00    +0.151 C 
ATOM     13  C   UNL     1      -5.491  -9.427   9.030  0.00  0.00    +0.257 C 
ATOM     14  O   UNL     1      -4.805  -9.641   8.627  0.00  0.00    -0.272 OA
ATOM     15  N   UNL     1      -6.144  -9.248   8.556  0.00  0.00    -0.203 NA
ATOM     16  C   UNL     1      -6.901  -9.018   8.789  0.00  0.00    +0.131 C 
ATOM     17  C   UNL     1      -7.193  -8.911   9.553  0.00  0.00    +0.080 C 
ATOM     28  N   UNL     1      -6.801  -9.007  10.273  0.00  0.00    -0.271 NA
ATOM     29  C   UNL     1      -7.251  -8.857  10.948  0.00  0.00    +0.090 C 
ENDROOT
BRANCH   8   7
ATOM      7  C   UNL     1      -4.028  -9.835   9.927  0.00  0.00    +0.100 C 
BRANCH   7   6
ATOM      3  C   UNL     1      -1.973  -9.861  11.306  0.00  0.00    +0.139 A 
ATOM      4  C   UNL     1      -2.152  -9.201  10.845  0.00  0.00    +0.037 A 
ATOM      5  C   UNL     1      -2.837  -9.193  10.385  0.00  0.00    +0.000 A 
ATOM      6  C   UNL     1      -3.343  -9.844  10.387  0.00  0.00    -0.006 A 
ATOM     30  C   UNL     1      -3.165 -10.505  10.848  0.00  0.00    +0.000 A 
ATOM     31  C   UNL     1      -2.480 -10.513  11.308  0.00  0.00    +0.037 A 
BRANCH   3   2
ATOM      1  C   UNL     1      -0.626  -9.439  11.530  0.00  0.00    +0.252 C 
ATOM      2  O   UNL     1      -1.288  -9.871  11.766  0.00  0.00    -0.471 OA
ENDBRANCH   3   2
ENDBRANCH   7   6
ENDBRANCH   8   7
BRANCH  17  18
ATOM     18  C   UNL     1      -7.983  -8.677   9.604  0.00  0.00    +0.027 C 
BRANCH  18  19
ATOM     19  C   UNL     1      -8.288  -8.132   9.065  0.00  0.00    +0.087 C 
BRANCH  19  20
ATOM     20  C   UNL     1      -9.081  -7.910   9.106  0.00  0.00    +0.226 C 
ATOM     21  O   UNL     1      -9.632  -8.412   9.459  0.00  0.00    -0.275 OA
ATOM     22  N   UNL     1      -9.323  -7.186   8.793  0.00  0.00    -0.274 N 
ATOM     23  C   UNL     1      -8.772  -6.684   8.440  0.00  0.00    +0.125 C 
ATOM     24  C   UNL     1      -9.016  -5.961   8.128  0.00  0.00    +0.164 C 
ATOM     25  O   UNL     1      -9.809  -5.739   8.169  0.00  0.00    -0.350 OA
ATOM     26  C   UNL     1     -10.359  -6.241   8.521  0.00  0.00    +0.164 C 
ATOM     27  C   UNL     1     -10.117  -6.965   8.834  0.00  0.00    +0.125 C 
ENDBRANCH  19  20
ENDBRANCH  18  19
ENDBRANCH  17  18
TORSDOF 6
ENDMDL
MODEL 6
REMARK VINA RESULT:      -6.7      3.407      4.949
REMARK  Name = 
REMARK  6 active torsions:
REMARK  status: ('A' for Active; 'I' for Inactive)
REMARK    1  A    between atoms: O_2  and  C_3
REMARK    2  A    between atoms: C_6  and  C_7
REMARK    3  A    between atoms: C_7  and  N_8
REMARK    4  A    between atoms: C_17  and  C_18
REMARK    5  A    between atoms: C_18  and  C_19
REMARK    6  A    between atoms: C_19  and  C_20
REMARK                            x       y       z     vdW  Elec       q    Type
REMARK                         _______ _______ _______ _____ _____    ______ ____
ROOT
ATOM      8  N   UNL     1      -4.074   0.050  24.219  0.00  0.00    -0.262 NA
ATOM      9  C   UNL     1      -3.580   0.012  23.560  0.00  0.00    +0.074 C 
ATOM     10  C   UNL     1      -3.298   0.774  23.409  0.00  0.00    +0.035 C 
ATOM     11  C   UNL     1      -3.618   1.280  23.976  0.00  0.00    +0.083 C 
ATOM     12  C   UNL     1      -4.097   0.833  24.476  0.00  0.00    +0.151 C 
ATOM     13  C   UNL     1      -4.538   1.084  25.127  0.00  0.00    +0.257 C 
ATOM     14  O   UNL     1      -4.965   0.497  25.519  0.00  0.00    -0.272 OA
ATOM     15  N   UNL     1      -4.607   1.846  25.438  0.00  0.00    -0.203 NA
ATOM     16  C   UNL     1      -4.254   2.543  25.176  0.00  0.00    +0.131 C 
ATOM     17  C   UNL     1      -3.743   2.651  24.537  0.00  0.00    +0.080 C 
ATOM     28  N   UNL     1      -3.460   2.089  24.002  0.00  0.00    -0.271 NA
ATOM     29  C   UNL     1      -2.953   2.375  23.418  0.00  0.00    +0.090 C 
ENDROOT
BRANCH   8   7
ATOM      7  C   UNL     1      -4.474  -0.586  24.562  0.00  0.00    +0.100 C 
BRANCH   7   6
ATOM      3  C   UNL     1      -3.565  -2.878  24.349  0.00  0.00    +0.139 A 
ATOM      4  C   UNL     1      -3.338  -2.402  24.983  0.00  0.00    +0.037 A 
ATOM      5  C   UNL     1      -3.641  -1.637  25.053  0.00  0.00    +0.000 A 
ATOM      6  C   UNL     1      -4.171  -1.350  24.490  0.00  0.00    -0.006 A 
ATOM     30  C   UNL     1      -4.399  -1.827  23.857  0.00  0.00    +0.000 A 
ATOM     31  C   UNL     1      -4.096  -2.591  23.786  0.00  0.00    +0.037 A 
BRANCH   3   2
ATOM      1  C   UNL     1      -2.537  -3.766  23.905  0.00  0.00    +0.252 C 
ATOM      2  O   UNL     1      -3.263  -3.642  24.278  0.00  0.00    -0.471 OA
ENDBRANCH   3   2
ENDBRANCH   7   6
ENDBRANCH   8   7
BRANCH  17  18
ATOM     18  C   UNL     1      -3.481   3.424  24.415  0.00  0.00    +0.027 C 
BRANCH  18  19
ATOM     19  C   UNL     1      -2.899   3.744  24.904  0.00  0.00    +0.087 C 
BRANCH  19  20
ATOM     20  C   UNL     1      -2.703   4.543  24.844  0.00  0.00    +0.226 C 
ATOM     21  O   UNL     1      -3.293   5.104  24.712  0.00  0.00    -0.275 OA
ATOM     22  N   UNL     1      -1.916   4.781  24.916  0.00  0.00    -0.274 N 
ATOM     23  C   UNL     1      -1.326   4.220  25.049  0.00  0.00    +0.125 C 
ATOM     24  C   UNL     1      -0.540   4.458  25.121  0.00  0.00    +0.164 C 
ATOM     25  O   UNL     1      -0.344   5.257  25.061  0.00  0.00    -0.350 OA
ATOM     26  C   UNL     1      -0.933   5.818  24.929  0.00  0.00    +0.164 C 
ATOM     27  C   UNL     1      -1.720   5.580  24.856  0.00  0.00    +0.125 C 
ENDBRANCH  19  20
ENDBRANCH  18  19
ENDBRANCH  17  18
TORSDOF 6
ENDMDL
MODEL 7
REMARK VINA RESULT:      -6.6     14.664     15.117
REMARK  Name = 
REMARK  6 active torsions:
REMARK  status: ('A' for Active; 'I' for Inactive)
REMARK    1  A    between atoms: O_2  and  C_3
REMARK    2  A    between atoms: C_6  and  C_7
REMARK    3  A    between atoms: C_7  and  N_8
REMARK    4  A    between atoms: C_17  and  C_18
REMARK    5  A    between atoms: C_18  and  C_19
REMARK    6  A    between atoms: C_19  and  C_20
REMARK                            x       y       z     vdW  Elec       q    Type
REMARK                         _______ _______ _______ _____ _____    ______ ____
ROOT
ATOM      8  N   UNL     1      -7.415  -9.757  16.027  0.00  0.00    -0.262 NA
ATOM      9  C   UNL     1      -7.058  -9.686  16.767  0.00  0.00    +0.074 C 
ATOM     10  C   UNL     1      -6.252  -9.842  16.678  0.00  0.00    +0.035 C 
ATOM     11  C   UNL     1      -6.113 -10.009  15.883  0.00  0.00    +0.083 C 
ATOM     12  C   UNL     1      -6.831  -9.957  15.481  0.00  0.00    +0.151 C 
ATOM     13  C   UNL     1      -6.982 -10.076  14.678  0.00  0.00    +0.257 C 
ATOM     14  O   UNL     1      -7.767  -9.982  14.443  0.00  0.00    -0.272 OA
ATOM     15  N   UNL     1      -6.450 -10.276  14.079  0.00  0.00    -0.203 NA
ATOM     16  C   UNL     1      -5.638 -10.407  14.135  0.00  0.00    +0.131 C 
ATOM     17  C   UNL     1      -5.156 -10.370  14.803  0.00  0.00    +0.080 C 
ATOM     28  N   UNL     1      -5.367 -10.193  15.581  0.00  0.00    -0.271 NA
ATOM     29  C   UNL     1      -4.751 -10.201  16.129  0.00  0.00    +0.090 C 
ENDROOT
BRANCH   8   7
ATOM      7  C   UNL     1      -8.217  -9.648  15.863  0.00  0.00    +0.100 C 
BRANCH   7   6
ATOM      3  C   UNL     1      -9.810  -9.226  17.710  0.00  0.00    +0.139 A 
ATOM      4  C   UNL     1      -9.651 -10.000  17.471  0.00  0.00    +0.037 A 
ATOM      5  C   UNL     1      -9.120 -10.140  16.855  0.00  0.00    +0.000 A 
ATOM      6  C   UNL     1      -8.748  -9.507  16.479  0.00  0.00    -0.006 A 
ATOM     30  C   UNL     1      -8.907  -8.733  16.718  0.00  0.00    +0.000 A 
ATOM     31  C   UNL     1      -9.438  -8.593  17.333  0.00  0.00    +0.037 A 
BRANCH   3   2
ATOM      1  C   UNL     1     -10.689  -9.718  18.723  0.00  0.00    +0.252 C 
ATOM      2  O   UNL     1     -10.341  -9.085  18.325  0.00  0.00    -0.471 OA
ENDBRANCH   3   2
ENDBRANCH   7   6
ENDBRANCH   8   7
BRANCH  17  18
ATOM     18  C   UNL     1      -4.357 -10.531  14.677  0.00  0.00    +0.027 C 
BRANCH  18  19
ATOM     19  C   UNL     1      -4.047 -10.514  13.913  0.00  0.00    +0.087 C 
BRANCH  19  20
ATOM     20  C   UNL     1      -3.238 -10.617  13.793  0.00  0.00    +0.226 C 
ATOM     21  O   UNL     1      -2.743 -10.781  14.432  0.00  0.00    -0.275 OA
ATOM     22  N   UNL     1      -2.923 -10.556  13.032  0.00  0.00    -0.274 N 
ATOM     23  C   UNL     1      -3.418 -10.393  12.393  0.00  0.00    +0.125 C 
ATOM     24  C   UNL     1      -3.102 -10.332  11.633  0.00  0.00    +0.164 C 
ATOM     25  O   UNL     1      -2.292 -10.435  11.513  0.00  0.00    -0.350 OA
ATOM     26  C   UNL     1      -1.798 -10.598  12.152  0.00  0.00    +0.164 C 
ATOM     27  C   UNL     1      -2.114 -10.659  12.912  0.00  0.00    +0.125 C 
ENDBRANCH  19  20
ENDBRANCH  18  19
ENDBRANCH  17  18
TORSDOF 6
ENDMDL
MODEL 8
REMARK VINA RESULT:      -6.2     14.707     16.467
REMARK  Name = 
REMARK  6 active torsions:
REMARK  status: ('A' for Active; 'I' for Inactive)
REMARK    1  A    between atoms: O_2  and  C_3
REMARK    2  A    between atoms: C_6  and  C_7
REMARK    3  A    between atoms: C_7  and  N_8
REMARK    4  A    between atoms: C_17  and  C_18
REMARK    5  A    between atoms: C_18  and  C_19
REMARK    6  A    between atoms: C_19  and  C_20
REMARK                            x       y       z     vdW  Elec       q    Type
REMARK                         _______ _______ _______ _____ _____    ______ ____
ROOT
ATOM      8  N   UNL     1      -3.467 -10.606  13.291  0.00  0.00    -0.262 NA
ATOM      9  C   UNL     1      -2.809 -10.512  13.779  0.00  0.00    +0.074 C 
ATOM     10  C   UNL     1      -3.074 -10.468  14.560  0.00  0.00    +0.035 C 
ATOM     11  C   UNL     1      -3.896 -10.535  14.553  0.00  0.00    +0.083 C 
ATOM     12  C   UNL     1      -4.138 -10.620  13.769  0.00  0.00    +0.151 C 
ATOM     13  C   UNL     1      -4.904 -10.707  13.474  0.00  0.00    +0.257 C 
ATOM     14  O   UNL     1      -4.967 -10.781  12.655  0.00  0.00    -0.272 OA
ATOM     15  N   UNL     1      -5.617 -10.730  13.891  0.00  0.00    -0.203 NA
ATOM     16  C   UNL     1      -5.739 -10.671  14.704  0.00  0.00    +0.131 C 
ATOM     17  C   UNL     1      -5.179 -10.576  15.303  0.00  0.00    +0.080 C 
ATOM     28  N   UNL     1      -4.359 -10.515  15.235  0.00  0.00    -0.271 NA
ATOM     29  C   UNL     1      -3.948 -10.422  15.944  0.00  0.00    +0.090 C 
ENDROOT
BRANCH   8   7
ATOM      7  C   UNL     1      -3.455 -10.675  12.469  0.00  0.00    +0.100 C 
BRANCH   7   6
ATOM      3  C   UNL     1      -1.617  -9.645  11.170  0.00  0.00    +0.139 A 
ATOM      4  C   UNL     1      -1.466 -10.294  11.655  0.00  0.00    +0.037 A 
ATOM      5  C   UNL     1      -2.078 -10.638  12.088  0.00  0.00    +0.000 A 
ATOM      6  C   UNL     1      -2.843 -10.331  12.036  0.00  0.00    -0.006 A 
ATOM     30  C   UNL     1      -2.995  -9.681  11.550  0.00  0.00    +0.000 A 
ATOM     31  C   UNL     1      -2.382  -9.338  11.118  0.00  0.00    +0.037 A 
BRANCH   3   2
ATOM      1  C   UNL     1      -0.395  -8.905  11.126  0.00  0.00    +0.252 C 
ATOM      2  O   UNL     1      -1.005  -9.301  10.737  0.00  0.00    -0.471 OA
ENDBRANCH   3   2
ENDBRANCH   7   6
ENDBRANCH   8   7
BRANCH  17  18
ATOM     18  C   UNL     1      -5.479 -10.535  16.070  0.00  0.00    +0.027 C 
BRANCH  18  19
ATOM     19  C   UNL     1      -6.241 -10.248  16.201  0.00  0.00    +0.087 C 
BRANCH  19  20
ATOM     20  C   UNL     1      -6.579 -10.301  16.952  0.00  0.00    +0.226 C 
ATOM     21  O   UNL     1      -6.231 -10.778  17.528  0.00  0.00    -0.275 OA
ATOM     22  N   UNL     1      -7.265  -9.877  17.126  0.00  0.00    -0.274 N 
ATOM     23  C   UNL     1      -7.612  -9.400  16.550  0.00  0.00    +0.125 C 
ATOM     24  C   UNL     1      -8.298  -8.976  16.725  0.00  0.00    +0.164 C 
ATOM     25  O   UNL     1      -8.636  -9.029  17.476  0.00  0.00    -0.350 OA
ATOM     26  C   UNL     1      -8.288  -9.506  18.051  0.00  0.00    +0.164 C 
ATOM     27  C   UNL     1      -7.602  -9.930  17.877  0.00  0.00    +0.125 C 
ENDBRANCH  19  20
ENDBRANCH  18  19
ENDBRANCH  17  18
TORSDOF 6
ENDMDL
MODEL 9
REMARK VINA RESULT:      -6.0     13.783     15.559
REMARK  Name = 
REMARK  6 active torsions:
REMARK  status: ('A' for Active; 'I' for Inactive)
REMARK    1  A    between atoms: O_2  and  C_3
REMARK    2  A    between atoms: C_6  and  C_7
REMARK    3  A    between atoms: C_7  and  N_8
REMARK    4  A    between atoms: C_17  and  C_18
REMARK    5  A    between atoms: C_18  and  C_19
REMARK    6  A    between atoms: C_19  and  C_20
REMARK                            x       y       z     vdW  Elec       q    Type
REMARK                         _______ _______ _______ _____ _____    ______ ____
ROOT
ATOM      8  N   UNL     1      -4.599 -10.546  15.916  0.00  0.00    -0.262 NA
ATOM      9  C   UNL     1      -4.324 -10.594  16.692  0.00  0.00    +0.074 C 
ATOM     10  C   UNL     1      -4.944 -10.387  17.195  0.00  0.00    +0.035 C 
ATOM     11  C   UNL     1      -5.602 -10.211  16.730  0.00  0.00    +0.083 C 
ATOM     12  C   UNL     1      -5.388 -10.309  15.939  0.00  0.00    +0.151 C 
ATOM     13  C   UNL     1      -5.850 -10.201  15.264  0.00  0.00    +0.257 C 
ATOM     14  O   UNL     1      -5.473 -10.345  14.545  0.00  0.00    -0.272 OA
ATOM     15  N   UNL     1      -6.641  -9.968  15.213  0.00  0.00    -0.203 NA
ATOM     16  C   UNL     1      -7.163  -9.785  15.824  0.00  0.00    +0.131 C 
ATOM     17  C   UNL     1      -7.025  -9.791  16.638  0.00  0.00    +0.080 C 
ATOM     28  N   UNL     1      -6.330  -9.981  17.041  0.00  0.00    -0.271 NA
ATOM     29  C   UNL     1      -6.370  -9.933  17.863  0.00  0.00    +0.090 C 
ENDROOT
BRANCH   8   7
ATOM      7  C   UNL     1      -4.160 -10.706  15.235  0.00  0.00    +0.100 C 
BRANCH   7   6
ATOM      3  C   UNL     1      -1.687 -10.712  15.329  0.00  0.00    +0.139 A 
ATOM      4  C   UNL     1      -2.072 -10.641  14.603  0.00  0.00    +0.037 A 
ATOM      5  C   UNL     1      -2.896 -10.639  14.572  0.00  0.00    +0.000 A 
ATOM      6  C   UNL     1      -3.336 -10.708  15.267  0.00  0.00    -0.006 A 
ATOM     30  C   UNL     1      -2.951 -10.779  15.993  0.00  0.00    +0.000 A 
ATOM     31  C   UNL     1      -2.127 -10.781  16.024  0.00  0.00    +0.037 A 
BRANCH   3   2
ATOM      1  C   UNL     1      -0.472 -10.316  15.969  0.00  0.00    +0.252 C 
ATOM      2  O   UNL     1      -0.863 -10.714  15.361  0.00  0.00    -0.471 OA
ENDBRANCH   3   2
ENDBRANCH   7   6
ENDBRANCH   8   7
BRANCH  17  18
ATOM     18  C   UNL     1      -7.667  -9.580  17.111  0.00  0.00    +0.027 C 
BRANCH  18  19
ATOM     19  C   UNL     1      -8.298  -9.158  16.787  0.00  0.00    +0.087 C 
BRANCH  19  20
ATOM     20  C   UNL     1      -8.956  -8.980  17.251  0.00  0.00    +0.226 C 
ATOM     21  O   UNL     1      -9.085  -9.384  17.958  0.00  0.00    -0.275 OA
ATOM     22  N   UNL     1      -9.487  -8.397  17.007  0.00  0.00    -0.274 N 
ATOM     23  C   UNL     1      -9.358  -7.993  16.299  0.00  0.00    +0.125 C 
ATOM     24  C   UNL     1      -9.889  -7.410  16.056  0.00  0.00    +0.164 C 
ATOM     25  O   UNL     1     -10.547  -7.232  16.519  0.00  0.00    -0.350 OA
ATOM     26  C   UNL     1     -10.676  -7.635  17.226  0.00  0.00    +0.164 C 
ATOM     27  C   UNL     1     -10.145  -8.218  17.470  0.00  0.00    +0.125 C 
ENDBRANCH  19  20
ENDBRANCH  18  19
ENDBRANCH  17  18
TORSDOF 6
ENDMDL
MODEL 10
REMARK VINA RESULT:      -6.0     15.384     15.839
REMARK  Name = 
REMARK  6 active torsions:
REMARK  status: ('A' for Active; 'I' for Inactive)
REMARK    1  A    between atoms: O_2  and  C_3
REMARK    2  A    between atoms: C_6  and  C_7
REMARK    3  A    between atoms: C_7  and  N_8
REMARK    4  A    between atoms: C_17  and  C_18
REMARK    5  A    between atoms: C_18  and  C_19
REMARK    6  A    between atoms: C_19  and  C_20
REMARK                            x       y       z     vdW  Elec       q    Type
REMARK                         _______ _______ _______ _____ _____    ______ ____
ROOT
ATOM      8  N   UNL     1      -7.285 -10.041  15.390  0.00  0.00    -0.262 NA
ATOM      9  C   UNL     1      -6.700 -10.145  15.962  0.00  0.00    +0.074 C 
ATOM     10  C   UNL     1      -5.977 -10.231  15.573  0.00  0.00    +0.035 C 
ATOM     11  C   UNL     1      -6.116 -10.180  14.762  0.00  0.00    +0.083 C 
ATOM     12  C   UNL     1      -6.925 -10.063  14.649  0.00  0.00    +0.151 C 
ATOM     13  C   UNL     1      -7.339  -9.977  13.940  0.00  0.00    +0.257 C 
ATOM     14  O   UNL     1      -8.153  -9.867  14.011  0.00  0.00    -0.272 OA
ATOM     15  N   UNL     1      -7.045  -9.988  13.169  0.00  0.00    -0.203 NA
ATOM     16  C   UNL     1      -6.266 -10.087  12.916  0.00  0.00    +0.131 C 
ATOM     17  C   UNL     1      -5.588 -10.199  13.372  0.00  0.00    +0.080 C 
ATOM     28  N   UNL     1      -5.521 -10.241  14.194  0.00  0.00    -0.271 NA
ATOM     29  C   UNL     1      -4.759 -10.358  14.486  0.00  0.00    +0.090 C 
ENDROOT
BRANCH   8   7
ATOM      7  C   UNL     1      -8.091  -9.935  15.535  0.00  0.00    +0.100 C 
BRANCH   7   6
ATOM      3  C   UNL     1      -8.965 -10.106  17.845  0.00  0.00    +0.139 A 
ATOM      4  C   UNL     1      -8.727  -9.375  17.547  0.00  0.00    +0.037 A 
ATOM      5  C   UNL     1      -8.436  -9.318  16.777  0.00  0.00    +0.000 A 
ATOM      6  C   UNL     1      -8.382  -9.993  16.305  0.00  0.00    -0.006 A 
ATOM     30  C   UNL     1      -8.621 -10.724  16.602  0.00  0.00    +0.000 A 
ATOM     31  C   UNL     1      -8.912 -10.781  17.372  0.00  0.00    +0.037 A 
BRANCH   3   2
ATOM      1  C   UNL     1     -10.070 -10.197  18.746  0.00  0.00    +0.252 C 
ATOM      2  O   UNL     1      -9.257 -10.164  18.614  0.00  0.00    -0.471 OA
ENDBRANCH   3   2
ENDBRANCH   7   6
ENDBRANCH   8   7
BRANCH  17  18
ATOM     18  C   UNL     1      -4.883 -10.281  12.952  0.00  0.00    +0.027 C 
BRANCH  18  19
ATOM     19  C   UNL     1      -4.811  -9.953  12.199  0.00  0.00    +0.087 C 
BRANCH  19  20
ATOM     20  C   UNL     1      -4.115 -10.055  11.769  0.00  0.00    +0.226 C 
ATOM     21  O   UNL     1      -3.544 -10.592  12.028  0.00  0.00    -0.275 OA
ATOM     22  N   UNL     1      -3.989  -9.621  11.078  0.00  0.00    -0.274 N 
ATOM     23  C   UNL     1      -4.560  -9.085  10.819  0.00  0.00    +0.125 C 
ATOM     24  C   UNL     1      -4.433  -8.651  10.129  0.00  0.00    +0.164 C 
ATOM     25  O   UNL     1      -3.737  -8.754   9.698  0.00  0.00    -0.350 OA
ATOM     26  C   UNL     1      -3.167  -9.289   9.958  0.00  0.00    +0.164 C 
ATOM     27  C   UNL     1      -3.293  -9.724  10.648  0.00  0.00    +0.125 C 
ENDBRANCH  19  20
ENDBRANCH  18  19
ENDBRANCH  17  18
TORSDOF 6
ENDMDL
