MODEL 1
REMARK VINA RESULT:      -9.7      0.000      0.000
REMARK  Name = 
REMARK  4 active torsions:
REMARK  status: ('A' for Active; 'I' for Inactive)
REMARK    1  A    between atoms: C_3  and  N_4
REMARK    2  A    between atoms: N_7  and  C_8
REMARK    3  A    between atoms: C_8  and  C_9
REMARK    4  A    between atoms: C_16  and  N_17
REMARK                            x       y       z     vdW  Elec       q    Type
REMARK                         _______ _______ _______ _____ _____    ______ ____
ROOT
ATOM      1  O   UNL     1      -3.055   1.957  24.947  0.00  0.00    -0.220 OA
ATOM      2  C   UNL     1      -3.829   1.673  24.961  0.00  0.00    +0.194 C 
ATOM      3  C   UNL     1      -4.459   1.138  25.018  0.00  0.00    +0.158 C 
ATOM     11  C   UNL     1      -5.161   1.736  24.904  0.00  0.00    +0.170 C 
ATOM     12  C   UNL     1      -4.951   2.477  24.801  0.00  0.00    +0.176 C 
ATOM     13  O   UNL     1      -5.184   3.156  24.691  0.00  0.00    -0.327 OA
ATOM     14  C   UNL     1      -5.243   2.285  24.819  0.00  0.00    +0.253 C 
ATOM     15  O   UNL     1      -5.873   1.754  24.875  0.00  0.00    -0.327 OA
ATOM     16  C   UNL     1      -4.500   1.672  24.937  0.00  0.00    +0.147 C 
ENDROOT
BRANCH  16  17
ATOM     17  N   UNL     1      -4.216   2.439  24.833  0.00  0.00    -0.263 NA
ATOM     18  C   UNL     1      -4.065   2.724  24.073  0.00  0.00    +0.105 C 
ATOM     19  C   UNL     1      -3.781   3.492  23.969  0.00  0.00    +0.159 C 
ATOM     20  O   UNL     1      -3.649   3.974  24.624  0.00  0.00    -0.351 OA
ATOM     21  C   UNL     1      -3.799   3.690  25.384  0.00  0.00    +0.159 C 
ATOM     22  C   UNL     1      -4.083   2.923  25.488  0.00  0.00    +0.105 C 
ENDBRANCH  16  17
BRANCH   3   4
ATOM      4  N   UNL     1      -4.463   0.321  25.140  0.00  0.00    -0.184 NA
ATOM      5  C   UNL     1      -4.170  -0.184  24.557  0.00  0.00    +0.340 C 
ATOM      6  O   UNL     1      -3.873   0.128  23.852  0.00  0.00    -0.249 OA
ATOM      7  N   UNL     1      -4.173  -1.000  24.679  0.00  0.00    -0.182 NA
BRANCH   7   8
ATOM      8  C   UNL     1      -3.880  -1.505  24.096  0.00  0.00    +0.143 C 
BRANCH   8   9
ATOM      9  C   UNL     1      -4.076  -2.306  24.107  0.00  0.00    -0.003 C 
ATOM     10  C   UNL     1      -3.492  -2.871  24.244  0.00  0.00    -0.003 C 
ENDBRANCH   8   9
ENDBRANCH   7   8
ENDBRANCH   3   4
TORSDOF 4
ENDMDL
MODEL 2
REMARK VINA RESULT:      -8.9      1.407      3.868
REMARK  Name = 
REMARK  4 active torsions:
REMARK  status: ('A' for Active; 'I' for Inactive)
REMARK    1  A    between atoms: C_3  and  N_4
REMARK    2  A    between atoms: N_7  and  C_8
REMARK    3  A    between atoms: C_8  and  C_9
REMARK    4  A    between atoms: C_16  and  N_17
REMARK                            x       y       z     vdW  Elec       q    Type
REMARK                         _______ _______ _______ _____ _____    ______ ____
ROOT
ATOM      1  O   UNL     1      -2.528   0.313  24.098  0.00  0.00    -0.220 OA
ATOM      2  C   UNL     1      -3.113   0.834  24.356  0.00  0.00    +0.194 C 
ATOM      3  C   UNL     1      -3.504   1.548  24.511  0.00  0.00    +0.158 C 
ATOM     11  C   UNL     1      -4.273   1.205  24.903  0.00  0.00    +0.170 C 
ATOM     12  C   UNL     1      -4.300   0.429  24.956  0.00  0.00    +0.176 C 
ATOM     13  O   UNL     1      -4.689  -0.143  25.174  0.00  0.00    -0.327 OA
ATOM     14  C   UNL     1      -4.497   0.707  25.037  0.00  0.00    +0.253 C 
ATOM     15  O   UNL     1      -4.889   1.417  25.192  0.00  0.00    -0.327 OA
ATOM     16  C   UNL     1      -3.688   1.052  24.625  0.00  0.00    +0.147 C 
ENDROOT
BRANCH  16  17
ATOM     17  N   UNL     1      -3.659   0.228  24.653  0.00  0.00    -0.263 NA
ATOM     18  C   UNL     1      -3.924  -0.217  24.010  0.00  0.00    +0.105 C 
ATOM     19  C   UNL     1      -3.895  -1.041  24.038  0.00  0.00    +0.159 C 
ATOM     20  O   UNL     1      -3.601  -1.420  24.709  0.00  0.00    -0.351 OA
ATOM     21  C   UNL     1      -3.336  -0.976  25.352  0.00  0.00    +0.159 C 
ATOM     22  C   UNL     1      -3.365  -0.152  25.324  0.00  0.00    +0.105 C 
ENDBRANCH  16  17
BRANCH   3   4
ATOM      4  N   UNL     1      -3.279   2.329  24.361  0.00  0.00    -0.184 NA
ATOM      5  C   UNL     1      -2.678   2.677  24.807  0.00  0.00    +0.340 C 
ATOM      6  O   UNL     1      -2.303   2.245  25.402  0.00  0.00    -0.249 OA
ATOM      7  N   UNL     1      -2.453   3.456  24.658  0.00  0.00    -0.182 NA
BRANCH   7   8
ATOM      8  C   UNL     1      -1.853   3.805  25.104  0.00  0.00    +0.143 C 
BRANCH   8   9
ATOM      9  C   UNL     1      -1.766   4.625  25.110  0.00  0.00    -0.003 C 
ATOM     10  C   UNL     1      -1.017   4.961  25.038  0.00  0.00    -0.003 C 
ENDBRANCH   8   9
ENDBRANCH   7   8
ENDBRANCH   3   4
TORSDOF 4
ENDMDL
MODEL 3
REMARK VINA RESULT:      -8.7      1.410      4.357
REMARK  Name = 
REMARK  4 active torsions:
REMARK  status: ('A' for Active; 'I' for Inactive)
REMARK    1  A    between atoms: C_3  and  N_4
REMARK    2  A    between atoms: N_7  and  C_8
REMARK    3  A    between atoms: C_8  and  C_9
REMARK    4  A    between atoms: C_16  and  N_17
REMARK                            x       y       z     vdW  Elec       q    Type
REMARK                         _______ _______ _______ _____ _____    ______ ____
ROOT
ATOM      1  O   UNL     1      -3.756  -1.111  23.507  0.00  0.00    -0.220 OA
ATOM      2  C   UNL     1      -3.841  -0.846  24.284  0.00  0.00    +0.194 C 
ATOM      3  C   UNL     1      -4.045  -0.355  24.920  0.00  0.00    +0.158 C 
ATOM     11  C   UNL     1      -3.741  -0.891  25.615  0.00  0.00    +0.170 C 
ATOM     12  C   UNL     1      -3.422  -1.567  25.397  0.00  0.00    +0.176 C 
ATOM     13  O   UNL     1      -3.107  -2.181  25.622  0.00  0.00    -0.327 OA
ATOM     14  C   UNL     1      -3.492  -1.389  25.691  0.00  0.00    +0.253 C 
ATOM     15  O   UNL     1      -3.694  -0.902  26.325  0.00  0.00    -0.327 OA
ATOM     16  C   UNL     1      -3.805  -0.839  24.954  0.00  0.00    +0.147 C 
ENDROOT
BRANCH  16  17
ATOM     17  N   UNL     1      -3.479  -1.539  24.663  0.00  0.00    -0.263 NA
ATOM     18  C   UNL     1      -3.969  -2.173  24.467  0.00  0.00    +0.105 C 
ATOM     19  C   UNL     1      -3.643  -2.872  24.176  0.00  0.00    +0.159 C 
ATOM     20  O   UNL     1      -2.826  -2.937  24.079  0.00  0.00    -0.351 OA
ATOM     21  C   UNL     1      -2.336  -2.304  24.275  0.00  0.00    +0.159 C 
ATOM     22  C   UNL     1      -2.662  -1.604  24.566  0.00  0.00    +0.105 C 
ENDBRANCH  16  17
BRANCH   3   4
ATOM      4  N   UNL     1      -4.408   0.387  24.932  0.00  0.00    -0.184 NA
ATOM      5  C   UNL     1      -3.979   1.060  24.724  0.00  0.00    +0.340 C 
ATOM      6  O   UNL     1      -3.186   0.991  24.503  0.00  0.00    -0.249 OA
ATOM      7  N   UNL     1      -4.342   1.800  24.735  0.00  0.00    -0.182 NA
BRANCH   7   8
ATOM      8  C   UNL     1      -3.912   2.473  24.527  0.00  0.00    +0.143 C 
BRANCH   8   9
ATOM      9  C   UNL     1      -4.250   3.221  24.612  0.00  0.00    -0.003 C 
ATOM     10  C   UNL     1      -3.845   3.889  24.348  0.00  0.00    -0.003 C 
ENDBRANCH   8   9
ENDBRANCH   7   8
ENDBRANCH   3   4
TORSDOF 4
ENDMDL
