MODEL 1
REMARK VINA RESULT:      -9.9      0.000      0.000
REMARK  Name = 
REMARK  6 active torsions:
REMARK  status: ('A' for Active; 'I' for Inactive)
REMARK    1  A    between atoms: C_3  and  N_18
REMARK    2  A    between atoms: C_6  and  C_7
REMARK    3  A    between atoms: C_7  and  N_8
REMARK    4  A    between atoms: C_9  and  C_11
REMARK    5  A    between atoms: N_18  and  C_19
REMARK    6  A    between atoms: C_19  and  C_20
REMARK                            x       y       z     vdW  Elec       q    Type
REMARK                         _______ _______ _______ _____ _____    ______ ____
ROOT
ATOM      1  O   UNL     1      -4.133   0.982  25.593  0.00  0.00    -0.219 OA
ATOM      2  C   UNL     1      -3.873   1.113  24.821  0.00  0.00    +0.199 C 
ATOM      3  C   UNL     1      -3.819   0.546  24.225  0.00  0.00    +0.135 C 
ATOM      4  C   UNL     1      -3.534   0.917  23.546  0.00  0.00    +0.162 C 
ATOM      5  O   UNL     1      -3.412   1.714  23.722  0.00  0.00    -0.350 OA
ATOM      6  C   UNL     1      -3.622   1.835  24.510  0.00  0.00    +0.169 C 
ENDROOT
BRANCH   6   7
ATOM      7  C   UNL     1      -3.587   2.552  24.917  0.00  0.00    +0.148 C 
BRANCH   7   8
ATOM      8  N   UNL     1      -2.938   3.051  24.816  0.00  0.00    -0.199 NA
ATOM      9  C   UNL     1      -2.834   3.699  25.317  0.00  0.00    +0.265 C 
ATOM     10  O   UNL     1      -3.379   3.846  25.919  0.00  0.00    -0.268 OA
BRANCH   9  11
ATOM     11  C   UNL     1      -2.185   4.198  25.217  0.00  0.00    +0.055 A 
ATOM     12  C   UNL     1      -1.423   3.883  25.184  0.00  0.00    +0.007 A 
ATOM     13  C   UNL     1      -0.775   4.383  25.083  0.00  0.00    +0.030 A 
ATOM     14  C   UNL     1      -0.888   5.197  25.015  0.00  0.00    +0.140 A 
ATOM     15  F   UNL     1      -0.239   5.697  24.915  0.00  0.00    -0.204 F 
ATOM     16  C   UNL     1      -1.649   5.513  25.048  0.00  0.00    +0.030 A 
ATOM     17  C   UNL     1      -2.298   5.013  25.149  0.00  0.00    +0.007 A 
ENDBRANCH   9  11
ENDBRANCH   7   8
ENDBRANCH   6   7
BRANCH   3  18
ATOM     18  N   UNL     1      -4.014  -0.252  24.296  0.00  0.00    -0.209 NA
BRANCH  18  19
ATOM     19  C   UNL     1      -3.628  -0.815  23.832  0.00  0.00    +0.117 C 
BRANCH  19  20
ATOM     20  C   UNL     1      -3.627  -1.607  24.060  0.00  0.00    +0.014 A 
ATOM     21  C   UNL     1      -4.231  -2.110  23.808  0.00  0.00    +0.000 A 
ATOM     22  C   UNL     1      -4.230  -2.903  24.036  0.00  0.00    +0.020 A 
ATOM     23  C   UNL     1      -3.625  -3.193  24.515  0.00  0.00    +0.099 A 
ATOM     24  N   UNL     1      -3.021  -2.691  24.767  0.00  0.00    -0.243 NA
ATOM     25  C   UNL     1      -3.022  -1.898  24.539  0.00  0.00    +0.096 A 
ENDBRANCH  19  20
ENDBRANCH  18  19
ENDBRANCH   3  18
TORSDOF 6
ENDMDL
MODEL 2
REMARK VINA RESULT:      -9.8      1.842      2.203
REMARK  Name = 
REMARK  6 active torsions:
REMARK  status: ('A' for Active; 'I' for Inactive)
REMARK    1  A    between atoms: C_3  and  N_18
REMARK    2  A    between atoms: C_6  and  C_7
REMARK    3  A    between atoms: C_7  and  N_8
REMARK    4  A    between atoms: C_9  and  C_11
REMARK    5  A    between atoms: N_18  and  C_19
REMARK    6  A    between atoms: C_19  and  C_20
REMARK                            x       y       z     vdW  Elec       q    Type
REMARK                         _______ _______ _______ _____ _____    ______ ____
ROOT
ATOM      1  O   UNL     1      -1.233   0.402  23.908  0.00  0.00    -0.219 OA
ATOM      2  C   UNL     1      -1.267   0.269  24.721  0.00  0.00    +0.199 C 
ATOM      3  C   UNL     1      -1.661  -0.352  25.095  0.00  0.00    +0.135 C 
ATOM      4  C   UNL     1      -1.550  -0.272  25.908  0.00  0.00    +0.162 C 
ATOM      5  O   UNL     1      -1.089   0.399  26.037  0.00  0.00    -0.350 OA
ATOM      6  C   UNL     1      -0.914   0.734  25.305  0.00  0.00    +0.169 C 
ENDROOT
BRANCH   6   7
ATOM      7  C   UNL     1      -0.464   1.413  25.176  0.00  0.00    +0.148 C 
BRANCH   7   8
ATOM      8  N   UNL     1      -0.831   2.152  25.157  0.00  0.00    -0.199 NA
ATOM      9  C   UNL     1      -0.381   2.838  25.246  0.00  0.00    +0.265 C 
ATOM     10  O   UNL     1       0.436   2.785  25.353  0.00  0.00    -0.268 OA
BRANCH   9  11
ATOM     11  C   UNL     1      -0.747   3.577  25.226  0.00  0.00    +0.055 A 
ATOM     12  C   UNL     1      -1.451   3.699  25.639  0.00  0.00    +0.007 A 
ATOM     13  C   UNL     1      -1.817   4.438  25.620  0.00  0.00    +0.030 A 
ATOM     14  C   UNL     1      -1.479   5.055  25.188  0.00  0.00    +0.140 A 
ATOM     15  F   UNL     1      -1.846   5.794  25.169  0.00  0.00    -0.204 F 
ATOM     16  C   UNL     1      -0.775   4.933  24.776  0.00  0.00    +0.030 A 
ATOM     17  C   UNL     1      -0.409   4.194  24.795  0.00  0.00    +0.007 A 
ENDBRANCH   9  11
ENDBRANCH   7   8
ENDBRANCH   6   7
BRANCH   3  18
ATOM     18  N   UNL     1      -2.089  -0.950  24.720  0.00  0.00    -0.209 NA
BRANCH  18  19
ATOM     19  C   UNL     1      -2.740  -1.289  25.096  0.00  0.00    +0.117 C 
BRANCH  19  20
ATOM     20  C   UNL     1      -3.243  -1.792  24.679  0.00  0.00    +0.014 A 
ATOM     21  C   UNL     1      -3.876  -1.480  24.250  0.00  0.00    +0.000 A 
ATOM     22  C   UNL     1      -4.379  -1.982  23.832  0.00  0.00    +0.020 A 
ATOM     23  C   UNL     1      -4.249  -2.797  23.843  0.00  0.00    +0.099 A 
ATOM     24  N   UNL     1      -3.617  -3.109  24.271  0.00  0.00    -0.243 NA
ATOM     25  C   UNL     1      -3.114  -2.606  24.689  0.00  0.00    +0.096 A 
ENDBRANCH  19  20
ENDBRANCH  18  19
ENDBRANCH   3  18
TORSDOF 6
ENDMDL
MODEL 3
REMARK VINA RESULT:      -9.6      2.139      5.928
REMARK  Name = 
REMARK  6 active torsions:
REMARK  status: ('A' for Active; 'I' for Inactive)
REMARK    1  A    between atoms: C_3  and  N_18
REMARK    2  A    between atoms: C_6  and  C_7
REMARK    3  A    between atoms: C_7  and  N_8
REMARK    4  A    between atoms: C_9  and  C_11
REMARK    5  A    between atoms: N_18  and  C_19
REMARK    6  A    between atoms: C_19  and  C_20
REMARK                            x       y       z     vdW  Elec       q    Type
REMARK                         _______ _______ _______ _____ _____    ______ ____
ROOT
ATOM      1  O   UNL     1      -3.119   1.937  23.561  0.00  0.00    -0.219 OA
ATOM      2  C   UNL     1      -3.464   2.043  24.303  0.00  0.00    +0.199 C 
ATOM      3  C   UNL     1      -3.324   2.673  24.817  0.00  0.00    +0.135 C 
ATOM      4  C   UNL     1      -3.784   2.558  25.491  0.00  0.00    +0.162 C 
ATOM      5  O   UNL     1      -4.208   1.857  25.395  0.00  0.00    -0.350 OA
ATOM      6  C   UNL     1      -4.011   1.539  24.660  0.00  0.00    +0.169 C 
ENDROOT
BRANCH   6   7
ATOM      7  C   UNL     1      -4.307   0.840  24.339  0.00  0.00    +0.148 C 
BRANCH   7   8
ATOM      8  N   UNL     1      -3.972   0.115  24.549  0.00  0.00    -0.199 NA
ATOM      9  C   UNL     1      -4.350  -0.589  24.343  0.00  0.00    +0.265 C 
ATOM     10  O   UNL     1      -5.062  -0.568  23.927  0.00  0.00    -0.268 OA
BRANCH   9  11
ATOM     11  C   UNL     1      -4.015  -1.313  24.553  0.00  0.00    +0.055 A 
ATOM     12  C   UNL     1      -3.680  -1.411  25.300  0.00  0.00    +0.007 A 
ATOM     13  C   UNL     1      -3.346  -2.136  25.510  0.00  0.00    +0.030 A 
ATOM     14  C   UNL     1      -3.346  -2.762  24.972  0.00  0.00    +0.140 A 
ATOM     15  F   UNL     1      -3.011  -3.486  25.182  0.00  0.00    -0.204 F 
ATOM     16  C   UNL     1      -3.681  -2.663  24.224  0.00  0.00    +0.030 A 
ATOM     17  C   UNL     1      -4.015  -1.939  24.015  0.00  0.00    +0.007 A 
ENDBRANCH   9  11
ENDBRANCH   7   8
ENDBRANCH   6   7
BRANCH   3  18
ATOM     18  N   UNL     1      -2.814   3.307  24.679  0.00  0.00    -0.209 NA
BRANCH  18  19
ATOM     19  C   UNL     1      -2.380   3.630  25.302  0.00  0.00    +0.117 C 
BRANCH  19  20
ATOM     20  C   UNL     1      -1.793   4.189  25.150  0.00  0.00    +0.014 A 
ATOM     21  C   UNL     1      -1.970   4.994  25.186  0.00  0.00    +0.000 A 
ATOM     22  C   UNL     1      -1.383   5.553  25.035  0.00  0.00    +0.020 A 
ATOM     23  C   UNL     1      -0.619   5.307  24.846  0.00  0.00    +0.099 A 
ATOM     24  N   UNL     1      -0.441   4.502  24.810  0.00  0.00    -0.243 NA
ATOM     25  C   UNL     1      -1.029   3.943  24.962  0.00  0.00    +0.096 A 
ENDBRANCH  19  20
ENDBRANCH  18  19
ENDBRANCH   3  18
TORSDOF 6
ENDMDL
MODEL 4
REMARK VINA RESULT:      -9.6      2.837      6.238
REMARK  Name = 
REMARK  6 active torsions:
REMARK  status: ('A' for Active; 'I' for Inactive)
REMARK    1  A    between atoms: C_3  and  N_18
REMARK    2  A    between atoms: C_6  and  C_7
REMARK    3  A    between atoms: C_7  and  N_8
REMARK    4  A    between atoms: C_9  and  C_11
REMARK    5  A    between atoms: N_18  and  C_19
REMARK    6  A    between atoms: C_19  and  C_20
REMARK                            x       y       z     vdW  Elec       q    Type
REMARK                         _______ _______ _______ _____ _____    ______ ____
ROOT
ATOM      1  O   UNL     1      -0.901   1.139  25.987  0.00  0.00    -0.219 OA
ATOM      2  C   UNL     1      -0.712   1.121  25.184  0.00  0.00    +0.199 C 
ATOM      3  C   UNL     1      -0.580   1.776  24.701  0.00  0.00    +0.135 C 
ATOM      4  C   UNL     1      -0.408   1.504  23.942  0.00  0.00    +0.162 C 
ATOM      5  O   UNL     1      -0.433   0.679  23.956  0.00  0.00    -0.350 OA
ATOM      6  C   UNL     1      -0.621   0.442  24.723  0.00  0.00    +0.169 C 
ENDROOT
BRANCH   6   7
ATOM      7  C   UNL     1      -0.703  -0.336  24.983  0.00  0.00    +0.148 C 
BRANCH   7   8
ATOM      8  N   UNL     1      -1.386  -0.761  24.801  0.00  0.00    -0.199 NA
ATOM      9  C   UNL     1      -1.450  -1.554  25.022  0.00  0.00    +0.265 C 
ATOM     10  O   UNL     1      -0.830  -1.920  25.425  0.00  0.00    -0.268 OA
BRANCH   9  11
ATOM     11  C   UNL     1      -2.132  -1.980  24.840  0.00  0.00    +0.055 A 
ATOM     12  C   UNL     1      -2.100  -2.596  24.293  0.00  0.00    +0.007 A 
ATOM     13  C   UNL     1      -2.783  -3.022  24.111  0.00  0.00    +0.030 A 
ATOM     14  C   UNL     1      -3.498  -2.830  24.476  0.00  0.00    +0.140 A 
ATOM     15  F   UNL     1      -4.181  -3.256  24.294  0.00  0.00    -0.204 F 
ATOM     16  C   UNL     1      -3.530  -2.214  25.023  0.00  0.00    +0.030 A 
ATOM     17  C   UNL     1      -2.847  -1.788  25.205  0.00  0.00    +0.007 A 
ENDBRANCH   9  11
ENDBRANCH   7   8
ENDBRANCH   6   7
BRANCH   3  18
ATOM     18  N   UNL     1      -0.615   2.567  24.937  0.00  0.00    -0.209 NA
BRANCH  18  19
ATOM     19  C   UNL     1      -0.883   3.143  24.410  0.00  0.00    +0.117 C 
BRANCH  19  20
ATOM     20  C   UNL     1      -1.122   3.880  24.692  0.00  0.00    +0.014 A 
ATOM     21  C   UNL     1      -0.605   4.522  24.660  0.00  0.00    +0.000 A 
ATOM     22  C   UNL     1      -0.844   5.259  24.942  0.00  0.00    +0.020 A 
ATOM     23  C   UNL     1      -1.601   5.354  25.256  0.00  0.00    +0.099 A 
ATOM     24  N   UNL     1      -2.119   4.713  25.288  0.00  0.00    -0.243 NA
ATOM     25  C   UNL     1      -1.879   3.975  25.006  0.00  0.00    +0.096 A 
ENDBRANCH  19  20
ENDBRANCH  18  19
ENDBRANCH   3  18
TORSDOF 6
ENDMDL
MODEL 5
REMARK VINA RESULT:      -7.1     14.859     16.908
REMARK  Name = 
REMARK  6 active torsions:
REMARK  status: ('A' for Active; 'I' for Inactive)
REMARK    1  A    between atoms: C_3  and  N_18
REMARK    2  A    between atoms: C_6  and  C_7
REMARK    3  A    between atoms: C_7  and  N_8
REMARK    4  A    between atoms: C_9  and  C_11
REMARK    5  A    between atoms: N_18  and  C_19
REMARK    6  A    between atoms: C_19  and  C_20
REMARK                            x       y       z     vdW  Elec       q    Type
REMARK                         _______ _______ _______ _____ _____    ______ ____
ROOT
ATOM      1  O   UNL     1      -3.084 -10.781  14.577  0.00  0.00    -0.219 OA
ATOM      2  C   UNL     1      -3.839 -10.642  14.276  0.00  0.00    +0.199 C 
ATOM      3  C   UNL     1      -4.535 -10.590  14.716  0.00  0.00    +0.135 C 
ATOM      4  C   UNL     1      -5.156 -10.446  14.194  0.00  0.00    +0.162 C 
ATOM      5  O   UNL     1      -4.845 -10.409  13.430  0.00  0.00    -0.350 OA
ATOM      6  C   UNL     1      -4.031 -10.530  13.481  0.00  0.00    +0.169 C 
ENDROOT
BRANCH   6   7
ATOM      7  C   UNL     1      -3.502 -10.538  12.848  0.00  0.00    +0.148 C 
BRANCH   7   8
ATOM      8  N   UNL     1      -3.733 -10.242  12.114  0.00  0.00    -0.199 NA
ATOM      9  C   UNL     1      -3.237 -10.329  11.460  0.00  0.00    +0.265 C 
ATOM     10  O   UNL     1      -2.511 -10.711  11.541  0.00  0.00    -0.268 OA
BRANCH   9  11
ATOM     11  C   UNL     1      -3.468 -10.033  10.725  0.00  0.00    +0.055 A 
ATOM     12  C   UNL     1      -3.280  -9.257  10.515  0.00  0.00    +0.007 A 
ATOM     13  C   UNL     1      -3.511  -8.961   9.781  0.00  0.00    +0.030 A 
ATOM     14  C   UNL     1      -3.930  -9.441   9.256  0.00  0.00    +0.140 A 
ATOM     15  F   UNL     1      -4.161  -9.145   8.521  0.00  0.00    -0.204 F 
ATOM     16  C   UNL     1      -4.118 -10.216   9.466  0.00  0.00    +0.030 A 
ATOM     17  C   UNL     1      -3.888 -10.512  10.200  0.00  0.00    +0.007 A 
ENDBRANCH   9  11
ENDBRANCH   7   8
ENDBRANCH   6   7
BRANCH   3  18
ATOM     18  N   UNL     1      -4.597 -10.668  15.535  0.00  0.00    -0.209 NA
BRANCH  18  19
ATOM     19  C   UNL     1      -5.163 -10.233  15.949  0.00  0.00    +0.117 C 
BRANCH  19  20
ATOM     20  C   UNL     1      -5.316 -10.404  16.741  0.00  0.00    +0.014 A 
ATOM     21  C   UNL     1      -4.694 -10.458  17.280  0.00  0.00    +0.000 A 
ATOM     22  C   UNL     1      -4.847 -10.629  18.072  0.00  0.00    +0.020 A 
ATOM     23  C   UNL     1      -5.624 -10.746  18.326  0.00  0.00    +0.099 A 
ATOM     24  N   UNL     1      -6.246 -10.692  17.787  0.00  0.00    -0.243 NA
ATOM     25  C   UNL     1      -6.093 -10.521  16.995  0.00  0.00    +0.096 A 
ENDBRANCH  19  20
ENDBRANCH  18  19
ENDBRANCH   3  18
TORSDOF 6
ENDMDL
MODEL 6
REMARK VINA RESULT:      -6.6     14.278     15.240
REMARK  Name = 
REMARK  6 active torsions:
REMARK  status: ('A' for Active; 'I' for Inactive)
REMARK    1  A    between atoms: C_3  and  N_18
REMARK    2  A    between atoms: C_6  and  C_7
REMARK    3  A    between atoms: C_7  and  N_8
REMARK    4  A    between atoms: C_9  and  C_11
REMARK    5  A    between atoms: N_18  and  C_19
REMARK    6  A    between atoms: C_19  and  C_20
REMARK                            x       y       z     vdW  Elec       q    Type
REMARK                         _______ _______ _______ _____ _____    ______ ____
ROOT
ATOM      1  O   UNL     1      -6.535  -9.801  14.919  0.00  0.00    -0.219 OA
ATOM      2  C   UNL     1      -6.250 -10.028  15.659  0.00  0.00    +0.199 C 
ATOM      3  C   UNL     1      -6.656  -9.970  16.374  0.00  0.00    +0.135 C 
ATOM      4  C   UNL     1      -6.165 -10.258  16.970  0.00  0.00    +0.162 C 
ATOM      5  O   UNL     1      -5.455 -10.495  16.624  0.00  0.00    -0.350 OA
ATOM      6  C   UNL     1      -5.507 -10.352  15.813  0.00  0.00    +0.169 C 
ENDROOT
BRANCH   6   7
ATOM      7  C   UNL     1      -4.920 -10.507  15.255  0.00  0.00    +0.148 C 
BRANCH   7   8
ATOM      8  N   UNL     1      -4.126 -10.496  15.478  0.00  0.00    -0.199 NA
ATOM      9  C   UNL     1      -3.537 -10.633  14.916  0.00  0.00    +0.265 C 
ATOM     10  O   UNL     1      -3.744 -10.781  14.131  0.00  0.00    -0.268 OA
BRANCH   9  11
ATOM     11  C   UNL     1      -2.743 -10.621  15.139  0.00  0.00    +0.055 A 
ATOM     12  C   UNL     1      -2.153 -10.634  14.563  0.00  0.00    +0.007 A 
ATOM     13  C   UNL     1      -1.359 -10.623  14.786  0.00  0.00    +0.030 A 
ATOM     14  C   UNL     1      -1.155 -10.598  15.585  0.00  0.00    +0.140 A 
ATOM     15  F   UNL     1      -0.361 -10.587  15.808  0.00  0.00    -0.204 F 
ATOM     16  C   UNL     1      -1.745 -10.586  16.161  0.00  0.00    +0.030 A 
ATOM     17  C   UNL     1      -2.539 -10.597  15.939  0.00  0.00    +0.007 A 
ENDBRANCH   9  11
ENDBRANCH   7   8
ENDBRANCH   6   7
BRANCH   3  18
ATOM     18  N   UNL     1      -7.420  -9.674  16.475  0.00  0.00    -0.209 NA
BRANCH  18  19
ATOM     19  C   UNL     1      -7.702  -9.507  17.232  0.00  0.00    +0.117 C 
BRANCH  19  20
ATOM     20  C   UNL     1      -8.473  -9.233  17.335  0.00  0.00    +0.014 A 
ATOM     21  C   UNL     1      -9.055  -9.739  17.629  0.00  0.00    +0.000 A 
ATOM     22  C   UNL     1      -9.826  -9.465  17.732  0.00  0.00    +0.020 A 
ATOM     23  C   UNL     1     -10.015  -8.685  17.541  0.00  0.00    +0.099 A 
ATOM     24  N   UNL     1      -9.434  -8.179  17.248  0.00  0.00    -0.243 NA
ATOM     25  C   UNL     1      -8.662  -8.454  17.145  0.00  0.00    +0.096 A 
ENDBRANCH  19  20
ENDBRANCH  18  19
ENDBRANCH   3  18
TORSDOF 6
ENDMDL
MODEL 7
REMARK VINA RESULT:      -6.4     14.726     16.478
REMARK  Name = 
REMARK  6 active torsions:
REMARK  status: ('A' for Active; 'I' for Inactive)
REMARK    1  A    between atoms: C_3  and  N_18
REMARK    2  A    between atoms: C_6  and  C_7
REMARK    3  A    between atoms: C_7  and  N_8
REMARK    4  A    between atoms: C_9  and  C_11
REMARK    5  A    between atoms: N_18  and  C_19
REMARK    6  A    between atoms: C_19  and  C_20
REMARK                            x       y       z     vdW  Elec       q    Type
REMARK                         _______ _______ _______ _____ _____    ______ ____
ROOT
ATOM      1  O   UNL     1      -6.391 -10.459  13.668  0.00  0.00    -0.219 OA
ATOM      2  C   UNL     1      -5.688 -10.443  14.101  0.00  0.00    +0.199 C 
ATOM      3  C   UNL     1      -5.624 -10.363  14.919  0.00  0.00    +0.135 C 
ATOM      4  C   UNL     1      -4.823 -10.375  15.114  0.00  0.00    +0.162 C 
ATOM      5  O   UNL     1      -4.392 -10.462  14.416  0.00  0.00    -0.350 OA
ATOM      6  C   UNL     1      -4.926 -10.504  13.790  0.00  0.00    +0.169 C 
ENDROOT
BRANCH   6   7
ATOM      7  C   UNL     1      -4.733 -10.592  12.993  0.00  0.00    +0.148 C 
BRANCH   7   8
ATOM      8  N   UNL     1      -4.013 -10.308  12.710  0.00  0.00    -0.199 NA
ATOM      9  C   UNL     1      -3.817 -10.401  11.913  0.00  0.00    +0.265 C 
ATOM     10  O   UNL     1      -4.342 -10.778  11.401  0.00  0.00    -0.268 OA
BRANCH   9  11
ATOM     11  C   UNL     1      -3.096 -10.117  11.630  0.00  0.00    +0.055 A 
ATOM     12  C   UNL     1      -3.083  -9.547  11.033  0.00  0.00    +0.007 A 
ATOM     13  C   UNL     1      -2.363  -9.263  10.750  0.00  0.00    +0.030 A 
ATOM     14  C   UNL     1      -1.655  -9.549  11.063  0.00  0.00    +0.140 A 
ATOM     15  F   UNL     1      -0.934  -9.265  10.780  0.00  0.00    -0.204 F 
ATOM     16  C   UNL     1      -1.667 -10.119  11.660  0.00  0.00    +0.030 A 
ATOM     17  C   UNL     1      -2.388 -10.403  11.943  0.00  0.00    +0.007 A 
ENDBRANCH   9  11
ENDBRANCH   7   8
ENDBRANCH   6   7
BRANCH   3  18
ATOM     18  N   UNL     1      -6.252 -10.285  15.449  0.00  0.00    -0.209 NA
BRANCH  18  19
ATOM     19  C   UNL     1      -6.119  -9.977  16.203  0.00  0.00    +0.117 C 
BRANCH  19  20
ATOM     20  C   UNL     1      -6.733  -9.954  16.753  0.00  0.00    +0.014 A 
ATOM     21  C   UNL     1      -6.877 -10.605  17.239  0.00  0.00    +0.000 A 
ATOM     22  C   UNL     1      -7.491 -10.582  17.789  0.00  0.00    +0.020 A 
ATOM     23  C   UNL     1      -7.961  -9.907  17.854  0.00  0.00    +0.099 A 
ATOM     24  N   UNL     1      -7.818  -9.256  17.369  0.00  0.00    -0.243 NA
ATOM     25  C   UNL     1      -7.203  -9.279  16.818  0.00  0.00    +0.096 A 
ENDBRANCH  19  20
ENDBRANCH  18  19
ENDBRANCH   3  18
TORSDOF 6
ENDMDL
MODEL 8
REMARK VINA RESULT:      -6.4     20.176     21.043
REMARK  Name = 
REMARK  6 active torsions:
REMARK  status: ('A' for Active; 'I' for Inactive)
REMARK    1  A    between atoms: C_3  and  N_18
REMARK    2  A    between atoms: C_6  and  C_7
REMARK    3  A    between atoms: C_7  and  N_8
REMARK    4  A    between atoms: C_9  and  C_11
REMARK    5  A    between atoms: N_18  and  C_19
REMARK    6  A    between atoms: C_19  and  C_20
REMARK                            x       y       z     vdW  Elec       q    Type
REMARK                         _______ _______ _______ _____ _____    ______ ____
ROOT
ATOM      1  O   UNL     1      16.782  -5.704  26.425  0.00  0.00    -0.219 OA
ATOM      2  C   UNL     1      17.011  -5.847  25.646  0.00  0.00    +0.199 C 
ATOM      3  C   UNL     1      17.077  -6.587  25.288  0.00  0.00    +0.135 C 
ATOM      4  C   UNL     1      17.320  -6.472  24.508  0.00  0.00    +0.162 C 
ATOM      5  O   UNL     1      17.403  -5.661  24.384  0.00  0.00    -0.350 OA
ATOM      6  C   UNL     1      17.212  -5.274  25.086  0.00  0.00    +0.169 C 
ENDROOT
BRANCH   6   7
ATOM      7  C   UNL     1      17.221  -4.459  25.209  0.00  0.00    +0.148 C 
BRANCH   7   8
ATOM      8  N   UNL     1      17.024  -3.947  24.592  0.00  0.00    -0.199 NA
ATOM      9  C   UNL     1      17.066  -3.131  24.705  0.00  0.00    +0.265 C 
ATOM     10  O   UNL     1      17.304  -2.827  25.434  0.00  0.00    -0.268 OA
BRANCH   9  11
ATOM     11  C   UNL     1      16.870  -2.619  24.088  0.00  0.00    +0.055 A 
ATOM     12  C   UNL     1      16.145  -2.698  23.702  0.00  0.00    +0.007 A 
ATOM     13  C   UNL     1      15.949  -2.186  23.085  0.00  0.00    +0.030 A 
ATOM     14  C   UNL     1      16.477  -1.595  22.855  0.00  0.00    +0.140 A 
ATOM     15  F   UNL     1      16.281  -1.084  22.238  0.00  0.00    -0.204 F 
ATOM     16  C   UNL     1      17.202  -1.516  23.241  0.00  0.00    +0.030 A 
ATOM     17  C   UNL     1      17.398  -2.028  23.858  0.00  0.00    +0.007 A 
ENDBRANCH   9  11
ENDBRANCH   7   8
ENDBRANCH   6   7
BRANCH   3  18
ATOM     18  N   UNL     1      16.927  -7.315  25.647  0.00  0.00    -0.209 NA
BRANCH  18  19
ATOM     19  C   UNL     1      16.845  -7.994  25.186  0.00  0.00    +0.117 C 
BRANCH  19  20
ATOM     20  C   UNL     1      16.636  -8.709  25.539  0.00  0.00    +0.014 A 
ATOM     21  C   UNL     1      15.853  -8.969  25.512  0.00  0.00    +0.000 A 
ATOM     22  C   UNL     1      15.644  -9.685  25.864  0.00  0.00    +0.020 A 
ATOM     23  C   UNL     1      16.217 -10.140  26.244  0.00  0.00    +0.099 A 
ATOM     24  N   UNL     1      16.999  -9.881  26.271  0.00  0.00    -0.243 NA
ATOM     25  C   UNL     1      17.209  -9.165  25.918  0.00  0.00    +0.096 A 
ENDBRANCH  19  20
ENDBRANCH  18  19
ENDBRANCH   3  18
TORSDOF 6
ENDMDL
MODEL 9
REMARK VINA RESULT:      -6.4     17.233     18.900
REMARK  Name = 
REMARK  6 active torsions:
REMARK  status: ('A' for Active; 'I' for Inactive)
REMARK    1  A    between atoms: C_3  and  N_18
REMARK    2  A    between atoms: C_6  and  C_7
REMARK    3  A    between atoms: C_7  and  N_8
REMARK    4  A    between atoms: C_9  and  C_11
REMARK    5  A    between atoms: N_18  and  C_19
REMARK    6  A    between atoms: C_19  and  C_20
REMARK                            x       y       z     vdW  Elec       q    Type
REMARK                         _______ _______ _______ _____ _____    ______ ____
ROOT
ATOM      1  O   UNL     1      13.141   6.840  19.525  0.00  0.00    -0.219 OA
ATOM      2  C   UNL     1      13.251   7.592  19.846  0.00  0.00    +0.199 C 
ATOM      3  C   UNL     1      13.912   7.847  20.268  0.00  0.00    +0.135 C 
ATOM      4  C   UNL     1      13.789   8.633  20.484  0.00  0.00    +0.162 C 
ATOM      5  O   UNL     1      13.051   8.864  20.195  0.00  0.00    -0.350 OA
ATOM      6  C   UNL     1      12.718   8.221  19.801  0.00  0.00    +0.169 C 
ENDROOT
BRANCH   6   7
ATOM      7  C   UNL     1      11.983   8.208  19.428  0.00  0.00    +0.148 C 
BRANCH   7   8
ATOM      8  N   UNL     1      11.931   8.345  18.616  0.00  0.00    -0.199 NA
ATOM      9  C   UNL     1      11.197   8.496  18.270  0.00  0.00    +0.265 C 
ATOM     10  O   UNL     1      10.516   8.509  18.736  0.00  0.00    -0.268 OA
BRANCH   9  11
ATOM     11  C   UNL     1      11.144   8.634  17.458  0.00  0.00    +0.055 A 
ATOM     12  C   UNL     1      10.442   8.471  17.057  0.00  0.00    +0.007 A 
ATOM     13  C   UNL     1      10.389   8.609  16.246  0.00  0.00    +0.030 A 
ATOM     14  C   UNL     1      11.039   8.909  15.835  0.00  0.00    +0.140 A 
ATOM     15  F   UNL     1      10.986   9.047  15.024  0.00  0.00    -0.204 F 
ATOM     16  C   UNL     1      11.741   9.072  16.236  0.00  0.00    +0.030 A 
ATOM     17  C   UNL     1      11.794   8.934  17.048  0.00  0.00    +0.007 A 
ENDBRANCH   9  11
ENDBRANCH   7   8
ENDBRANCH   6   7
BRANCH   3  18
ATOM     18  N   UNL     1      14.580   7.395  20.443  0.00  0.00    -0.209 NA
BRANCH  18  19
ATOM     19  C   UNL     1      15.333   7.695  20.290  0.00  0.00    +0.117 C 
BRANCH  19  20
ATOM     20  C   UNL     1      15.999   7.228  20.426  0.00  0.00    +0.014 A 
ATOM     21  C   UNL     1      16.419   6.910  19.791  0.00  0.00    +0.000 A 
ATOM     22  C   UNL     1      17.084   6.444  19.928  0.00  0.00    +0.020 A 
ATOM     23  C   UNL     1      17.331   6.295  20.701  0.00  0.00    +0.099 A 
ATOM     24  N   UNL     1      16.913   6.612  21.337  0.00  0.00    -0.243 NA
ATOM     25  C   UNL     1      16.246   7.079  21.199  0.00  0.00    +0.096 A 
ENDBRANCH  19  20
ENDBRANCH  18  19
ENDBRANCH   3  18
TORSDOF 6
ENDMDL
MODEL 10
REMARK VINA RESULT:      -6.4     18.224     19.080
REMARK  Name = 
REMARK  6 active torsions:
REMARK  status: ('A' for Active; 'I' for Inactive)
REMARK    1  A    between atoms: C_3  and  N_18
REMARK    2  A    between atoms: C_6  and  C_7
REMARK    3  A    between atoms: C_7  and  N_8
REMARK    4  A    between atoms: C_9  and  C_11
REMARK    5  A    between atoms: N_18  and  C_19
REMARK    6  A    between atoms: C_19  and  C_20
REMARK                            x       y       z     vdW  Elec       q    Type
REMARK                         _______ _______ _______ _____ _____    ______ ____
ROOT
ATOM      1  O   UNL     1      -8.093  -8.535  10.059  0.00  0.00    -0.219 OA
ATOM      2  C   UNL     1      -7.723  -8.345   9.347  0.00  0.00    +0.199 C 
ATOM      3  C   UNL     1      -7.983  -7.786   8.799  0.00  0.00    +0.135 C 
ATOM      4  C   UNL     1      -7.448  -7.777   8.172  0.00  0.00    +0.162 C 
ATOM      5  O   UNL     1      -6.857  -8.330   8.331  0.00  0.00    -0.350 OA
ATOM      6  C   UNL     1      -7.027  -8.681   9.058  0.00  0.00    +0.169 C 
ENDROOT
BRANCH   6   7
ATOM      7  C   UNL     1      -6.580  -9.266   9.430  0.00  0.00    +0.148 C 
BRANCH   7   8
ATOM      8  N   UNL     1      -5.783  -9.132   9.597  0.00  0.00    -0.199 NA
ATOM      9  C   UNL     1      -5.315  -9.743   9.894  0.00  0.00    +0.265 C 
ATOM     10  O   UNL     1      -5.644 -10.489  10.023  0.00  0.00    -0.268 OA
BRANCH   9  11
ATOM     11  C   UNL     1      -4.519  -9.609  10.061  0.00  0.00    +0.055 A 
ATOM     12  C   UNL     1      -4.190  -9.900  10.760  0.00  0.00    +0.007 A 
ATOM     13  C   UNL     1      -3.393  -9.766  10.927  0.00  0.00    +0.030 A 
ATOM     14  C   UNL     1      -2.926  -9.341  10.396  0.00  0.00    +0.140 A 
ATOM     15  F   UNL     1      -2.129  -9.206  10.563  0.00  0.00    -0.204 F 
ATOM     16  C   UNL     1      -3.255  -9.050   9.698  0.00  0.00    +0.030 A 
ATOM     17  C   UNL     1      -4.051  -9.184   9.530  0.00  0.00    +0.007 A 
ENDBRANCH   9  11
ENDBRANCH   7   8
ENDBRANCH   6   7
BRANCH   3  18
ATOM     18  N   UNL     1      -8.659  -7.319   8.867  0.00  0.00    -0.209 NA
BRANCH  18  19
ATOM     19  C   UNL     1      -8.771  -6.677   8.360  0.00  0.00    +0.117 C 
BRANCH  19  20
ATOM     20  C   UNL     1      -9.358  -6.121   8.520  0.00  0.00    +0.014 A 
ATOM     21  C   UNL     1      -9.175  -5.317   8.527  0.00  0.00    +0.000 A 
ATOM     22  C   UNL     1      -9.762  -4.761   8.687  0.00  0.00    +0.020 A 
ATOM     23  C   UNL     1     -10.533  -5.009   8.842  0.00  0.00    +0.099 A 
ATOM     24  N   UNL     1     -10.717  -5.813   8.836  0.00  0.00    -0.243 NA
ATOM     25  C   UNL     1     -10.130  -6.369   8.675  0.00  0.00    +0.096 A 
ENDBRANCH  19  20
ENDBRANCH  18  19
ENDBRANCH   3  18
TORSDOF 6
ENDMDL
