MODEL 1
REMARK VINA RESULT:     -10.9      0.000      0.000
REMARK  Name = 
REMARK  6 active torsions:
REMARK  status: ('A' for Active; 'I' for Inactive)
REMARK    1  A    between atoms: C_2  and  N_3
REMARK    2  A    between atoms: N_6  and  C_7
REMARK    3  A    between atoms: C_9  and  C_10
REMARK    4  A    between atoms: C_10  and  C_11
REMARK    5  A    between atoms: C_14  and  C_15
REMARK    6  A    between atoms: C_15  and  N_16
REMARK                            x       y       z     vdW  Elec       q    Type
REMARK                         _______ _______ _______ _____ _____    ______ ____
ROOT
ATOM     10  C   UNL     1      -4.918   0.976  24.975  0.00  0.00    +0.049 C 
ENDROOT
BRANCH  10   9
ATOM      7  C   UNL     1      -4.070   2.776  25.049  0.00  0.00    +0.097 C 
ATOM      8  C   UNL     1      -3.808   2.015  24.865  0.00  0.00    +0.022 C 
ATOM      9  C   UNL     1      -4.566   1.722  25.005  0.00  0.00    +0.009 C 
ATOM     23  C   UNL     1      -4.828   2.483  25.189  0.00  0.00    +0.019 C 
ATOM     24  C   UNL     1      -5.625   2.374  25.368  0.00  0.00    +0.002 C 
ATOM     25  C   UNL     1      -5.258   3.154  25.400  0.00  0.00    +0.002 C 
BRANCH   7   6
ATOM      3  N   UNL     1      -2.544   4.336  25.128  0.00  0.00    -0.187 NA
ATOM      4  C   UNL     1      -2.896   3.590  25.097  0.00  0.00    +0.339 C 
ATOM      5  O   UNL     1      -2.425   2.912  25.085  0.00  0.00    -0.249 OA
ATOM      6  N   UNL     1      -3.718   3.522  25.079  0.00  0.00    -0.189 NA
BRANCH   3   2
ATOM      1  C   UNL     1      -1.369   5.149  25.126  0.00  0.00    +0.025 C 
ATOM      2  C   UNL     1      -1.722   4.403  25.146  0.00  0.00    +0.117 C 
ENDBRANCH   3   2
ENDBRANCH   7   6
ENDBRANCH  10   9
BRANCH  10  11
ATOM     11  C   UNL     1      -4.459   0.310  24.810  0.00  0.00    +0.100 A 
ATOM     12  N   UNL     1      -4.275   0.023  24.059  0.00  0.00    -0.082 NA
ATOM     13  O   UNL     1      -3.806  -0.650  24.151  0.00  0.00    -0.357 OA
ATOM     14  C   UNL     1      -3.701  -0.778  24.960  0.00  0.00    +0.170 A 
ATOM     22  C   UNL     1      -4.105  -0.185  25.367  0.00  0.00    +0.055 A 
BRANCH  14  15
ATOM     15  C   UNL     1      -3.268  -1.392  25.301  0.00  0.00    +0.140 C 
BRANCH  15  16
ATOM     16  N   UNL     1      -2.446  -1.404  25.233  0.00  0.00    -0.266 NA
ATOM     17  C   UNL     1      -2.086  -1.889  24.672  0.00  0.00    +0.072 C 
ATOM     18  C   UNL     1      -1.264  -1.902  24.604  0.00  0.00    +0.017 C 
ATOM     19  C   UNL     1      -0.802  -1.429  25.098  0.00  0.00    +0.003 C 
ATOM     20  C   UNL     1      -1.162  -0.944  25.660  0.00  0.00    +0.017 C 
ATOM     21  C   UNL     1      -1.985  -0.932  25.727  0.00  0.00    +0.072 C 
ENDBRANCH  15  16
ENDBRANCH  14  15
ENDBRANCH  10  11
TORSDOF 6
ENDMDL
MODEL 2
REMARK VINA RESULT:     -10.6      1.482      4.110
REMARK  Name = 
REMARK  6 active torsions:
REMARK  status: ('A' for Active; 'I' for Inactive)
REMARK    1  A    between atoms: C_2  and  N_3
REMARK    2  A    between atoms: N_6  and  C_7
REMARK    3  A    between atoms: C_9  and  C_10
REMARK    4  A    between atoms: C_10  and  C_11
REMARK    5  A    between atoms: C_14  and  C_15
REMARK    6  A    between atoms: C_15  and  N_16
REMARK                            x       y       z     vdW  Elec       q    Type
REMARK                         _______ _______ _______ _____ _____    ______ ____
ROOT
ATOM     10  C   UNL     1      -4.449   3.177  25.247  0.00  0.00    +0.049 C 
ENDROOT
BRANCH  10   9
ATOM      7  C   UNL     1      -4.792   1.248  24.890  0.00  0.00    +0.097 C 
ATOM      8  C   UNL     1      -4.137   1.746  24.824  0.00  0.00    +0.022 C 
ATOM      9  C   UNL     1      -4.591   2.378  25.099  0.00  0.00    +0.009 C 
ATOM     23  C   UNL     1      -5.246   1.880  25.165  0.00  0.00    +0.019 C 
ATOM     24  C   UNL     1      -5.839   2.379  25.447  0.00  0.00    +0.002 C 
ATOM     25  C   UNL     1      -5.988   1.543  25.293  0.00  0.00    +0.002 C 
BRANCH   7   6
ATOM      3  N   UNL     1      -4.455  -0.847  24.375  0.00  0.00    -0.187 NA
ATOM      4  C   UNL     1      -4.313  -0.047  24.523  0.00  0.00    +0.339 C 
ATOM      5  O   UNL     1      -3.549   0.256  24.452  0.00  0.00    -0.249 OA
ATOM      6  N   UNL     1      -4.935   0.448  24.742  0.00  0.00    -0.189 NA
BRANCH   3   2
ATOM      1  C   UNL     1      -3.960  -2.155  24.082  0.00  0.00    +0.025 C 
ATOM      2  C   UNL     1      -3.833  -1.342  24.156  0.00  0.00    +0.117 C 
ENDBRANCH   3   2
ENDBRANCH   7   6
ENDBRANCH  10   9
BRANCH  10  11
ATOM     11  C   UNL     1      -3.707   3.500  25.084  0.00  0.00    +0.100 A 
ATOM     12  N   UNL     1      -3.476   3.850  24.374  0.00  0.00    -0.082 NA
ATOM     13  O   UNL     1      -2.693   4.097  24.455  0.00  0.00    -0.357 OA
ATOM     14  C   UNL     1      -2.440   3.899  25.216  0.00  0.00    +0.170 A 
ATOM     22  C   UNL     1      -3.067   3.530  25.605  0.00  0.00    +0.055 A 
BRANCH  14  15
ATOM     15  C   UNL     1      -1.692   4.045  25.531  0.00  0.00    +0.140 C 
BRANCH  15  16
ATOM     16  N   UNL     1      -1.097   3.478  25.460  0.00  0.00    -0.266 NA
ATOM     17  C   UNL     1      -0.681   3.403  24.752  0.00  0.00    +0.072 C 
ATOM     18  C   UNL     1      -0.086   2.837  24.680  0.00  0.00    +0.017 C 
ATOM     19  C   UNL     1       0.093   2.344  25.318  0.00  0.00    +0.003 C 
ATOM     20  C   UNL     1      -0.323   2.418  26.027  0.00  0.00    +0.017 C 
ATOM     21  C   UNL     1      -0.918   2.985  26.097  0.00  0.00    +0.072 C 
ENDBRANCH  15  16
ENDBRANCH  14  15
ENDBRANCH  10  11
TORSDOF 6
ENDMDL
MODEL 3
REMARK VINA RESULT:     -10.2      1.106      4.479
REMARK  Name = 
REMARK  6 active torsions:
REMARK  status: ('A' for Active; 'I' for Inactive)
REMARK    1  A    between atoms: C_2  and  N_3
REMARK    2  A    between atoms: N_6  and  C_7
REMARK    3  A    between atoms: C_9  and  C_10
REMARK    4  A    between atoms: C_10  and  C_11
REMARK    5  A    between atoms: C_14  and  C_15
REMARK    6  A    between atoms: C_15  and  N_16
REMARK                            x       y       z     vdW  Elec       q    Type
REMARK                         _______ _______ _______ _____ _____    ______ ____
ROOT
ATOM     10  C   UNL     1      -4.697   0.323  24.376  0.00  0.00    +0.049 C 
ENDROOT
BRANCH  10   9
ATOM      7  C   UNL     1      -3.227  -0.985  24.680  0.00  0.00    +0.097 C 
ATOM      8  C   UNL     1      -3.347  -0.189  24.863  0.00  0.00    +0.022 C 
ATOM      9  C   UNL     1      -4.088  -0.219  24.502  0.00  0.00    +0.009 C 
ATOM     23  C   UNL     1      -3.968  -1.015  24.319  0.00  0.00    +0.019 C 
ATOM     24  C   UNL     1      -4.661  -1.228  23.926  0.00  0.00    +0.002 C 
ATOM     25  C   UNL     1      -4.024  -1.795  24.058  0.00  0.00    +0.002 C 
BRANCH   7   6
ATOM      3  N   UNL     1      -1.247  -1.801  25.102  0.00  0.00    -0.187 NA
ATOM      4  C   UNL     1      -1.856  -1.259  24.976  0.00  0.00    +0.339 C 
ATOM      5  O   UNL     1      -1.704  -0.449  25.020  0.00  0.00    -0.249 OA
ATOM      6  N   UNL     1      -2.617  -1.527  24.806  0.00  0.00    -0.189 NA
BRANCH   3   2
ATOM      1  C   UNL     1       0.137  -2.072  25.333  0.00  0.00    +0.025 C 
ATOM      2  C   UNL     1      -0.485  -1.533  25.272  0.00  0.00    +0.117 C 
ENDBRANCH   3   2
ENDBRANCH   7   6
ENDBRANCH  10   9
BRANCH  10  11
ATOM     11  C   UNL     1      -4.653   1.078  24.707  0.00  0.00    +0.100 A 
ATOM     12  N   UNL     1      -4.878   1.286  25.472  0.00  0.00    -0.082 NA
ATOM     13  O   UNL     1      -4.739   2.094  25.568  0.00  0.00    -0.357 OA
ATOM     14  C   UNL     1      -4.428   2.385  24.861  0.00  0.00    +0.170 A 
ATOM     22  C   UNL     1      -4.374   1.757  24.329  0.00  0.00    +0.055 A 
BRANCH  14  15
ATOM     15  C   UNL     1      -4.209   3.166  24.713  0.00  0.00    +0.140 C 
BRANCH  15  16
ATOM     16  N   UNL     1      -3.518   3.471  25.045  0.00  0.00    -0.266 NA
ATOM     17  C   UNL     1      -2.805   3.422  24.633  0.00  0.00    +0.072 C 
ATOM     18  C   UNL     1      -2.115   3.726  24.964  0.00  0.00    +0.017 C 
ATOM     19  C   UNL     1      -2.136   4.080  25.710  0.00  0.00    +0.003 C 
ATOM     20  C   UNL     1      -2.849   4.129  26.123  0.00  0.00    +0.017 C 
ATOM     21  C   UNL     1      -3.540   3.824  25.790  0.00  0.00    +0.072 C 
ENDBRANCH  15  16
ENDBRANCH  14  15
ENDBRANCH  10  11
TORSDOF 6
ENDMDL
MODEL 4
REMARK VINA RESULT:     -10.2      1.414      2.882
REMARK  Name = 
REMARK  6 active torsions:
REMARK  status: ('A' for Active; 'I' for Inactive)
REMARK    1  A    between atoms: C_2  and  N_3
REMARK    2  A    between atoms: N_6  and  C_7
REMARK    3  A    between atoms: C_9  and  C_10
REMARK    4  A    between atoms: C_10  and  C_11
REMARK    5  A    between atoms: C_14  and  C_15
REMARK    6  A    between atoms: C_15  and  N_16
REMARK                            x       y       z     vdW  Elec       q    Type
REMARK                         _______ _______ _______ _____ _____    ______ ____
ROOT
ATOM     10  C   UNL     1      -0.707   1.827  25.085  0.00  0.00    +0.049 C 
ENDROOT
BRANCH  10   9
ATOM      7  C   UNL     1      -2.263   3.063  25.215  0.00  0.00    +0.097 C 
ATOM      8  C   UNL     1      -2.171   2.253  25.087  0.00  0.00    +0.022 C 
ATOM      9  C   UNL     1      -1.352   2.338  25.139  0.00  0.00    +0.009 C 
ATOM     23  C   UNL     1      -1.444   3.148  25.267  0.00  0.00    +0.019 C 
ATOM     24  C   UNL     1      -0.670   3.419  25.348  0.00  0.00    +0.002 C 
ATOM     25  C   UNL     1      -1.343   3.955  25.404  0.00  0.00    +0.002 C 
BRANCH   7   6
ATOM      3  N   UNL     1      -4.318   3.783  25.368  0.00  0.00    -0.187 NA
ATOM      4  C   UNL     1      -3.673   3.271  25.314  0.00  0.00    +0.339 C 
ATOM      5  O   UNL     1      -3.794   2.455  25.306  0.00  0.00    -0.249 OA
ATOM      6  N   UNL     1      -2.908   3.575  25.269  0.00  0.00    -0.189 NA
BRANCH   3   2
ATOM      1  C   UNL     1      -5.724   3.989  25.514  0.00  0.00    +0.025 C 
ATOM      2  C   UNL     1      -5.083   3.479  25.413  0.00  0.00    +0.117 C 
ENDBRANCH   3   2
ENDBRANCH   7   6
ENDBRANCH  10   9
BRANCH  10  11
ATOM     11  C   UNL     1      -0.828   1.029  24.909  0.00  0.00    +0.100 A 
ATOM     12  N   UNL     1      -0.798   0.689  24.158  0.00  0.00    -0.082 NA
ATOM     13  O   UNL     1      -0.951  -0.118  24.238  0.00  0.00    -0.357 OA
ATOM     14  C   UNL     1      -1.075  -0.277  25.039  0.00  0.00    +0.170 A 
ATOM     22  C   UNL     1      -0.999   0.432  25.453  0.00  0.00    +0.055 A 
BRANCH  14  15
ATOM     15  C   UNL     1      -1.245  -1.014  25.366  0.00  0.00    +0.140 C 
BRANCH  15  16
ATOM     16  N   UNL     1      -1.974  -1.372  25.221  0.00  0.00    -0.266 NA
ATOM     17  C   UNL     1      -2.638  -1.146  25.653  0.00  0.00    +0.072 C 
ATOM     18  C   UNL     1      -3.367  -1.503  25.508  0.00  0.00    +0.017 C 
ATOM     19  C   UNL     1      -3.431  -2.088  24.929  0.00  0.00    +0.003 C 
ATOM     20  C   UNL     1      -2.766  -2.315  24.496  0.00  0.00    +0.017 C 
ATOM     21  C   UNL     1      -2.038  -1.956  24.642  0.00  0.00    +0.072 C 
ENDBRANCH  15  16
ENDBRANCH  14  15
ENDBRANCH  10  11
TORSDOF 6
ENDMDL
MODEL 5
REMARK VINA RESULT:      -9.8      1.650      4.898
REMARK  Name = 
REMARK  6 active torsions:
REMARK  status: ('A' for Active; 'I' for Inactive)
REMARK    1  A    between atoms: C_2  and  N_3
REMARK    2  A    between atoms: N_6  and  C_7
REMARK    3  A    between atoms: C_9  and  C_10
REMARK    4  A    between atoms: C_10  and  C_11
REMARK    5  A    between atoms: C_14  and  C_15
REMARK    6  A    between atoms: C_15  and  N_16
REMARK                            x       y       z     vdW  Elec       q    Type
REMARK                         _______ _______ _______ _____ _____    ______ ____
ROOT
ATOM     10  C   UNL     1      -1.364   3.426  25.138  0.00  0.00    +0.049 C 
ENDROOT
BRANCH  10   9
ATOM      7  C   UNL     1      -0.724   1.543  25.038  0.00  0.00    +0.097 C 
ATOM      8  C   UNL     1      -1.403   1.914  25.324  0.00  0.00    +0.022 C 
ATOM      9  C   UNL     1      -1.099   2.646  25.097  0.00  0.00    +0.009 C 
ATOM     23  C   UNL     1      -0.420   2.276  24.810  0.00  0.00    +0.019 C 
ATOM     24  C   UNL     1       0.033   2.901  24.522  0.00  0.00    +0.002 C 
ATOM     25  C   UNL     1       0.311   2.086  24.479  0.00  0.00    +0.002 C 
BRANCH   7   6
ATOM      3  N   UNL     1      -0.722  -0.640  25.072  0.00  0.00    -0.187 NA
ATOM      4  C   UNL     1      -0.987   0.141  25.113  0.00  0.00    +0.339 C 
ATOM      5  O   UNL     1      -1.782   0.299  25.271  0.00  0.00    -0.249 OA
ATOM      6  N   UNL     1      -0.458   0.763  24.997  0.00  0.00    -0.189 NA
BRANCH   3   2
ATOM      1  C   UNL     1      -1.061  -2.020  24.923  0.00  0.00    +0.025 C 
ATOM      2  C   UNL     1      -1.251  -1.262  25.188  0.00  0.00    +0.117 C 
ENDBRANCH   3   2
ENDBRANCH   7   6
ENDBRANCH  10   9
BRANCH  10  11
ATOM     11  C   UNL     1      -2.144   3.585  25.359  0.00  0.00    +0.100 A 
ATOM     12  N   UNL     1      -2.401   3.783  26.117  0.00  0.00    -0.082 NA
ATOM     13  O   UNL     1      -3.218   3.895  26.088  0.00  0.00    -0.357 OA
ATOM     14  C   UNL     1      -3.466   3.766  25.311  0.00  0.00    +0.170 A 
ATOM     22  C   UNL     1      -2.801   3.575  24.861  0.00  0.00    +0.055 A 
BRANCH  14  15
ATOM     15  C   UNL     1      -4.240   3.819  25.034  0.00  0.00    +0.140 C 
BRANCH  15  16
ATOM     16  N   UNL     1      -4.764   3.192  25.150  0.00  0.00    -0.266 NA
ATOM     17  C   UNL     1      -4.818   2.591  24.588  0.00  0.00    +0.072 C 
ATOM     18  C   UNL     1      -5.341   1.964  24.703  0.00  0.00    +0.017 C 
ATOM     19  C   UNL     1      -5.811   1.938  25.381  0.00  0.00    +0.003 C 
ATOM     20  C   UNL     1      -5.757   2.539  25.944  0.00  0.00    +0.017 C 
ATOM     21  C   UNL     1      -5.233   3.166  25.828  0.00  0.00    +0.072 C 
ENDBRANCH  15  16
ENDBRANCH  14  15
ENDBRANCH  10  11
TORSDOF 6
ENDMDL
