MODEL 1
REMARK VINA RESULT:      -9.1      0.000      0.000
REMARK  Name = 
REMARK  9 active torsions:
REMARK  status: ('A' for Active; 'I' for Inactive)
REMARK    1  A    between atoms: C_2  and  C_3
REMARK    2  A    between atoms: C_3  and  S_4
REMARK    3  A    between atoms: S_4  and  N_7
REMARK    4  A    between atoms: N_7  and  C_8
REMARK    5  A    between atoms: C_8  and  C_9
REMARK    6  A    between atoms: C_16  and  C_17
REMARK    7  A    between atoms: C_19  and  C_23
REMARK    8  A    between atoms: C_26  and  O_27
REMARK    9  A    between atoms: C_29  and  O_30
REMARK                            x       y       z     vdW  Elec       q    Type
REMARK                         _______ _______ _______ _____ _____    ______ ____
ROOT
ATOM      9  C   UNL     1       1.069   0.739  23.525  0.00  0.00    +0.077 C 
ATOM     10  C   UNL     1       0.661   1.311  23.861  0.00  0.00    +0.018 C 
ATOM     11  C   UNL     1      -0.078   1.236  24.183  0.00  0.00    +0.010 C 
ATOM     12  C   UNL     1      -0.375   2.012  24.520  0.00  0.00    +0.018 C 
ATOM     13  C   UNL     1       0.051   1.617  24.222  0.00  0.00    +0.072 C 
ATOM     14  N   UNL     1       0.316   0.671  23.855  0.00  0.00    -0.272 NA
ATOM     15  C   UNL     1      -0.254  -0.037  23.936  0.00  0.00    +0.078 C 
ATOM     16  C   UNL     1      -0.621   0.550  24.257  0.00  0.00    +0.056 C 
ENDROOT
BRANCH  16  17
ATOM     17  C   UNL     1      -1.371   0.542  24.601  0.00  0.00    +0.058 A 
ATOM     18  C   UNL     1      -2.009   1.017  24.383  0.00  0.00    +0.035 A 
ATOM     19  C   UNL     1      -2.646   0.826  24.871  0.00  0.00    +0.102 A 
ATOM     20  N   UNL     1      -2.402   0.234  25.391  0.00  0.00    -0.170 NA
ATOM     21  N   UNL     1      -1.613   0.058  25.224  0.00  0.00    -0.253 N 
ATOM     22  C   UNL     1      -1.148  -0.503  25.611  0.00  0.00    +0.153 C 
BRANCH  19  23
ATOM     23  C   UNL     1      -3.397   1.168  24.845  0.00  0.00    +0.023 A 
ATOM     24  C   UNL     1      -4.055   0.704  24.663  0.00  0.00    +0.005 A 
ATOM     25  C   UNL     1      -4.805   1.045  24.637  0.00  0.00    +0.040 A 
ATOM     26  C   UNL     1      -4.899   1.850  24.792  0.00  0.00    +0.172 A 
ATOM     29  C   UNL     1      -4.240   2.314  24.973  0.00  0.00    +0.172 A 
ATOM     32  C   UNL     1      -3.490   1.973  25.000  0.00  0.00    +0.042 A 
BRANCH  26  27
ATOM     27  O   UNL     1      -5.650   2.191  24.765  0.00  0.00    -0.468 OA
ATOM     28  C   UNL     1      -6.318   1.726  24.901  0.00  0.00    +0.253 C 
ENDBRANCH  26  27
BRANCH  29  30
ATOM     30  O   UNL     1      -4.334   3.119  25.128  0.00  0.00    -0.468 OA
ATOM     31  C   UNL     1      -3.673   3.589  25.279  0.00  0.00    +0.253 C 
ENDBRANCH  29  30
ENDBRANCH  19  23
ENDBRANCH  16  17
BRANCH   9   8
ATOM      8  C   UNL     1       1.733   0.437  23.140  0.00  0.00    +0.131 C 
BRANCH   8   7
ATOM      7  N   UNL     1       2.361   0.936  22.948  0.00  0.00    -0.081 NA
BRANCH   7   4
ATOM      4  S   UNL     1       3.111   0.621  22.810  0.00  0.00    +0.057 S 
ATOM      5  O   UNL     1       3.455   1.279  23.168  0.00  0.00    -0.156 OA
ATOM      6  O   UNL     1       2.767  -0.038  22.452  0.00  0.00    -0.156 OA
BRANCH   4   3
ATOM      3  C   UNL     1       3.860   0.304  22.671  0.00  0.00    +0.171 C 
BRANCH   3   2
ATOM      1  C   UNL     1       5.202   0.119  23.124  0.00  0.00    +0.002 C 
ATOM      2  C   UNL     1       4.505   0.561  23.116  0.00  0.00    +0.027 C 
ENDBRANCH   3   2
ENDBRANCH   4   3
ENDBRANCH   7   4
ENDBRANCH   8   7
ENDBRANCH   9   8
TORSDOF 9
ENDMDL
