MODEL 1
REMARK VINA RESULT:     -12.6      0.000      0.000
REMARK  Name = 
REMARK  5 active torsions:
REMARK  status: ('A' for Active; 'I' for Inactive)
REMARK    1  A    between atoms: C_2  and  C_3
REMARK    2  A    between atoms: C_6  and  C_7
REMARK    3  A    between atoms: C_7  and  N_8
REMARK    4  A    between atoms: C_15  and  C_22
REMARK    5  A    between atoms: C_26  and  C_28
REMARK                            x       y       z     vdW  Elec       q    Type
REMARK                         _______ _______ _______ _____ _____    ______ ____
ROOT
ATOM      8  N   UNL     1      -2.158   2.039  24.823  0.00  0.00    -0.266 NA
ATOM      9  C   UNL     1      -1.413   1.727  24.609  0.00  0.00    +0.074 C 
ATOM     10  C   UNL     1      -1.675   0.795  24.409  0.00  0.00    +0.039 C 
ATOM     11  C   UNL     1      -1.726   0.007  24.209  0.00  0.00    +0.011 C 
ATOM     12  C   UNL     1      -2.159   0.518  24.421  0.00  0.00    +0.054 C 
ATOM     13  C   UNL     1      -1.890   1.414  24.610  0.00  0.00    +0.078 C 
ATOM     14  C   UNL     1      -3.041   0.678  24.619  0.00  0.00    +0.041 A 
ATOM     15  C   UNL     1      -3.771   0.295  24.647  0.00  0.00    +0.012 A 
ATOM     16  C   UNL     1      -4.446   0.711  24.876  0.00  0.00    +0.006 A 
ATOM     17  C   UNL     1      -4.391   1.509  25.077  0.00  0.00    +0.061 A 
ATOM     18  C   UNL     1      -3.661   1.892  25.050  0.00  0.00    +0.261 A 
ATOM     19  O   UNL     1      -3.606   2.690  25.251  0.00  0.00    -0.267 OA
ATOM     20  N   UNL     1      -2.986   1.476  24.821  0.00  0.00    -0.299 N 
ATOM     21  C   UNL     1      -2.595   0.972  24.618  0.00  0.00    +0.110 C 
ENDROOT
BRANCH  15  22
ATOM     22  C   UNL     1      -3.826  -0.503  24.446  0.00  0.00    +0.002 A 
ATOM     23  C   UNL     1      -4.085  -0.722  23.694  0.00  0.00    +0.000 A 
ATOM     24  C   UNL     1      -4.140  -1.520  23.493  0.00  0.00    +0.001 A 
ATOM     25  C   UNL     1      -3.937  -2.100  24.043  0.00  0.00    +0.010 A 
ATOM     26  C   UNL     1      -3.678  -1.881  24.795  0.00  0.00    +0.068 A 
ATOM     27  C   UNL     1      -3.623  -1.083  24.997  0.00  0.00    +0.010 A 
BRANCH  26  28
ATOM     28  C   UNL     1      -3.474  -2.459  25.346  0.00  0.00    +0.100 C 
ATOM     29  N   UNL     1      -3.271  -3.039  25.898  0.00  0.00    -0.191 NA
ENDBRANCH  26  28
ENDBRANCH  15  22
BRANCH   8   7
ATOM      7  C   UNL     1      -2.719   2.592  25.068  0.00  0.00    +0.138 C 
BRANCH   7   6
ATOM      3  C   UNL     1      -1.955   4.579  25.223  0.00  0.00    +0.156 A 
ATOM      4  C   UNL     1      -2.281   4.476  25.974  0.00  0.00    +0.038 A 
ATOM      5  C   UNL     1      -2.607   3.719  26.007  0.00  0.00    +0.037 A 
ATOM      6  C   UNL     1      -2.482   3.354  25.277  0.00  0.00    +0.139 A 
ATOM     30  O   UNL     1      -2.079   3.887  24.792  0.00  0.00    -0.458 OA
BRANCH   3   2
ATOM      1  O   UNL     1      -0.749   5.275  24.902  0.00  0.00    -0.212 OA
ATOM      2  C   UNL     1      -1.571   5.258  24.952  0.00  0.00    +0.246 C 
ENDBRANCH   3   2
ENDBRANCH   7   6
ENDBRANCH   8   7
TORSDOF 5
ENDMDL
MODEL 2
REMARK VINA RESULT:     -12.1      1.972      4.988
REMARK  Name = 
REMARK  5 active torsions:
REMARK  status: ('A' for Active; 'I' for Inactive)
REMARK    1  A    between atoms: C_2  and  C_3
REMARK    2  A    between atoms: C_6  and  C_7
REMARK    3  A    between atoms: C_7  and  N_8
REMARK    4  A    between atoms: C_15  and  C_22
REMARK    5  A    between atoms: C_26  and  C_28
REMARK                            x       y       z     vdW  Elec       q    Type
REMARK                         _______ _______ _______ _____ _____    ______ ____
ROOT
ATOM      8  N   UNL     1      -4.339   0.060  24.647  0.00  0.00    -0.266 NA
ATOM      9  C   UNL     1      -4.899   0.224  25.245  0.00  0.00    +0.074 C 
ATOM     10  C   UNL     1      -4.813   1.207  25.287  0.00  0.00    +0.039 C 
ATOM     11  C   UNL     1      -4.861   2.005  25.443  0.00  0.00    +0.011 C 
ATOM     12  C   UNL     1      -4.501   1.581  25.016  0.00  0.00    +0.054 C 
ATOM     13  C   UNL     1      -4.595   0.631  24.986  0.00  0.00    +0.078 C 
ATOM     14  C   UNL     1      -3.859   1.596  24.357  0.00  0.00    +0.041 A 
ATOM     15  C   UNL     1      -3.384   2.124  23.938  0.00  0.00    +0.012 A 
ATOM     16  C   UNL     1      -2.863   1.843  23.364  0.00  0.00    +0.006 A 
ATOM     17  C   UNL     1      -2.817   1.034  23.209  0.00  0.00    +0.061 A 
ATOM     18  C   UNL     1      -3.292   0.506  23.628  0.00  0.00    +0.261 A 
ATOM     19  O   UNL     1      -3.246  -0.303  23.473  0.00  0.00    -0.267 OA
ATOM     20  N   UNL     1      -3.813   0.787  24.202  0.00  0.00    -0.299 N 
ATOM     21  C   UNL     1      -4.143   1.213  24.599  0.00  0.00    +0.110 C 
ENDROOT
BRANCH  15  22
ATOM     22  C   UNL     1      -3.430   2.933  24.094  0.00  0.00    +0.002 A 
ATOM     23  C   UNL     1      -4.046   3.380  23.775  0.00  0.00    +0.000 A 
ATOM     24  C   UNL     1      -4.092   4.189  23.930  0.00  0.00    +0.001 A 
ATOM     25  C   UNL     1      -3.522   4.552  24.404  0.00  0.00    +0.010 A 
ATOM     26  C   UNL     1      -2.907   4.105  24.723  0.00  0.00    +0.068 A 
ATOM     27  C   UNL     1      -2.860   3.296  24.567  0.00  0.00    +0.010 A 
BRANCH  26  28
ATOM     28  C   UNL     1      -2.337   4.467  25.196  0.00  0.00    +0.100 C 
ATOM     29  N   UNL     1      -1.766   4.829  25.670  0.00  0.00    -0.191 NA
ENDBRANCH  26  28
ENDBRANCH  15  22
BRANCH   8   7
ATOM      7  C   UNL     1      -3.883  -0.382  24.119  0.00  0.00    +0.138 C 
BRANCH   7   6
ATOM      3  C   UNL     1      -3.638  -2.471  24.483  0.00  0.00    +0.156 A 
ATOM      4  C   UNL     1      -4.223  -2.478  23.902  0.00  0.00    +0.038 A 
ATOM      5  C   UNL     1      -4.386  -1.697  23.694  0.00  0.00    +0.037 A 
ATOM      6  C   UNL     1      -3.902  -1.206  24.148  0.00  0.00    +0.139 A 
ATOM     30  O   UNL     1      -3.439  -1.684  24.636  0.00  0.00    -0.458 OA
BRANCH   3   2
ATOM      1  O   UNL     1      -3.279  -3.180  25.671  0.00  0.00    -0.212 OA
ATOM      2  C   UNL     1      -3.309  -3.134  24.848  0.00  0.00    +0.246 C 
ENDBRANCH   3   2
ENDBRANCH   7   6
ENDBRANCH   8   7
TORSDOF 5
ENDMDL
MODEL 3
REMARK VINA RESULT:     -11.9      1.869      5.046
REMARK  Name = 
REMARK  5 active torsions:
REMARK  status: ('A' for Active; 'I' for Inactive)
REMARK    1  A    between atoms: C_2  and  C_3
REMARK    2  A    between atoms: C_6  and  C_7
REMARK    3  A    between atoms: C_7  and  N_8
REMARK    4  A    between atoms: C_15  and  C_22
REMARK    5  A    between atoms: C_26  and  C_28
REMARK                            x       y       z     vdW  Elec       q    Type
REMARK                         _______ _______ _______ _____ _____    ______ ____
ROOT
ATOM      8  N   UNL     1      -2.633   0.342  24.373  0.00  0.00    -0.266 NA
ATOM      9  C   UNL     1      -3.270   0.596  23.896  0.00  0.00    +0.074 C 
ATOM     10  C   UNL     1      -3.231   1.568  24.073  0.00  0.00    +0.039 C 
ATOM     11  C   UNL     1      -3.332   2.375  24.112  0.00  0.00    +0.011 C 
ATOM     12  C   UNL     1      -2.903   1.892  24.386  0.00  0.00    +0.054 C 
ATOM     13  C   UNL     1      -2.953   0.955  24.206  0.00  0.00    +0.078 C 
ATOM     14  C   UNL     1      -2.185   1.803  24.953  0.00  0.00    +0.041 A 
ATOM     15  C   UNL     1      -1.683   2.256  25.427  0.00  0.00    +0.012 A 
ATOM     16  C   UNL     1      -1.083   1.890  25.858  0.00  0.00    +0.006 A 
ATOM     17  C   UNL     1      -0.983   1.072  25.815  0.00  0.00    +0.061 A 
ATOM     18  C   UNL     1      -1.485   0.619  25.342  0.00  0.00    +0.261 A 
ATOM     19  O   UNL     1      -1.386  -0.199  25.300  0.00  0.00    -0.267 OA
ATOM     20  N   UNL     1      -2.086   0.985  24.911  0.00  0.00    -0.299 N 
ATOM     21  C   UNL     1      -2.481   1.466  24.664  0.00  0.00    +0.110 C 
ENDROOT
BRANCH  15  22
ATOM     22  C   UNL     1      -1.783   3.074  25.469  0.00  0.00    +0.002 A 
ATOM     23  C   UNL     1      -2.396   3.392  25.919  0.00  0.00    +0.000 A 
ATOM     24  C   UNL     1      -2.495   4.210  25.961  0.00  0.00    +0.001 A 
ATOM     25  C   UNL     1      -1.981   4.710  25.554  0.00  0.00    +0.010 A 
ATOM     26  C   UNL     1      -1.367   4.392  25.104  0.00  0.00    +0.068 A 
ATOM     27  C   UNL     1      -1.268   3.573  25.061  0.00  0.00    +0.010 A 
BRANCH  26  28
ATOM     28  C   UNL     1      -0.852   4.890  24.696  0.00  0.00    +0.100 C 
ATOM     29  N   UNL     1      -0.336   5.390  24.288  0.00  0.00    -0.191 NA
ENDBRANCH  26  28
ENDBRANCH  15  22
BRANCH   8   7
ATOM      7  C   UNL     1      -2.096  -0.175  24.729  0.00  0.00    +0.138 C 
BRANCH   7   6
ATOM      3  C   UNL     1      -2.702  -2.220  24.665  0.00  0.00    +0.156 A 
ATOM      4  C   UNL     1      -1.947  -2.268  24.336  0.00  0.00    +0.038 A 
ATOM      5  C   UNL     1      -1.628  -1.507  24.320  0.00  0.00    +0.037 A 
ATOM      6  C   UNL     1      -2.186  -0.989  24.639  0.00  0.00    +0.139 A 
ATOM     30  O   UNL     1      -2.850  -1.430  24.852  0.00  0.00    -0.458 OA
BRANCH   3   2
ATOM      1  O   UNL     1      -3.846  -2.977  24.266  0.00  0.00    -0.212 OA
ATOM      2  C   UNL     1      -3.218  -2.853  24.785  0.00  0.00    +0.246 C 
ENDBRANCH   3   2
ENDBRANCH   7   6
ENDBRANCH   8   7
TORSDOF 5
ENDMDL
MODEL 4
REMARK VINA RESULT:     -11.7      2.395      4.034
REMARK  Name = 
REMARK  5 active torsions:
REMARK  status: ('A' for Active; 'I' for Inactive)
REMARK    1  A    between atoms: C_2  and  C_3
REMARK    2  A    between atoms: C_6  and  C_7
REMARK    3  A    between atoms: C_7  and  N_8
REMARK    4  A    between atoms: C_15  and  C_22
REMARK    5  A    between atoms: C_26  and  C_28
REMARK                            x       y       z     vdW  Elec       q    Type
REMARK                         _______ _______ _______ _____ _____    ______ ____
ROOT
ATOM      8  N   UNL     1      -1.004   1.519  24.620  0.00  0.00    -0.266 NA
ATOM      9  C   UNL     1      -0.671   1.968  25.241  0.00  0.00    +0.074 C 
ATOM     10  C   UNL     1      -1.446   2.538  25.467  0.00  0.00    +0.039 C 
ATOM     11  C   UNL     1      -1.980   3.074  25.769  0.00  0.00    +0.011 C 
ATOM     12  C   UNL     1      -1.965   2.583  25.268  0.00  0.00    +0.054 C 
ATOM     13  C   UNL     1      -1.207   2.039  25.062  0.00  0.00    +0.078 C 
ATOM     14  C   UNL     1      -2.491   2.198  24.621  0.00  0.00    +0.041 A 
ATOM     15  C   UNL     1      -3.252   2.240  24.305  0.00  0.00    +0.012 A 
ATOM     16  C   UNL     1      -3.470   1.740  23.685  0.00  0.00    +0.006 A 
ATOM     17  C   UNL     1      -2.926   1.199  23.381  0.00  0.00    +0.061 A 
ATOM     18  C   UNL     1      -2.165   1.157  23.697  0.00  0.00    +0.261 A 
ATOM     19  O   UNL     1      -1.622   0.616  23.393  0.00  0.00    -0.267 OA
ATOM     20  N   UNL     1      -1.948   1.656  24.316  0.00  0.00    -0.299 N 
ATOM     21  C   UNL     1      -1.988   2.130  24.788  0.00  0.00    +0.110 C 
ENDROOT
BRANCH  15  22
ATOM     22  C   UNL     1      -3.796   2.781  24.609  0.00  0.00    +0.002 A 
ATOM     23  C   UNL     1      -3.763   3.572  24.378  0.00  0.00    +0.000 A 
ATOM     24  C   UNL     1      -4.307   4.113  24.682  0.00  0.00    +0.001 A 
ATOM     25  C   UNL     1      -4.883   3.864  25.217  0.00  0.00    +0.010 A 
ATOM     26  C   UNL     1      -4.915   3.072  25.448  0.00  0.00    +0.068 A 
ATOM     27  C   UNL     1      -4.372   2.531  25.144  0.00  0.00    +0.010 A 
BRANCH  26  28
ATOM     28  C   UNL     1      -5.491   2.822  25.983  0.00  0.00    +0.100 C 
ATOM     29  N   UNL     1      -6.067   2.571  26.519  0.00  0.00    -0.191 NA
ENDBRANCH  26  28
ENDBRANCH  15  22
BRANCH   8   7
ATOM      7  C   UNL     1      -1.053   0.959  24.016  0.00  0.00    +0.138 C 
BRANCH   7   6
ATOM      3  C   UNL     1       0.775   0.102  23.322  0.00  0.00    +0.156 A 
ATOM      4  C   UNL     1       0.458  -0.527  23.751  0.00  0.00    +0.038 A 
ATOM      5  C   UNL     1      -0.265  -0.283  24.064  0.00  0.00    +0.037 A 
ATOM      6  C   UNL     1      -0.395   0.498  23.827  0.00  0.00    +0.139 A 
ATOM     30  O   UNL     1       0.248   0.736  23.368  0.00  0.00    -0.458 OA
BRANCH   3   2
ATOM      1  O   UNL     1       1.540  -0.232  22.162  0.00  0.00    -0.212 OA
ATOM      2  C   UNL     1       1.494   0.098  22.916  0.00  0.00    +0.246 C 
ENDBRANCH   3   2
ENDBRANCH   7   6
ENDBRANCH   8   7
TORSDOF 5
ENDMDL
