MODEL 1
REMARK VINA RESULT:      -8.8      0.000      0.000
REMARK  Name = 
REMARK  9 active torsions:
REMARK  status: ('A' for Active; 'I' for Inactive)
REMARK    1  A    between atoms: O_2  and  C_3
REMARK    2  A    between atoms: C_6  and  C_7
REMARK    3  A    between atoms: C_7  and  N_8
REMARK    4  A    between atoms: C_9  and  C_11
REMARK    5  A    between atoms: C_11  and  C_12
REMARK    6  A    between atoms: C_14  and  C_15
REMARK    7  A    between atoms: C_18  and  C_19
REMARK    8  A    between atoms: C_19  and  N_20
REMARK    9  A    between atoms: C_21  and  C_23
REMARK                            x       y       z     vdW  Elec       q    Type
REMARK                         _______ _______ _______ _____ _____    ______ ____
ROOT
ATOM     12  C   UNL     1      -0.175   0.461  23.969  0.00  0.00    +0.027 C 
ATOM     13  C   UNL     1       0.123   1.209  24.147  0.00  0.00    +0.005 C 
ATOM     14  C   UNL     1      -0.393   1.821  24.349  0.00  0.00    +0.006 C 
ATOM     18  C   UNL     1      -1.205   1.683  24.373  0.00  0.00    +0.043 C 
ATOM     32  C   UNL     1      -1.503   0.935  24.196  0.00  0.00    -0.033 C 
ATOM     33  C   UNL     1      -0.988   0.323  23.994  0.00  0.00    -0.048 C 
ATOM     34  C   UNL     1      -1.285  -0.425  23.817  0.00  0.00    +0.026 C 
ENDROOT
BRANCH  14  15
ATOM     15  C   UNL     1      -0.094   2.569  24.526  0.00  0.00    +0.000 C 
ATOM     16  C   UNL     1       0.129   2.752  25.300  0.00  0.00    +0.000 C 
ATOM     17  C   UNL     1      -0.019   3.135  23.931  0.00  0.00    +0.000 C 
ENDBRANCH  14  15
BRANCH  12  11
ATOM     11  C   UNL     1       0.341  -0.151  23.768  0.00  0.00    +0.091 C 
BRANCH  11   9
ATOM      8  N   UNL     1       1.680  -0.026  23.283  0.00  0.00    -0.201 NA
ATOM      9  C   UNL     1       0.867  -0.057  23.139  0.00  0.00    +0.242 C 
ATOM     10  O   UNL     1       0.582   0.007  22.368  0.00  0.00    -0.273 OA
BRANCH   8   7
ATOM      7  C   UNL     1       2.206   0.068  22.655  0.00  0.00    +0.141 C 
BRANCH   7   6
ATOM      3  C   UNL     1       4.629   0.306  23.098  0.00  0.00    +0.139 A 
ATOM      4  C   UNL     1       4.201   0.942  22.794  0.00  0.00    +0.037 A 
ATOM      5  C   UNL     1       3.394   0.863  22.647  0.00  0.00    +0.001 A 
ATOM      6  C   UNL     1       3.014   0.147  22.803  0.00  0.00    -0.000 A 
ATOM     35  C   UNL     1       3.442  -0.489  23.106  0.00  0.00    +0.001 A 
ATOM     36  C   UNL     1       4.249  -0.409  23.254  0.00  0.00    +0.037 A 
BRANCH   3   2
ATOM      1  C   UNL     1       5.736   0.235  24.000  0.00  0.00    +0.252 C 
ATOM      2  O   UNL     1       5.437   0.385  23.246  0.00  0.00    -0.471 OA
ENDBRANCH   3   2
ENDBRANCH   7   6
ENDBRANCH   8   7
ENDBRANCH  11   9
ENDBRANCH  12  11
BRANCH  18  19
ATOM     19  C   UNL     1      -1.721   2.296  24.575  0.00  0.00    +0.119 C 
BRANCH  19  20
ATOM     20  N   UNL     1      -2.514   2.131  24.733  0.00  0.00    -0.205 NA
ATOM     21  C   UNL     1      -3.062   2.746  24.774  0.00  0.00    +0.241 C 
ATOM     22  O   UNL     1      -2.818   3.526  24.658  0.00  0.00    -0.273 OA
BRANCH  21  23
ATOM     23  C   UNL     1      -3.855   2.583  24.932  0.00  0.00    +0.082 C 
ATOM     24  C   UNL     1      -4.179   2.777  25.664  0.00  0.00    +0.031 C 
ATOM     25  C   UNL     1      -4.973   2.613  25.821  0.00  0.00    +0.094 C 
ATOM     26  N   UNL     1      -5.442   2.255  25.245  0.00  0.00    -0.280 N 
ATOM     27  C   UNL     1      -5.118   2.061  24.513  0.00  0.00    +0.094 C 
ATOM     28  C   UNL     1      -4.325   2.224  24.355  0.00  0.00    +0.031 C 
ATOM     29  C   UNL     1      -6.235   2.091  25.402  0.00  0.00    +0.226 C 
ATOM     30  C   UNL     1      -6.559   2.286  26.135  0.00  0.00    +0.095 C 
ATOM     31  O   UNL     1      -6.704   1.733  24.826  0.00  0.00    -0.275 OA
ENDBRANCH  21  23
ENDBRANCH  19  20
ENDBRANCH  18  19
TORSDOF 9
ENDMDL
MODEL 2
REMARK VINA RESULT:      -8.1      1.385      7.329
REMARK  Name = 
REMARK  9 active torsions:
REMARK  status: ('A' for Active; 'I' for Inactive)
REMARK    1  A    between atoms: O_2  and  C_3
REMARK    2  A    between atoms: C_6  and  C_7
REMARK    3  A    between atoms: C_7  and  N_8
REMARK    4  A    between atoms: C_9  and  C_11
REMARK    5  A    between atoms: C_11  and  C_12
REMARK    6  A    between atoms: C_14  and  C_15
REMARK    7  A    between atoms: C_18  and  C_19
REMARK    8  A    between atoms: C_19  and  N_20
REMARK    9  A    between atoms: C_21  and  C_23
REMARK                            x       y       z     vdW  Elec       q    Type
REMARK                         _______ _______ _______ _____ _____    ______ ____
ROOT
ATOM     12  C   UNL     1      -1.226  -0.339  24.746  0.00  0.00    +0.027 C 
ATOM     13  C   UNL     1      -1.252   0.402  24.385  0.00  0.00    +0.005 C 
ATOM     14  C   UNL     1      -0.666   0.618  23.845  0.00  0.00    +0.006 C 
ATOM     18  C   UNL     1      -0.056   0.093  23.667  0.00  0.00    +0.043 C 
ATOM     32  C   UNL     1      -0.030  -0.649  24.028  0.00  0.00    -0.033 C 
ATOM     33  C   UNL     1      -0.615  -0.865  24.568  0.00  0.00    -0.048 C 
ATOM     34  C   UNL     1      -0.590  -1.605  24.929  0.00  0.00    +0.026 C 
ENDROOT
BRANCH  14  15
ATOM     15  C   UNL     1      -0.692   1.359  23.484  0.00  0.00    +0.000 C 
ATOM     16  C   UNL     1      -0.336   2.009  23.850  0.00  0.00    +0.000 C 
ATOM     17  C   UNL     1      -1.073   1.453  22.759  0.00  0.00    +0.000 C 
ENDBRANCH  14  15
BRANCH  12  11
ATOM     11  C   UNL     1      -1.811  -0.555  25.285  0.00  0.00    +0.091 C 
BRANCH  11   9
ATOM      8  N   UNL     1      -3.114   0.029  25.216  0.00  0.00    -0.201 NA
ATOM      9  C   UNL     1      -2.600  -0.594  25.045  0.00  0.00    +0.242 C 
ATOM     10  O   UNL     1      -2.875  -1.256  24.636  0.00  0.00    -0.273 OA
BRANCH   8   7
ATOM      7  C   UNL     1      -3.902  -0.010  24.976  0.00  0.00    +0.141 C 
BRANCH   7   6
ATOM      3  C   UNL     1      -5.340   1.998  25.126  0.00  0.00    +0.139 A 
ATOM      4  C   UNL     1      -4.749   1.956  24.552  0.00  0.00    +0.037 A 
ATOM      5  C   UNL     1      -4.270   1.287  24.502  0.00  0.00    +0.001 A 
ATOM      6  C   UNL     1      -4.382   0.660  25.026  0.00  0.00    -0.000 A 
ATOM     35  C   UNL     1      -4.973   0.701  25.600  0.00  0.00    +0.001 A 
ATOM     36  C   UNL     1      -5.452   1.371  25.650  0.00  0.00    +0.037 A 
BRANCH   3   2
ATOM      1  C   UNL     1      -5.544   3.347  25.556  0.00  0.00    +0.252 C 
ATOM      2  O   UNL     1      -5.820   2.668  25.176  0.00  0.00    -0.471 OA
ENDBRANCH   3   2
ENDBRANCH   7   6
ENDBRANCH   8   7
ENDBRANCH  11   9
ENDBRANCH  12  11
BRANCH  18  19
ATOM     19  C   UNL     1       0.531   0.309  23.127  0.00  0.00    +0.119 C 
BRANCH  19  20
ATOM     20  N   UNL     1       1.327   0.234  23.331  0.00  0.00    -0.205 NA
ATOM     21  C   UNL     1       1.893   0.119  22.742  0.00  0.00    +0.241 C 
ATOM     22  O   UNL     1       1.664   0.081  21.950  0.00  0.00    -0.273 OA
BRANCH  21  23
ATOM     23  C   UNL     1       2.689   0.043  22.944  0.00  0.00    +0.082 C 
ATOM     24  C   UNL     1       3.199   0.685  22.860  0.00  0.00    +0.031 C 
ATOM     25  C   UNL     1       3.996   0.608  23.062  0.00  0.00    +0.094 C 
ATOM     26  N   UNL     1       4.281  -0.111  23.349  0.00  0.00    -0.280 N 
ATOM     27  C   UNL     1       3.771  -0.752  23.433  0.00  0.00    +0.094 C 
ATOM     28  C   UNL     1       2.975  -0.676  23.231  0.00  0.00    +0.031 C 
ATOM     29  C   UNL     1       5.078  -0.187  23.552  0.00  0.00    +0.226 C 
ATOM     30  C   UNL     1       5.588   0.455  23.467  0.00  0.00    +0.095 C 
ATOM     31  O   UNL     1       5.363  -0.906  23.838  0.00  0.00    -0.275 OA
ENDBRANCH  21  23
ENDBRANCH  19  20
ENDBRANCH  18  19
TORSDOF 9
ENDMDL
MODEL 3
REMARK VINA RESULT:      -8.0      2.388      5.934
REMARK  Name = 
REMARK  9 active torsions:
REMARK  status: ('A' for Active; 'I' for Inactive)
REMARK    1  A    between atoms: O_2  and  C_3
REMARK    2  A    between atoms: C_6  and  C_7
REMARK    3  A    between atoms: C_7  and  N_8
REMARK    4  A    between atoms: C_9  and  C_11
REMARK    5  A    between atoms: C_11  and  C_12
REMARK    6  A    between atoms: C_14  and  C_15
REMARK    7  A    between atoms: C_18  and  C_19
REMARK    8  A    between atoms: C_19  and  N_20
REMARK    9  A    between atoms: C_21  and  C_23
REMARK                            x       y       z     vdW  Elec       q    Type
REMARK                         _______ _______ _______ _____ _____    ______ ____
ROOT
ATOM     12  C   UNL     1      -0.358   2.643  25.458  0.00  0.00    +0.027 C 
ATOM     13  C   UNL     1      -0.183   2.458  24.674  0.00  0.00    +0.005 C 
ATOM     14  C   UNL     1      -0.136   1.669  24.437  0.00  0.00    +0.006 C 
ATOM     18  C   UNL     1      -0.264   1.066  24.984  0.00  0.00    +0.043 C 
ATOM     32  C   UNL     1      -0.440   1.251  25.769  0.00  0.00    -0.033 C 
ATOM     33  C   UNL     1      -0.487   2.039  26.006  0.00  0.00    -0.048 C 
ATOM     34  C   UNL     1      -0.662   2.224  26.790  0.00  0.00    +0.026 C 
ENDROOT
BRANCH  14  15
ATOM     15  C   UNL     1       0.040   1.485  23.652  0.00  0.00    +0.000 C 
ATOM     16  C   UNL     1      -0.553   1.520  23.077  0.00  0.00    +0.000 C 
ATOM     17  C   UNL     1       0.806   1.265  23.441  0.00  0.00    +0.000 C 
ENDBRANCH  14  15
BRANCH  12  11
ATOM     11  C   UNL     1      -0.405   3.432  25.695  0.00  0.00    +0.091 C 
BRANCH  11   9
ATOM      8  N   UNL     1      -1.779   3.802  25.565  0.00  0.00    -0.201 NA
ATOM      9  C   UNL     1      -0.985   3.925  25.377  0.00  0.00    +0.242 C 
ATOM     10  O   UNL     1      -0.771   4.540  24.870  0.00  0.00    -0.273 OA
BRANCH   8   7
ATOM      7  C   UNL     1      -2.359   4.295  25.247  0.00  0.00    +0.141 C 
BRANCH   7   6
ATOM      3  C   UNL     1      -4.736   3.609  25.310  0.00  0.00    +0.139 A 
ATOM      4  C   UNL     1      -4.366   3.876  25.997  0.00  0.00    +0.037 A 
ATOM      5  C   UNL     1      -3.574   4.104  25.976  0.00  0.00    +0.001 A 
ATOM      6  C   UNL     1      -3.152   4.066  25.268  0.00  0.00    -0.000 A 
ATOM     35  C   UNL     1      -3.522   3.799  24.581  0.00  0.00    +0.001 A 
ATOM     36  C   UNL     1      -4.314   3.570  24.602  0.00  0.00    +0.037 A 
BRANCH   3   2
ATOM      1  C   UNL     1      -5.727   2.581  25.392  0.00  0.00    +0.252 C 
ATOM      2  O   UNL     1      -5.528   3.379  25.331  0.00  0.00    -0.471 OA
ENDBRANCH   3   2
ENDBRANCH   7   6
ENDBRANCH   8   7
ENDBRANCH  11   9
ENDBRANCH  12  11
BRANCH  18  19
ATOM     19  C   UNL     1      -0.217   0.276  24.747  0.00  0.00    +0.119 C 
BRANCH  19  20
ATOM     20  N   UNL     1      -0.907  -0.164  24.640  0.00  0.00    -0.205 NA
ATOM     21  C   UNL     1      -0.900  -0.978  24.771  0.00  0.00    +0.241 C 
ATOM     22  O   UNL     1      -0.203  -1.353  25.008  0.00  0.00    -0.273 OA
BRANCH  21  23
ATOM     23  C   UNL     1      -1.589  -1.419  24.664  0.00  0.00    +0.082 C 
ATOM     24  C   UNL     1      -2.315  -1.038  24.590  0.00  0.00    +0.031 C 
ATOM     25  C   UNL     1      -3.005  -1.480  24.484  0.00  0.00    +0.094 C 
ATOM     26  N   UNL     1      -2.965  -2.303  24.452  0.00  0.00    -0.280 N 
ATOM     27  C   UNL     1      -2.239  -2.685  24.527  0.00  0.00    +0.094 C 
ATOM     28  C   UNL     1      -1.550  -2.244  24.633  0.00  0.00    +0.031 C 
ATOM     29  C   UNL     1      -3.654  -2.745  24.346  0.00  0.00    +0.226 C 
ATOM     30  C   UNL     1      -4.382  -2.364  24.271  0.00  0.00    +0.095 C 
ATOM     31  O   UNL     1      -3.615  -3.569  24.314  0.00  0.00    -0.275 OA
ENDBRANCH  21  23
ENDBRANCH  19  20
ENDBRANCH  18  19
TORSDOF 9
ENDMDL
MODEL 4
REMARK VINA RESULT:      -7.9      2.435      4.579
REMARK  Name = 
REMARK  9 active torsions:
REMARK  status: ('A' for Active; 'I' for Inactive)
REMARK    1  A    between atoms: O_2  and  C_3
REMARK    2  A    between atoms: C_6  and  C_7
REMARK    3  A    between atoms: C_7  and  N_8
REMARK    4  A    between atoms: C_9  and  C_11
REMARK    5  A    between atoms: C_11  and  C_12
REMARK    6  A    between atoms: C_14  and  C_15
REMARK    7  A    between atoms: C_18  and  C_19
REMARK    8  A    between atoms: C_19  and  N_20
REMARK    9  A    between atoms: C_21  and  C_23
REMARK                            x       y       z     vdW  Elec       q    Type
REMARK                         _______ _______ _______ _____ _____    ______ ____
ROOT
ATOM     12  C   UNL     1      -3.151   3.984  25.317  0.00  0.00    +0.027 C 
ATOM     13  C   UNL     1      -3.229   3.831  24.511  0.00  0.00    +0.005 C 
ATOM     14  C   UNL     1      -3.687   3.194  24.255  0.00  0.00    +0.006 C 
ATOM     18  C   UNL     1      -4.067   2.712  24.805  0.00  0.00    +0.043 C 
ATOM     32  C   UNL     1      -3.988   2.865  25.612  0.00  0.00    -0.033 C 
ATOM     33  C   UNL     1      -3.530   3.501  25.868  0.00  0.00    -0.048 C 
ATOM     34  C   UNL     1      -3.452   3.655  26.674  0.00  0.00    +0.026 C 
ENDROOT
BRANCH  14  15
ATOM     15  C   UNL     1      -3.765   3.041  23.448  0.00  0.00    +0.000 C 
ATOM     16  C   UNL     1      -4.396   3.367  23.025  0.00  0.00    +0.000 C 
ATOM     17  C   UNL     1      -3.215   2.563  23.063  0.00  0.00    +0.000 C 
ENDBRANCH  14  15
BRANCH  12  11
ATOM     11  C   UNL     1      -2.692   4.620  25.573  0.00  0.00    +0.091 C 
BRANCH  11   9
ATOM      8  N   UNL     1      -1.402   4.013  25.477  0.00  0.00    -0.201 NA
ATOM      9  C   UNL     1      -1.895   4.666  25.365  0.00  0.00    +0.242 C 
ATOM     10  O   UNL     1      -1.591   5.363  25.045  0.00  0.00    -0.273 OA
BRANCH   8   7
ATOM      7  C   UNL     1      -0.606   4.058  25.269  0.00  0.00    +0.141 C 
BRANCH   7   6
ATOM      3  C   UNL     1       0.592   2.027  24.516  0.00  0.00    +0.139 A 
ATOM      4  C   UNL     1       0.331   2.087  25.296  0.00  0.00    +0.037 A 
ATOM      5  C   UNL     1      -0.068   2.763  25.547  0.00  0.00    +0.001 A 
ATOM      6  C   UNL     1      -0.206   3.381  25.018  0.00  0.00    -0.000 A 
ATOM     35  C   UNL     1       0.055   3.322  24.237  0.00  0.00    +0.001 A 
ATOM     36  C   UNL     1       0.454   2.645  23.987  0.00  0.00    +0.037 A 
BRANCH   3   2
ATOM      1  C   UNL     1       0.588   0.764  23.846  0.00  0.00    +0.252 C 
ATOM      2  O   UNL     1       0.991   1.351  24.264  0.00  0.00    -0.471 OA
ENDBRANCH   3   2
ENDBRANCH   7   6
ENDBRANCH   8   7
ENDBRANCH  11   9
ENDBRANCH  12  11
BRANCH  18  19
ATOM     19  C   UNL     1      -4.525   2.075  24.549  0.00  0.00    +0.119 C 
BRANCH  19  20
ATOM     20  N   UNL     1      -4.228   1.307  24.598  0.00  0.00    -0.205 NA
ATOM     21  C   UNL     1      -4.744   0.670  24.687  0.00  0.00    +0.241 C 
ATOM     22  O   UNL     1      -5.559   0.801  24.727  0.00  0.00    -0.273 OA
BRANCH  21  23
ATOM     23  C   UNL     1      -4.448  -0.099  24.737  0.00  0.00    +0.082 C 
ATOM     24  C   UNL     1      -4.504  -0.605  24.089  0.00  0.00    +0.031 C 
ATOM     25  C   UNL     1      -4.208  -1.374  24.139  0.00  0.00    +0.094 C 
ATOM     26  N   UNL     1      -3.855  -1.635  24.838  0.00  0.00    -0.280 N 
ATOM     27  C   UNL     1      -3.800  -1.128  25.486  0.00  0.00    +0.094 C 
ATOM     28  C   UNL     1      -4.096  -0.360  25.436  0.00  0.00    +0.031 C 
ATOM     29  C   UNL     1      -3.559  -2.404  24.888  0.00  0.00    +0.226 C 
ATOM     30  C   UNL     1      -3.615  -2.910  24.239  0.00  0.00    +0.095 C 
ATOM     31  O   UNL     1      -3.207  -2.664  25.587  0.00  0.00    -0.275 OA
ENDBRANCH  21  23
ENDBRANCH  19  20
ENDBRANCH  18  19
TORSDOF 9
ENDMDL
MODEL 5
REMARK VINA RESULT:      -7.8      0.765      7.536
REMARK  Name = 
REMARK  9 active torsions:
REMARK  status: ('A' for Active; 'I' for Inactive)
REMARK    1  A    between atoms: O_2  and  C_3
REMARK    2  A    between atoms: C_6  and  C_7
REMARK    3  A    between atoms: C_7  and  N_8
REMARK    4  A    between atoms: C_9  and  C_11
REMARK    5  A    between atoms: C_11  and  C_12
REMARK    6  A    between atoms: C_14  and  C_15
REMARK    7  A    between atoms: C_18  and  C_19
REMARK    8  A    between atoms: C_19  and  N_20
REMARK    9  A    between atoms: C_21  and  C_23
REMARK                            x       y       z     vdW  Elec       q    Type
REMARK                         _______ _______ _______ _____ _____    ______ ____
ROOT
ATOM     12  C   UNL     1      -0.878   2.129  24.783  0.00  0.00    +0.027 C 
ATOM     13  C   UNL     1      -1.174   1.372  24.643  0.00  0.00    +0.005 C 
ATOM     14  C   UNL     1      -0.728   0.829  24.212  0.00  0.00    +0.006 C 
ATOM     18  C   UNL     1       0.014   1.042  23.921  0.00  0.00    +0.043 C 
ATOM     32  C   UNL     1       0.310   1.799  24.062  0.00  0.00    -0.033 C 
ATOM     33  C   UNL     1      -0.136   2.343  24.493  0.00  0.00    -0.048 C 
ATOM     34  C   UNL     1       0.160   3.099  24.633  0.00  0.00    +0.026 C 
ENDROOT
BRANCH  14  15
ATOM     15  C   UNL     1      -1.024   0.071  24.071  0.00  0.00    +0.000 C 
ATOM     16  C   UNL     1      -1.489  -0.072  23.403  0.00  0.00    +0.000 C 
ATOM     17  C   UNL     1      -0.858  -0.541  24.597  0.00  0.00    +0.000 C 
ENDBRANCH  14  15
BRANCH  12  11
ATOM     11  C   UNL     1      -1.324   2.673  25.214  0.00  0.00    +0.091 C 
BRANCH  11   9
ATOM      8  N   UNL     1      -2.747   2.797  25.172  0.00  0.00    -0.201 NA
ATOM      9  C   UNL     1      -2.002   3.006  24.883  0.00  0.00    +0.242 C 
ATOM     10  O   UNL     1      -1.937   3.547  24.264  0.00  0.00    -0.273 OA
BRANCH   8   7
ATOM      7  C   UNL     1      -3.425   3.129  24.840  0.00  0.00    +0.141 C 
BRANCH   7   6
ATOM      3  C   UNL     1      -5.659   2.282  25.485  0.00  0.00    +0.139 A 
ATOM      4  C   UNL     1      -5.223   1.893  24.904  0.00  0.00    +0.037 A 
ATOM      5  C   UNL     1      -4.479   2.175  24.689  0.00  0.00    +0.001 A 
ATOM      6  C   UNL     1      -4.171   2.847  25.056  0.00  0.00    -0.000 A 
ATOM     35  C   UNL     1      -4.607   3.236  25.637  0.00  0.00    +0.001 A 
ATOM     36  C   UNL     1      -5.351   2.953  25.852  0.00  0.00    +0.037 A 
BRANCH   3   2
ATOM      1  C   UNL     1      -6.525   1.681  26.453  0.00  0.00    +0.252 C 
ATOM      2  O   UNL     1      -6.404   2.000  25.701  0.00  0.00    -0.471 OA
ENDBRANCH   3   2
ENDBRANCH   7   6
ENDBRANCH   8   7
ENDBRANCH  11   9
ENDBRANCH  12  11
BRANCH  18  19
ATOM     19  C   UNL     1       0.460   0.498  23.489  0.00  0.00    +0.119 C 
BRANCH  19  20
ATOM     20  N   UNL     1       1.282   0.489  23.562  0.00  0.00    -0.205 NA
ATOM     21  C   UNL     1       1.746   0.171  22.959  0.00  0.00    +0.241 C 
ATOM     22  O   UNL     1       1.387  -0.139  22.282  0.00  0.00    -0.273 OA
BRANCH  21  23
ATOM     23  C   UNL     1       2.567   0.162  23.030  0.00  0.00    +0.082 C 
ATOM     24  C   UNL     1       2.950  -0.512  23.308  0.00  0.00    +0.031 C 
ATOM     25  C   UNL     1       3.773  -0.521  23.380  0.00  0.00    +0.094 C 
ATOM     26  N   UNL     1       4.211   0.146  23.172  0.00  0.00    -0.280 N 
ATOM     27  C   UNL     1       3.828   0.821  22.894  0.00  0.00    +0.094 C 
ATOM     28  C   UNL     1       3.007   0.830  22.822  0.00  0.00    +0.031 C 
ATOM     29  C   UNL     1       5.033   0.138  23.243  0.00  0.00    +0.226 C 
ATOM     30  C   UNL     1       5.417  -0.538  23.522  0.00  0.00    +0.095 C 
ATOM     31  O   UNL     1       5.472   0.805  23.036  0.00  0.00    -0.275 OA
ENDBRANCH  21  23
ENDBRANCH  19  20
ENDBRANCH  18  19
TORSDOF 9
ENDMDL
MODEL 6
REMARK VINA RESULT:      -7.8      1.619      2.695
REMARK  Name = 
REMARK  9 active torsions:
REMARK  status: ('A' for Active; 'I' for Inactive)
REMARK    1  A    between atoms: O_2  and  C_3
REMARK    2  A    between atoms: C_6  and  C_7
REMARK    3  A    between atoms: C_7  and  N_8
REMARK    4  A    between atoms: C_9  and  C_11
REMARK    5  A    between atoms: C_11  and  C_12
REMARK    6  A    between atoms: C_14  and  C_15
REMARK    7  A    between atoms: C_18  and  C_19
REMARK    8  A    between atoms: C_19  and  N_20
REMARK    9  A    between atoms: C_21  and  C_23
REMARK                            x       y       z     vdW  Elec       q    Type
REMARK                         _______ _______ _______ _____ _____    ______ ____
ROOT
ATOM     12  C   UNL     1      -1.432  -0.674  24.902  0.00  0.00    +0.027 C 
ATOM     13  C   UNL     1      -2.016  -1.155  24.575  0.00  0.00    +0.005 C 
ATOM     14  C   UNL     1      -2.810  -0.935  24.629  0.00  0.00    +0.006 C 
ATOM     18  C   UNL     1      -3.018  -0.235  25.011  0.00  0.00    +0.043 C 
ATOM     32  C   UNL     1      -2.434   0.246  25.339  0.00  0.00    -0.033 C 
ATOM     33  C   UNL     1      -1.640   0.027  25.285  0.00  0.00    -0.048 C 
ATOM     34  C   UNL     1      -1.056   0.508  25.613  0.00  0.00    +0.026 C 
ENDROOT
BRANCH  14  15
ATOM     15  C   UNL     1      -3.394  -1.417  24.301  0.00  0.00    +0.000 C 
ATOM     16  C   UNL     1      -3.703  -1.241  23.555  0.00  0.00    +0.000 C 
ATOM     17  C   UNL     1      -3.670  -2.073  24.717  0.00  0.00    +0.000 C 
ENDBRANCH  14  15
BRANCH  12  11
ATOM     11  C   UNL     1      -0.639  -0.894  24.848  0.00  0.00    +0.091 C 
BRANCH  11   9
ATOM      8  N   UNL     1       0.290  -0.382  23.890  0.00  0.00    -0.201 NA
ATOM      9  C   UNL     1      -0.274  -0.944  24.110  0.00  0.00    +0.242 C 
ATOM     10  O   UNL     1      -0.473  -1.554  23.591  0.00  0.00    -0.273 OA
BRANCH   8   7
ATOM      7  C   UNL     1       0.655  -0.433  23.152  0.00  0.00    +0.141 C 
BRANCH   7   6
ATOM      3  C   UNL     1       2.818   0.706  22.763  0.00  0.00    +0.139 A 
ATOM      4  C   UNL     1       2.235   1.073  23.216  0.00  0.00    +0.037 A 
ATOM      5  C   UNL     1       1.514   0.694  23.346  0.00  0.00    +0.001 A 
ATOM      6  C   UNL     1       1.377  -0.053  23.022  0.00  0.00    -0.000 A 
ATOM     35  C   UNL     1       1.960  -0.420  22.569  0.00  0.00    +0.001 A 
ATOM     36  C   UNL     1       2.680  -0.040  22.439  0.00  0.00    +0.037 A 
BRANCH   3   2
ATOM      1  C   UNL     1       4.248   0.691  22.786  0.00  0.00    +0.252 C 
ATOM      2  O   UNL     1       3.539   1.085  22.633  0.00  0.00    -0.471 OA
ENDBRANCH   3   2
ENDBRANCH   7   6
ENDBRANCH   8   7
ENDBRANCH  11   9
ENDBRANCH  12  11
BRANCH  18  19
ATOM     19  C   UNL     1      -3.812  -0.015  25.066  0.00  0.00    +0.119 C 
BRANCH  19  20
ATOM     20  N   UNL     1      -4.017   0.783  25.115  0.00  0.00    -0.205 NA
ATOM     21  C   UNL     1      -4.796   0.999  25.275  0.00  0.00    +0.241 C 
ATOM     22  O   UNL     1      -5.372   0.418  25.386  0.00  0.00    -0.273 OA
BRANCH  21  23
ATOM     23  C   UNL     1      -5.002   1.797  25.324  0.00  0.00    +0.082 C 
ATOM     24  C   UNL     1      -4.521   2.369  24.978  0.00  0.00    +0.031 C 
ATOM     25  C   UNL     1      -4.727   3.167  25.027  0.00  0.00    +0.094 C 
ATOM     26  N   UNL     1      -5.414   3.391  25.424  0.00  0.00    -0.280 N 
ATOM     27  C   UNL     1      -5.895   2.818  25.771  0.00  0.00    +0.094 C 
ATOM     28  C   UNL     1      -5.690   2.021  25.722  0.00  0.00    +0.031 C 
ATOM     29  C   UNL     1      -5.620   4.189  25.474  0.00  0.00    +0.226 C 
ATOM     30  C   UNL     1      -5.139   4.762  25.127  0.00  0.00    +0.095 C 
ATOM     31  O   UNL     1      -6.308   4.412  25.871  0.00  0.00    -0.275 OA
ENDBRANCH  21  23
ENDBRANCH  19  20
ENDBRANCH  18  19
TORSDOF 9
ENDMDL
MODEL 7
REMARK VINA RESULT:      -7.5      1.764      6.580
REMARK  Name = 
REMARK  9 active torsions:
REMARK  status: ('A' for Active; 'I' for Inactive)
REMARK    1  A    between atoms: O_2  and  C_3
REMARK    2  A    between atoms: C_6  and  C_7
REMARK    3  A    between atoms: C_7  and  N_8
REMARK    4  A    between atoms: C_9  and  C_11
REMARK    5  A    between atoms: C_11  and  C_12
REMARK    6  A    between atoms: C_14  and  C_15
REMARK    7  A    between atoms: C_18  and  C_19
REMARK    8  A    between atoms: C_19  and  N_20
REMARK    9  A    between atoms: C_21  and  C_23
REMARK                            x       y       z     vdW  Elec       q    Type
REMARK                         _______ _______ _______ _____ _____    ______ ____
ROOT
ATOM     12  C   UNL     1      -4.106   0.514  24.504  0.00  0.00    +0.027 C 
ATOM     13  C   UNL     1      -3.918   0.009  25.127  0.00  0.00    +0.005 C 
ATOM     14  C   UNL     1      -3.215  -0.423  25.110  0.00  0.00    +0.006 C 
ATOM     18  C   UNL     1      -2.701  -0.348  24.470  0.00  0.00    +0.043 C 
ATOM     32  C   UNL     1      -2.889   0.157  23.846  0.00  0.00    -0.033 C 
ATOM     33  C   UNL     1      -3.592   0.589  23.863  0.00  0.00    -0.048 C 
ATOM     34  C   UNL     1      -3.780   1.094  23.239  0.00  0.00    +0.026 C 
ENDROOT
BRANCH  14  15
ATOM     15  C   UNL     1      -3.027  -0.929  25.735  0.00  0.00    +0.000 C 
ATOM     16  C   UNL     1      -2.551  -0.660  26.355  0.00  0.00    +0.000 C 
ATOM     17  C   UNL     1      -3.313  -1.702  25.741  0.00  0.00    +0.000 C 
ENDBRANCH  14  15
BRANCH  12  11
ATOM     11  C   UNL     1      -4.809   0.946  24.521  0.00  0.00    +0.091 C 
BRANCH  11   9
ATOM      8  N   UNL     1      -4.441   2.268  24.920  0.00  0.00    -0.201 NA
ATOM      9  C   UNL     1      -4.889   1.584  25.037  0.00  0.00    +0.242 C 
ATOM     10  O   UNL     1      -5.417   1.540  25.669  0.00  0.00    -0.273 OA
BRANCH   8   7
ATOM      7  C   UNL     1      -4.522   2.906  25.436  0.00  0.00    +0.141 C 
BRANCH   7   6
ATOM      3  C   UNL     1      -2.729   4.605  25.587  0.00  0.00    +0.139 A 
ATOM      4  C   UNL     1      -3.182   4.545  24.902  0.00  0.00    +0.037 A 
ATOM      5  C   UNL     1      -3.780   3.979  24.851  0.00  0.00    +0.001 A 
ATOM      6  C   UNL     1      -3.923   3.473  25.486  0.00  0.00    -0.000 A 
ATOM     35  C   UNL     1      -3.470   3.533  26.173  0.00  0.00    +0.001 A 
ATOM     36  C   UNL     1      -2.873   4.099  26.223  0.00  0.00    +0.037 A 
BRANCH   3   2
ATOM      1  C   UNL     1      -1.445   5.091  25.187  0.00  0.00    +0.252 C 
ATOM      2  O   UNL     1      -2.131   5.172  25.639  0.00  0.00    -0.471 OA
ENDBRANCH   3   2
ENDBRANCH   7   6
ENDBRANCH   8   7
ENDBRANCH  11   9
ENDBRANCH  12  11
BRANCH  18  19
ATOM     19  C   UNL     1      -1.997  -0.781  24.453  0.00  0.00    +0.119 C 
BRANCH  19  20
ATOM     20  N   UNL     1      -1.305  -0.429  24.174  0.00  0.00    -0.205 NA
ATOM     21  C   UNL     1      -0.642  -0.894  24.015  0.00  0.00    +0.241 C 
ATOM     22  O   UNL     1      -0.672  -1.711  24.135  0.00  0.00    -0.273 OA
BRANCH  21  23
ATOM     23  C   UNL     1       0.051  -0.544  23.736  0.00  0.00    +0.082 C 
ATOM     24  C   UNL     1       0.458  -0.881  23.104  0.00  0.00    +0.031 C 
ATOM     25  C   UNL     1       1.151  -0.531  22.825  0.00  0.00    +0.094 C 
ATOM     26  N   UNL     1       1.436   0.157  23.180  0.00  0.00    -0.280 N 
ATOM     27  C   UNL     1       1.029   0.494  23.813  0.00  0.00    +0.094 C 
ATOM     28  C   UNL     1       0.337   0.144  24.091  0.00  0.00    +0.031 C 
ATOM     29  C   UNL     1       2.130   0.508  22.902  0.00  0.00    +0.226 C 
ATOM     30  C   UNL     1       2.537   0.171  22.269  0.00  0.00    +0.095 C 
ATOM     31  O   UNL     1       2.415   1.196  23.256  0.00  0.00    -0.275 OA
ENDBRANCH  21  23
ENDBRANCH  19  20
ENDBRANCH  18  19
TORSDOF 9
ENDMDL
MODEL 8
REMARK VINA RESULT:      -7.3      3.562      5.522
REMARK  Name = 
REMARK  9 active torsions:
REMARK  status: ('A' for Active; 'I' for Inactive)
REMARK    1  A    between atoms: O_2  and  C_3
REMARK    2  A    between atoms: C_6  and  C_7
REMARK    3  A    between atoms: C_7  and  N_8
REMARK    4  A    between atoms: C_9  and  C_11
REMARK    5  A    between atoms: C_11  and  C_12
REMARK    6  A    between atoms: C_14  and  C_15
REMARK    7  A    between atoms: C_18  and  C_19
REMARK    8  A    between atoms: C_19  and  N_20
REMARK    9  A    between atoms: C_21  and  C_23
REMARK                            x       y       z     vdW  Elec       q    Type
REMARK                         _______ _______ _______ _____ _____    ______ ____
ROOT
ATOM     12  C   UNL     1      -4.262   3.124  24.171  0.00  0.00    +0.027 C 
ATOM     13  C   UNL     1      -4.776   2.925  24.785  0.00  0.00    +0.005 C 
ATOM     14  C   UNL     1      -4.997   2.138  24.898  0.00  0.00    +0.006 C 
ATOM     18  C   UNL     1      -4.704   1.552  24.398  0.00  0.00    +0.043 C 
ATOM     32  C   UNL     1      -4.190   1.751  23.784  0.00  0.00    -0.033 C 
ATOM     33  C   UNL     1      -3.969   2.538  23.671  0.00  0.00    -0.048 C 
ATOM     34  C   UNL     1      -3.456   2.737  23.057  0.00  0.00    +0.026 C 
ENDROOT
BRANCH  14  15
ATOM     15  C   UNL     1      -5.511   1.939  25.512  0.00  0.00    +0.000 C 
ATOM     16  C   UNL     1      -6.321   1.871  25.366  0.00  0.00    +0.000 C 
ATOM     17  C   UNL     1      -5.216   1.807  26.271  0.00  0.00    +0.000 C 
ENDBRANCH  14  15
BRANCH  12  11
ATOM     11  C   UNL     1      -4.041   3.911  24.058  0.00  0.00    +0.091 C 
BRANCH  11   9
ATOM      8  N   UNL     1      -2.738   4.039  24.631  0.00  0.00    -0.201 NA
ATOM      9  C   UNL     1      -3.528   4.276  24.591  0.00  0.00    +0.242 C 
ATOM     10  O   UNL     1      -3.804   4.879  25.083  0.00  0.00    -0.273 OA
BRANCH   8   7
ATOM      7  C   UNL     1      -2.225   4.405  25.163  0.00  0.00    +0.141 C 
BRANCH   7   6
ATOM      3  C   UNL     1      -0.165   3.243  25.889  0.00  0.00    +0.139 A 
ATOM      4  C   UNL     1      -0.875   3.109  26.285  0.00  0.00    +0.037 A 
ATOM      5  C   UNL     1      -1.562   3.496  26.044  0.00  0.00    +0.001 A 
ATOM      6  C   UNL     1      -1.538   4.017  25.405  0.00  0.00    -0.000 A 
ATOM     35  C   UNL     1      -0.827   4.152  25.008  0.00  0.00    +0.001 A 
ATOM     36  C   UNL     1      -0.141   3.764  25.251  0.00  0.00    +0.037 A 
BRANCH   3   2
ATOM      1  C   UNL     1       0.532   2.430  26.838  0.00  0.00    +0.252 C 
ATOM      2  O   UNL     1       0.523   2.856  26.131  0.00  0.00    -0.471 OA
ENDBRANCH   3   2
ENDBRANCH   7   6
ENDBRANCH   8   7
ENDBRANCH  11   9
ENDBRANCH  12  11
BRANCH  18  19
ATOM     19  C   UNL     1      -4.925   0.764  24.511  0.00  0.00    +0.119 C 
BRANCH  19  20
ATOM     20  N   UNL     1      -4.351   0.172  24.521  0.00  0.00    -0.205 NA
ATOM     21  C   UNL     1      -4.564  -0.611  24.370  0.00  0.00    +0.241 C 
ATOM     22  O   UNL     1      -5.351  -0.802  24.210  0.00  0.00    -0.273 OA
BRANCH  21  23
ATOM     23  C   UNL     1      -3.990  -1.204  24.379  0.00  0.00    +0.082 C 
ATOM     24  C   UNL     1      -3.294  -1.098  24.807  0.00  0.00    +0.031 C 
ATOM     25  C   UNL     1      -2.720  -1.692  24.816  0.00  0.00    +0.094 C 
ATOM     26  N   UNL     1      -2.845  -2.391  24.395  0.00  0.00    -0.280 N 
ATOM     27  C   UNL     1      -3.541  -2.496  23.967  0.00  0.00    +0.094 C 
ATOM     28  C   UNL     1      -4.114  -1.903  23.958  0.00  0.00    +0.031 C 
ATOM     29  C   UNL     1      -2.271  -2.984  24.404  0.00  0.00    +0.226 C 
ATOM     30  C   UNL     1      -1.574  -2.879  24.832  0.00  0.00    +0.095 C 
ATOM     31  O   UNL     1      -2.395  -3.683  23.983  0.00  0.00    -0.275 OA
ENDBRANCH  21  23
ENDBRANCH  19  20
ENDBRANCH  18  19
TORSDOF 9
ENDMDL
MODEL 9
REMARK VINA RESULT:      -7.3      2.317      3.943
REMARK  Name = 
REMARK  9 active torsions:
REMARK  status: ('A' for Active; 'I' for Inactive)
REMARK    1  A    between atoms: O_2  and  C_3
REMARK    2  A    between atoms: C_6  and  C_7
REMARK    3  A    between atoms: C_7  and  N_8
REMARK    4  A    between atoms: C_9  and  C_11
REMARK    5  A    between atoms: C_11  and  C_12
REMARK    6  A    between atoms: C_14  and  C_15
REMARK    7  A    between atoms: C_18  and  C_19
REMARK    8  A    between atoms: C_19  and  N_20
REMARK    9  A    between atoms: C_21  and  C_23
REMARK                            x       y       z     vdW  Elec       q    Type
REMARK                         _______ _______ _______ _____ _____    ______ ____
ROOT
ATOM     12  C   UNL     1      -0.264   1.084  23.978  0.00  0.00    +0.027 C 
ATOM     13  C   UNL     1      -0.023   1.349  24.720  0.00  0.00    +0.005 C 
ATOM     14  C   UNL     1      -0.392   2.001  25.066  0.00  0.00    +0.006 C 
ATOM     18  C   UNL     1      -1.002   2.388  24.668  0.00  0.00    +0.043 C 
ATOM     32  C   UNL     1      -1.244   2.123  23.925  0.00  0.00    -0.033 C 
ATOM     33  C   UNL     1      -0.875   1.471  23.579  0.00  0.00    -0.048 C 
ATOM     34  C   UNL     1      -1.116   1.207  22.837  0.00  0.00    +0.026 C 
ENDROOT
BRANCH  14  15
ATOM     15  C   UNL     1      -0.150   2.265  25.809  0.00  0.00    +0.000 C 
ATOM     16  C   UNL     1      -0.446   1.905  26.491  0.00  0.00    +0.000 C 
ATOM     17  C   UNL     1       0.386   2.888  25.872  0.00  0.00    +0.000 C 
ENDBRANCH  14  15
BRANCH  12  11
ATOM     11  C   UNL     1       0.105   0.432  23.632  0.00  0.00    +0.091 C 
BRANCH  11   9
ATOM      8  N   UNL     1      -0.654  -0.682  24.106  0.00  0.00    -0.201 NA
ATOM      9  C   UNL     1       0.073  -0.304  24.002  0.00  0.00    +0.242 C 
ATOM     10  O   UNL     1       0.766  -0.663  24.268  0.00  0.00    -0.273 OA
BRANCH   8   7
ATOM      7  C   UNL     1      -0.686  -1.419  24.477  0.00  0.00    +0.141 C 
BRANCH   7   6
ATOM      3  C   UNL     1      -2.859  -2.572  24.748  0.00  0.00    +0.139 A 
ATOM      4  C   UNL     1      -2.310  -2.850  24.200  0.00  0.00    +0.037 A 
ATOM      5  C   UNL     1      -1.586  -2.466  24.109  0.00  0.00    +0.001 A 
ATOM      6  C   UNL     1      -1.411  -1.803  24.567  0.00  0.00    -0.000 A 
ATOM     35  C   UNL     1      -1.959  -1.524  25.117  0.00  0.00    +0.001 A 
ATOM     36  C   UNL     1      -2.683  -1.909  25.207  0.00  0.00    +0.037 A 
BRANCH   3   2
ATOM      1  C   UNL     1      -4.152  -2.914  24.243  0.00  0.00    +0.252 C 
ATOM      2  O   UNL     1      -3.583  -2.956  24.840  0.00  0.00    -0.471 OA
ENDBRANCH   3   2
ENDBRANCH   7   6
ENDBRANCH   8   7
ENDBRANCH  11   9
ENDBRANCH  12  11
BRANCH  18  19
ATOM     19  C   UNL     1      -1.371   3.041  25.014  0.00  0.00    +0.119 C 
BRANCH  19  20
ATOM     20  N   UNL     1      -2.188   3.036  25.134  0.00  0.00    -0.205 NA
ATOM     21  C   UNL     1      -2.601   3.749  25.182  0.00  0.00    +0.241 C 
ATOM     22  O   UNL     1      -2.198   4.465  25.109  0.00  0.00    -0.273 OA
BRANCH  21  23
ATOM     23  C   UNL     1      -3.417   3.745  25.302  0.00  0.00    +0.082 C 
ATOM     24  C   UNL     1      -3.824   3.031  25.349  0.00  0.00    +0.031 C 
ATOM     25  C   UNL     1      -4.641   3.028  25.470  0.00  0.00    +0.094 C 
ATOM     26  N   UNL     1      -5.049   3.742  25.543  0.00  0.00    -0.280 N 
ATOM     27  C   UNL     1      -4.641   4.456  25.496  0.00  0.00    +0.094 C 
ATOM     28  C   UNL     1      -3.825   4.459  25.376  0.00  0.00    +0.031 C 
ATOM     29  C   UNL     1      -5.865   3.739  25.664  0.00  0.00    +0.226 C 
ATOM     30  C   UNL     1      -6.273   3.023  25.711  0.00  0.00    +0.095 C 
ATOM     31  O   UNL     1      -6.273   4.452  25.737  0.00  0.00    -0.275 OA
ENDBRANCH  21  23
ENDBRANCH  19  20
ENDBRANCH  18  19
TORSDOF 9
ENDMDL
