MODEL 1
REMARK VINA RESULT:      -8.8      0.000      0.000
REMARK  Name = 
REMARK  7 active torsions:
REMARK  status: ('A' for Active; 'I' for Inactive)
REMARK    1  A    between atoms: C_2  and  C_5
REMARK    2  A    between atoms: N_10  and  C_11
REMARK    3  A    between atoms: C_15  and  N_19
REMARK    4  A    between atoms: C_20  and  C_22
REMARK    5  A    between atoms: C_22  and  S_23
REMARK    6  A    between atoms: S_23  and  C_24
REMARK    7  A    between atoms: C_24  and  C_25
REMARK                            x       y       z     vdW  Elec       q    Type
REMARK                         _______ _______ _______ _____ _____    ______ ____
ROOT
ATOM     11  C   UNL     1      -1.837   1.696  24.525  0.00  0.00    +0.154 C 
ATOM     12  C   UNL     1      -1.507   2.363  24.167  0.00  0.00    +0.166 C 
ATOM     13  O   UNL     1      -0.840   2.123  23.746  0.00  0.00    -0.350 OA
ATOM     14  C   UNL     1      -0.757   1.308  23.844  0.00  0.00    +0.166 C 
ATOM     15  C   UNL     1      -0.292   0.656  23.644  0.00  0.00    +0.154 C 
ATOM     16  C   UNL     1      -0.622  -0.011  24.002  0.00  0.00    +0.166 C 
ATOM     17  O   UNL     1      -1.289   0.229  24.423  0.00  0.00    -0.350 OA
ATOM     18  C   UNL     1      -1.373   1.044  24.325  0.00  0.00    +0.166 C 
ENDROOT
BRANCH  11  10
ATOM      5  C   UNL     1      -4.576   2.391  24.948  0.00  0.00    +0.063 A 
ATOM      6  C   UNL     1      -4.596   2.763  24.212  0.00  0.00    +0.035 A 
ATOM      7  C   UNL     1      -3.921   2.775  23.739  0.00  0.00    +0.103 A 
ATOM      8  N   UNL     1      -3.226   2.415  24.000  0.00  0.00    -0.211 NA
ATOM      9  C   UNL     1      -3.206   2.044  24.737  0.00  0.00    +0.236 A 
ATOM     10  N   UNL     1      -2.512   1.684  24.999  0.00  0.00    -0.200 NA
ATOM     28  N   UNL     1      -3.882   2.031  25.211  0.00  0.00    -0.217 NA
BRANCH   5   2
ATOM      1  C   UNL     1      -5.926   2.367  25.897  0.00  0.00    +0.006 C 
ATOM      2  C   UNL     1      -5.252   2.379  25.423  0.00  0.00    +0.036 C 
ATOM      3  C   UNL     1      -5.455   1.642  25.113  0.00  0.00    +0.006 C 
ATOM      4  C   UNL     1      -5.047   3.116  25.732  0.00  0.00    +0.006 C 
ENDBRANCH   5   2
ENDBRANCH  11  10
BRANCH  15  19
ATOM     19  N   UNL     1       0.382   0.668  23.170  0.00  0.00    -0.201 NA
ATOM     20  C   UNL     1       0.868   0.002  23.126  0.00  0.00    +0.252 C 
ATOM     21  O   UNL     1       0.679  -0.675  23.557  0.00  0.00    -0.272 OA
BRANCH  20  22
ATOM     22  C   UNL     1       1.543   0.014  22.653  0.00  0.00    +0.145 C 
BRANCH  22  23
ATOM     23  S   UNL     1       2.281   0.163  22.989  0.00  0.00    -0.119 S 
BRANCH  23  24
ATOM     24  C   UNL     1       2.941   0.268  22.506  0.00  0.00    +0.172 C 
BRANCH  24  25
ATOM     25  C   UNL     1       3.655   0.523  22.832  0.00  0.00    +0.376 C 
ATOM     26  O   UNL     1       3.789   1.328  22.953  0.00  0.00    -0.245 OA
ATOM     27  O   UNL     1       4.235  -0.027  23.036  0.00  0.00    -0.245 OA
ENDBRANCH  24  25
ENDBRANCH  23  24
ENDBRANCH  22  23
ENDBRANCH  20  22
ENDBRANCH  15  19
TORSDOF 7
ENDMDL
MODEL 2
REMARK VINA RESULT:      -8.4      1.074      1.538
REMARK  Name = 
REMARK  7 active torsions:
REMARK  status: ('A' for Active; 'I' for Inactive)
REMARK    1  A    between atoms: C_2  and  C_5
REMARK    2  A    between atoms: N_10  and  C_11
REMARK    3  A    between atoms: C_15  and  N_19
REMARK    4  A    between atoms: C_20  and  C_22
REMARK    5  A    between atoms: C_22  and  S_23
REMARK    6  A    between atoms: S_23  and  C_24
REMARK    7  A    between atoms: C_24  and  C_25
REMARK                            x       y       z     vdW  Elec       q    Type
REMARK                         _______ _______ _______ _____ _____    ______ ____
ROOT
ATOM     11  C   UNL     1      -0.746   1.112  24.467  0.00  0.00    +0.154 C 
ATOM     12  C   UNL     1      -0.398   1.848  24.600  0.00  0.00    +0.166 C 
ATOM     13  O   UNL     1       0.352   1.841  24.257  0.00  0.00    -0.350 OA
ATOM     14  C   UNL     1       0.468   1.101  23.912  0.00  0.00    +0.166 C 
ATOM     15  C   UNL     1       1.004   0.639  23.487  0.00  0.00    +0.154 C 
ATOM     16  C   UNL     1       0.656  -0.098  23.354  0.00  0.00    +0.166 C 
ATOM     17  O   UNL     1      -0.094  -0.090  23.697  0.00  0.00    -0.350 OA
ATOM     18  C   UNL     1      -0.211   0.650  24.042  0.00  0.00    +0.166 C 
ENDROOT
BRANCH  11  10
ATOM      5  C   UNL     1      -3.578   1.495  24.479  0.00  0.00    +0.063 A 
ATOM      6  C   UNL     1      -3.491   2.153  23.989  0.00  0.00    +0.035 A 
ATOM      7  C   UNL     1      -2.740   2.386  23.741  0.00  0.00    +0.103 A 
ATOM      8  N   UNL     1      -2.075   1.961  23.983  0.00  0.00    -0.211 NA
ATOM      9  C   UNL     1      -2.162   1.303  24.473  0.00  0.00    +0.236 A 
ATOM     10  N   UNL     1      -1.498   0.879  24.715  0.00  0.00    -0.200 NA
ATOM     28  N   UNL     1      -2.914   1.070  24.722  0.00  0.00    -0.217 NA
BRANCH   5   2
ATOM      1  C   UNL     1      -5.080   1.028  24.976  0.00  0.00    +0.006 C 
ATOM      2  C   UNL     1      -4.330   1.261  24.728  0.00  0.00    +0.036 C 
ATOM      3  C   UNL     1      -4.445   2.001  25.074  0.00  0.00    +0.006 C 
ATOM      4  C   UNL     1      -4.214   0.521  24.381  0.00  0.00    +0.006 C 
ENDBRANCH   5   2
ENDBRANCH  11  10
BRANCH  15  19
ATOM     19  N   UNL     1       1.754   0.872  23.239  0.00  0.00    -0.201 NA
ATOM     20  C   UNL     1       2.257   0.327  22.876  0.00  0.00    +0.252 C 
ATOM     21  O   UNL     1       2.008  -0.451  22.763  0.00  0.00    -0.272 OA
BRANCH  20  22
ATOM     22  C   UNL     1       3.008   0.560  22.628  0.00  0.00    +0.145 C 
BRANCH  22  23
ATOM     23  S   UNL     1       3.677   0.307  23.040  0.00  0.00    -0.119 S 
BRANCH  23  24
ATOM     24  C   UNL     1       4.421   0.598  22.838  0.00  0.00    +0.172 C 
BRANCH  24  25
ATOM     25  C   UNL     1       5.080   0.400  23.293  0.00  0.00    +0.376 C 
ATOM     26  O   UNL     1       5.609  -0.173  23.026  0.00  0.00    -0.245 OA
ATOM     27  O   UNL     1       5.209   0.774  24.017  0.00  0.00    -0.245 OA
ENDBRANCH  24  25
ENDBRANCH  23  24
ENDBRANCH  22  23
ENDBRANCH  20  22
ENDBRANCH  15  19
TORSDOF 7
ENDMDL
MODEL 3
REMARK VINA RESULT:      -7.3      2.980      4.493
REMARK  Name = 
REMARK  7 active torsions:
REMARK  status: ('A' for Active; 'I' for Inactive)
REMARK    1  A    between atoms: C_2  and  C_5
REMARK    2  A    between atoms: N_10  and  C_11
REMARK    3  A    between atoms: C_15  and  N_19
REMARK    4  A    between atoms: C_20  and  C_22
REMARK    5  A    between atoms: C_22  and  S_23
REMARK    6  A    between atoms: S_23  and  C_24
REMARK    7  A    between atoms: C_24  and  C_25
REMARK                            x       y       z     vdW  Elec       q    Type
REMARK                         _______ _______ _______ _____ _____    ______ ____
ROOT
ATOM     11  C   UNL     1      -1.354  -0.282  25.028  0.00  0.00    +0.154 C 
ATOM     12  C   UNL     1      -1.460   0.072  25.764  0.00  0.00    +0.166 C 
ATOM     13  O   UNL     1      -1.123   0.825  25.736  0.00  0.00    -0.350 OA
ATOM     14  C   UNL     1      -0.809   0.934  24.981  0.00  0.00    +0.166 C 
ATOM     15  C   UNL     1      -0.407   1.468  24.497  0.00  0.00    +0.154 C 
ATOM     16  C   UNL     1      -0.301   1.113  23.760  0.00  0.00    +0.166 C 
ATOM     17  O   UNL     1      -0.637   0.361  23.789  0.00  0.00    -0.350 OA
ATOM     18  C   UNL     1      -0.952   0.250  24.543  0.00  0.00    +0.166 C 
ENDROOT
BRANCH  11  10
ATOM      5  C   UNL     1      -3.471  -2.134  24.518  0.00  0.00    +0.063 A 
ATOM      6  C   UNL     1      -4.025  -1.548  24.693  0.00  0.00    +0.035 A 
ATOM      7  C   UNL     1      -3.773  -0.794  24.908  0.00  0.00    +0.103 A 
ATOM      8  N   UNL     1      -2.966  -0.623  24.948  0.00  0.00    -0.211 NA
ATOM      9  C   UNL     1      -2.412  -1.208  24.773  0.00  0.00    +0.236 A 
ATOM     10  N   UNL     1      -1.606  -1.039  24.812  0.00  0.00    -0.200 NA
ATOM     28  N   UNL     1      -2.664  -1.964  24.557  0.00  0.00    -0.217 NA
BRANCH   5   2
ATOM      1  C   UNL     1      -3.974  -3.645  24.087  0.00  0.00    +0.006 C 
ATOM      2  C   UNL     1      -3.723  -2.890  24.302  0.00  0.00    +0.036 C 
ATOM      3  C   UNL     1      -4.106  -2.574  23.644  0.00  0.00    +0.006 C 
ATOM      4  C   UNL     1      -3.338  -3.205  24.961  0.00  0.00    +0.006 C 
ENDBRANCH   5   2
ENDBRANCH  11  10
BRANCH  15  19
ATOM     19  N   UNL     1      -0.155   2.223  24.712  0.00  0.00    -0.201 NA
ATOM     20  C   UNL     1      -0.440   2.884  24.309  0.00  0.00    +0.252 C 
ATOM     21  O   UNL     1      -0.977   2.789  23.690  0.00  0.00    -0.272 OA
BRANCH  20  22
ATOM     22  C   UNL     1      -0.188   3.639  24.524  0.00  0.00    +0.145 C 
BRANCH  22  23
ATOM     23  S   UNL     1      -0.714   4.275  24.494  0.00  0.00    -0.119 S 
BRANCH  23  24
ATOM     24  C   UNL     1      -0.731   4.826  25.106  0.00  0.00    +0.172 C 
BRANCH  24  25
ATOM     25  C   UNL     1      -1.360   5.357  25.168  0.00  0.00    +0.376 C 
ATOM     26  O   UNL     1      -1.314   6.096  24.805  0.00  0.00    -0.245 OA
ATOM     27  O   UNL     1      -2.035   5.147  25.592  0.00  0.00    -0.245 OA
ENDBRANCH  24  25
ENDBRANCH  23  24
ENDBRANCH  22  23
ENDBRANCH  20  22
ENDBRANCH  15  19
TORSDOF 7
ENDMDL
MODEL 4
REMARK VINA RESULT:      -7.2      3.386      4.997
REMARK  Name = 
REMARK  7 active torsions:
REMARK  status: ('A' for Active; 'I' for Inactive)
REMARK    1  A    between atoms: C_2  and  C_5
REMARK    2  A    between atoms: N_10  and  C_11
REMARK    3  A    between atoms: C_15  and  N_19
REMARK    4  A    between atoms: C_20  and  C_22
REMARK    5  A    between atoms: C_22  and  S_23
REMARK    6  A    between atoms: S_23  and  C_24
REMARK    7  A    between atoms: C_24  and  C_25
REMARK                            x       y       z     vdW  Elec       q    Type
REMARK                         _______ _______ _______ _____ _____    ______ ____
ROOT
ATOM     11  C   UNL     1      -3.752   0.767  24.013  0.00  0.00    +0.154 C 
ATOM     12  C   UNL     1      -3.145   1.030  23.521  0.00  0.00    +0.166 C 
ATOM     13  O   UNL     1      -3.009   1.827  23.688  0.00  0.00    -0.350 OA
ATOM     14  C   UNL     1      -3.532   2.055  24.283  0.00  0.00    +0.166 C 
ATOM     15  C   UNL     1      -3.771   2.689  24.754  0.00  0.00    +0.154 C 
ATOM     16  C   UNL     1      -4.379   2.425  25.247  0.00  0.00    +0.166 C 
ATOM     17  O   UNL     1      -4.515   1.629  25.079  0.00  0.00    -0.350 OA
ATOM     18  C   UNL     1      -3.992   1.400  24.484  0.00  0.00    +0.166 C 
ENDROOT
BRANCH  11  10
ATOM      5  C   UNL     1      -3.403  -2.044  24.394  0.00  0.00    +0.063 A 
ATOM      6  C   UNL     1      -2.601  -1.923  24.549  0.00  0.00    +0.035 A 
ATOM      7  C   UNL     1      -2.289  -1.160  24.531  0.00  0.00    +0.103 A 
ATOM      8  N   UNL     1      -2.776  -0.517  24.358  0.00  0.00    -0.211 NA
ATOM      9  C   UNL     1      -3.577  -0.638  24.203  0.00  0.00    +0.236 A 
ATOM     10  N   UNL     1      -4.066   0.004  24.031  0.00  0.00    -0.200 NA
ATOM     28  N   UNL     1      -3.891  -1.402  24.221  0.00  0.00    -0.217 NA
BRANCH   5   2
ATOM      1  C   UNL     1      -4.029  -3.570  24.430  0.00  0.00    +0.006 C 
ATOM      2  C   UNL     1      -3.716  -2.807  24.412  0.00  0.00    +0.036 C 
ATOM      3  C   UNL     1      -4.047  -2.688  23.666  0.00  0.00    +0.006 C 
ATOM      4  C   UNL     1      -3.385  -2.925  25.159  0.00  0.00    +0.006 C 
ENDBRANCH   5   2
ENDBRANCH  11  10
BRANCH  15  19
ATOM     19  N   UNL     1      -3.458   3.451  24.737  0.00  0.00    -0.201 NA
ATOM     20  C   UNL     1      -3.123   3.776  25.417  0.00  0.00    +0.252 C 
ATOM     21  O   UNL     1      -3.100   3.337  26.115  0.00  0.00    -0.272 OA
BRANCH  20  22
ATOM     22  C   UNL     1      -2.810   4.539  25.400  0.00  0.00    +0.145 C 
BRANCH  22  23
ATOM     23  S   UNL     1      -1.996   4.653  25.472  0.00  0.00    -0.119 S 
BRANCH  23  24
ATOM     24  C   UNL     1      -1.637   5.305  25.116  0.00  0.00    +0.172 C 
BRANCH  24  25
ATOM     25  C   UNL     1      -0.838   5.278  24.914  0.00  0.00    +0.376 C 
ATOM     26  O   UNL     1      -0.415   4.575  24.996  0.00  0.00    -0.245 OA
ATOM     27  O   UNL     1      -0.462   5.954  24.629  0.00  0.00    -0.245 OA
ENDBRANCH  24  25
ENDBRANCH  23  24
ENDBRANCH  22  23
ENDBRANCH  20  22
ENDBRANCH  15  19
TORSDOF 7
ENDMDL
MODEL 5
REMARK VINA RESULT:      -7.1      2.118      6.621
REMARK  Name = 
REMARK  7 active torsions:
REMARK  status: ('A' for Active; 'I' for Inactive)
REMARK    1  A    between atoms: C_2  and  C_5
REMARK    2  A    between atoms: N_10  and  C_11
REMARK    3  A    between atoms: C_15  and  N_19
REMARK    4  A    between atoms: C_20  and  C_22
REMARK    5  A    between atoms: C_22  and  S_23
REMARK    6  A    between atoms: S_23  and  C_24
REMARK    7  A    between atoms: C_24  and  C_25
REMARK                            x       y       z     vdW  Elec       q    Type
REMARK                         _______ _______ _______ _____ _____    ______ ____
ROOT
ATOM     11  C   UNL     1       0.229   0.979  23.930  0.00  0.00    +0.154 C 
ATOM     12  C   UNL     1      -0.166   0.257  23.890  0.00  0.00    +0.166 C 
ATOM     13  O   UNL     1      -0.977   0.409  23.882  0.00  0.00    -0.350 OA
ATOM     14  C   UNL     1      -1.082   1.227  23.916  0.00  0.00    +0.166 C 
ATOM     15  C   UNL     1      -1.649   1.826  23.931  0.00  0.00    +0.154 C 
ATOM     16  C   UNL     1      -1.254   2.550  23.971  0.00  0.00    +0.166 C 
ATOM     17  O   UNL     1      -0.443   2.396  23.979  0.00  0.00    -0.350 OA
ATOM     18  C   UNL     1      -0.337   1.579  23.945  0.00  0.00    +0.166 C 
ENDROOT
BRANCH  11  10
ATOM      5  C   UNL     1       2.822   0.426  22.863  0.00  0.00    +0.063 A 
ATOM      6  C   UNL     1       2.482  -0.061  22.290  0.00  0.00    +0.035 A 
ATOM      7  C   UNL     1       1.665  -0.166  22.270  0.00  0.00    +0.103 A 
ATOM      8  N   UNL     1       1.186   0.216  22.823  0.00  0.00    -0.211 NA
ATOM      9  C   UNL     1       1.525   0.703  23.396  0.00  0.00    +0.236 A 
ATOM     10  N   UNL     1       1.047   1.085  23.950  0.00  0.00    -0.200 NA
ATOM     28  N   UNL     1       2.344   0.808  23.416  0.00  0.00    -0.217 NA
BRANCH   5   2
ATOM      1  C   UNL     1       4.458   0.636  22.903  0.00  0.00    +0.006 C 
ATOM      2  C   UNL     1       3.641   0.531  22.883  0.00  0.00    +0.036 C 
ATOM      3  C   UNL     1       3.547   1.304  22.612  0.00  0.00    +0.006 C 
ATOM      4  C   UNL     1       3.733  -0.243  23.155  0.00  0.00    +0.006 C 
ENDBRANCH   5   2
ENDBRANCH  11  10
BRANCH  15  19
ATOM     19  N   UNL     1      -2.466   1.721  23.911  0.00  0.00    -0.201 NA
ATOM     20  C   UNL     1      -2.964   2.288  24.245  0.00  0.00    +0.252 C 
ATOM     21  O   UNL     1      -2.643   2.961  24.600  0.00  0.00    -0.272 OA
BRANCH  20  22
ATOM     22  C   UNL     1      -3.782   2.184  24.225  0.00  0.00    +0.145 C 
BRANCH  22  23
ATOM     23  S   UNL     1      -4.251   2.473  24.840  0.00  0.00    -0.119 S 
BRANCH  23  24
ATOM     24  C   UNL     1      -5.071   2.402  24.802  0.00  0.00    +0.172 C 
BRANCH  24  25
ATOM     25  C   UNL     1      -5.534   2.604  25.454  0.00  0.00    +0.376 C 
ATOM     26  O   UNL     1      -5.695   3.396  25.616  0.00  0.00    -0.245 OA
ATOM     27  O   UNL     1      -5.837   2.013  25.944  0.00  0.00    -0.245 OA
ENDBRANCH  24  25
ENDBRANCH  23  24
ENDBRANCH  22  23
ENDBRANCH  20  22
ENDBRANCH  15  19
TORSDOF 7
ENDMDL
