MODEL 1
REMARK VINA RESULT:     -17.3      0.000      0.000
REMARK  Name = 
REMARK  4 active torsions:
REMARK  status: ('A' for Active; 'I' for Inactive)
REMARK    1  A    between atoms: C_5  and  N_6
REMARK    2  A    between atoms: C_18  and  N_19
REMARK    3  A    between atoms: N_19  and  S_20
REMARK    4  A    between atoms: S_20  and  C_23
REMARK                            x       y       z     vdW  Elec       q    Type
REMARK                         _______ _______ _______ _____ _____    ______ ____
ROOT
ATOM      6  N   UNL     1      -3.284   2.136  24.692  0.00  0.00    -0.162 NA
ATOM      7  C   UNL     1      -3.315   2.957  24.777  0.00  0.00    +0.327 C 
ATOM      8  O   UNL     1      -2.656   3.416  24.589  0.00  0.00    -0.250 OA
ATOM      9  N   UNL     1      -4.005   3.318  25.049  0.00  0.00    -0.262 N 
ATOM     10  C   UNL     1      -4.524   3.929  25.285  0.00  0.00    +0.097 C 
ATOM     11  C   UNL     1      -5.320   3.391  25.513  0.00  0.00    +0.043 C 
ATOM     12  C   UNL     1      -6.046   3.098  25.739  0.00  0.00    +0.011 C 
ATOM     13  C   UNL     1      -5.435   2.845  25.503  0.00  0.00    +0.058 C 
ATOM     14  C   UNL     1      -4.673   3.379  25.287  0.00  0.00    +0.101 C 
ATOM     15  C   UNL     1      -5.017   2.056  25.287  0.00  0.00    +0.041 A 
ATOM     16  C   UNL     1      -5.156   1.243  25.262  0.00  0.00    +0.014 A 
ATOM     17  C   UNL     1      -4.561   0.731  25.009  0.00  0.00    +0.024 A 
ATOM     18  C   UNL     1      -3.827   1.031  24.781  0.00  0.00    +0.147 A 
ATOM     30  C   UNL     1      -3.688   1.844  24.806  0.00  0.00    +0.277 A 
ATOM     31  O   UNL     1      -2.940   1.637  24.527  0.00  0.00    -0.266 OA
ATOM     32  N   UNL     1      -4.283   2.356  25.059  0.00  0.00    -0.298 N 
ATOM     33  C   UNL     1      -4.875   2.571  25.284  0.00  0.00    +0.110 C 
ENDROOT
BRANCH   6   5
ATOM      1  F   UNL     1      -0.524   0.694  23.600  0.00  0.00    -0.204 F 
ATOM      2  C   UNL     1      -1.214   1.055  23.873  0.00  0.00    +0.140 A 
ATOM      3  C   UNL     1      -1.791   1.299  23.337  0.00  0.00    +0.031 A 
ATOM      4  C   UNL     1      -2.481   1.660  23.610  0.00  0.00    +0.019 A 
ATOM      5  C   UNL     1      -2.594   1.776  24.420  0.00  0.00    +0.075 A 
ATOM     34  C   UNL     1      -2.017   1.531  24.955  0.00  0.00    +0.019 A 
ATOM     35  C   UNL     1      -1.327   1.170  24.683  0.00  0.00    +0.031 A 
ENDBRANCH   6   5
BRANCH  18  19
ATOM     19  N   UNL     1      -3.233   0.518  24.528  0.00  0.00    -0.092 NA
BRANCH  19  20
ATOM     20  S   UNL     1      -3.369  -0.295  24.512  0.00  0.00    +0.093 S 
ATOM     21  O   UNL     1      -3.627  -0.236  23.731  0.00  0.00    -0.148 OA
ATOM     22  O   UNL     1      -3.111  -0.354  25.293  0.00  0.00    -0.148 OA
BRANCH  20  23
ATOM     23  C   UNL     1      -3.505  -1.109  24.496  0.00  0.00    +0.129 A 
ATOM     24  C   UNL     1      -3.997  -1.435  23.919  0.00  0.00    +0.050 A 
ATOM     25  C   UNL     1      -4.132  -2.248  23.904  0.00  0.00    +0.141 A 
ATOM     26  F   UNL     1      -4.624  -2.573  23.327  0.00  0.00    -0.204 F 
ATOM     27  C   UNL     1      -3.776  -2.736  24.466  0.00  0.00    +0.030 A 
ATOM     28  C   UNL     1      -3.284  -2.411  25.043  0.00  0.00    +0.004 A 
ATOM     29  C   UNL     1      -3.149  -1.597  25.058  0.00  0.00    +0.020 A 
ENDBRANCH  20  23
ENDBRANCH  19  20
ENDBRANCH  18  19
TORSDOF 4
ENDMDL
MODEL 2
REMARK VINA RESULT:     -17.2      1.488      2.814
REMARK  Name = 
REMARK  4 active torsions:
REMARK  status: ('A' for Active; 'I' for Inactive)
REMARK    1  A    between atoms: C_5  and  N_6
REMARK    2  A    between atoms: C_18  and  N_19
REMARK    3  A    between atoms: N_19  and  S_20
REMARK    4  A    between atoms: S_20  and  C_23
REMARK                            x       y       z     vdW  Elec       q    Type
REMARK                         _______ _______ _______ _____ _____    ______ ____
ROOT
ATOM      6  N   UNL     1      -3.630   2.756  25.158  0.00  0.00    -0.162 NA
ATOM      7  C   UNL     1      -3.477   3.554  25.299  0.00  0.00    +0.327 C 
ATOM      8  O   UNL     1      -4.101   4.087  25.375  0.00  0.00    -0.250 OA
ATOM      9  N   UNL     1      -2.698   3.820  25.365  0.00  0.00    -0.262 N 
ATOM     10  C   UNL     1      -2.062   4.351  25.473  0.00  0.00    +0.097 C 
ATOM     11  C   UNL     1      -1.305   3.723  25.384  0.00  0.00    +0.043 C 
ATOM     12  C   UNL     1      -0.585   3.344  25.337  0.00  0.00    +0.011 C 
ATOM     13  C   UNL     1      -1.265   3.174  25.291  0.00  0.00    +0.058 C 
ATOM     14  C   UNL     1      -1.986   3.794  25.379  0.00  0.00    +0.101 C 
ATOM     15  C   UNL     1      -1.821   2.456  25.153  0.00  0.00    +0.041 A 
ATOM     16  C   UNL     1      -1.795   1.643  25.014  0.00  0.00    +0.014 A 
ATOM     17  C   UNL     1      -2.496   1.218  24.923  0.00  0.00    +0.024 A 
ATOM     18  C   UNL     1      -3.223   1.605  24.970  0.00  0.00    +0.147 A 
ATOM     30  C   UNL     1      -3.249   2.418  25.110  0.00  0.00    +0.277 A 
ATOM     31  O   UNL     1      -4.065   2.311  25.070  0.00  0.00    -0.266 OA
ATOM     32  N   UNL     1      -2.548   2.843  25.201  0.00  0.00    -0.298 N 
ATOM     33  C   UNL     1      -1.893   2.978  25.241  0.00  0.00    +0.110 C 
ENDROOT
BRANCH   6   5
ATOM      1  F   UNL     1      -6.745   1.697  24.898  0.00  0.00    -0.204 F 
ATOM      2  C   UNL     1      -5.966   1.962  24.963  0.00  0.00    +0.140 A 
ATOM      3  C   UNL     1      -5.603   1.996  25.702  0.00  0.00    +0.031 A 
ATOM      4  C   UNL     1      -4.824   2.261  25.767  0.00  0.00    +0.019 A 
ATOM      5  C   UNL     1      -4.408   2.491  25.092  0.00  0.00    +0.075 A 
ATOM     34  C   UNL     1      -4.772   2.456  24.353  0.00  0.00    +0.019 A 
ATOM     35  C   UNL     1      -5.551   2.192  24.288  0.00  0.00    +0.031 A 
ENDBRANCH   6   5
BRANCH  18  19
ATOM     19  N   UNL     1      -3.923   1.180  24.879  0.00  0.00    -0.092 NA
BRANCH  19  20
ATOM     20  S   UNL     1      -3.898   0.364  24.761  0.00  0.00    +0.093 S 
ATOM     21  O   UNL     1      -3.828   0.484  23.948  0.00  0.00    -0.148 OA
ATOM     22  O   UNL     1      -3.967   0.244  25.574  0.00  0.00    -0.148 OA
BRANCH  20  23
ATOM     23  C   UNL     1      -3.872  -0.453  24.642  0.00  0.00    +0.129 A 
ATOM     24  C   UNL     1      -3.702  -0.956  25.274  0.00  0.00    +0.050 A 
ATOM     25  C   UNL     1      -3.677  -1.772  25.155  0.00  0.00    +0.141 A 
ATOM     26  F   UNL     1      -3.507  -2.275  25.786  0.00  0.00    -0.204 F 
ATOM     27  C   UNL     1      -3.822  -2.084  24.405  0.00  0.00    +0.030 A 
ATOM     28  C   UNL     1      -3.992  -1.581  23.774  0.00  0.00    +0.004 A 
ATOM     29  C   UNL     1      -4.017  -0.765  23.893  0.00  0.00    +0.020 A 
ENDBRANCH  20  23
ENDBRANCH  19  20
ENDBRANCH  18  19
TORSDOF 4
ENDMDL
MODEL 3
REMARK VINA RESULT:     -16.6      1.773      4.146
REMARK  Name = 
REMARK  4 active torsions:
REMARK  status: ('A' for Active; 'I' for Inactive)
REMARK    1  A    between atoms: C_5  and  N_6
REMARK    2  A    between atoms: C_18  and  N_19
REMARK    3  A    between atoms: N_19  and  S_20
REMARK    4  A    between atoms: S_20  and  C_23
REMARK                            x       y       z     vdW  Elec       q    Type
REMARK                         _______ _______ _______ _____ _____    ______ ____
ROOT
ATOM      6  N   UNL     1      -1.890  -0.535  24.683  0.00  0.00    -0.162 NA
ATOM      7  C   UNL     1      -1.593  -1.304  24.732  0.00  0.00    +0.327 C 
ATOM      8  O   UNL     1      -0.794  -1.428  24.890  0.00  0.00    -0.250 OA
ATOM      9  N   UNL     1      -2.097  -1.948  24.622  0.00  0.00    -0.262 N 
ATOM     10  C   UNL     1      -2.341  -2.745  24.562  0.00  0.00    +0.097 C 
ATOM     11  C   UNL     1      -3.301  -2.610  24.371  0.00  0.00    +0.043 C 
ATOM     12  C   UNL     1      -4.098  -2.669  24.210  0.00  0.00    +0.011 C 
ATOM     13  C   UNL     1      -3.625  -2.160  24.312  0.00  0.00    +0.058 C 
ATOM     14  C   UNL     1      -2.700  -2.307  24.496  0.00  0.00    +0.101 C 
ATOM     15  C   UNL     1      -3.546  -1.245  24.341  0.00  0.00    +0.041 A 
ATOM     16  C   UNL     1      -3.999  -0.560  24.259  0.00  0.00    +0.014 A 
ATOM     17  C   UNL     1      -3.644   0.180  24.340  0.00  0.00    +0.024 A 
ATOM     18  C   UNL     1      -2.837   0.236  24.503  0.00  0.00    +0.147 A 
ATOM     30  C   UNL     1      -2.385  -0.449  24.585  0.00  0.00    +0.277 A 
ATOM     31  O   UNL     1      -1.766   0.080  24.716  0.00  0.00    -0.266 OA
ATOM     32  N   UNL     1      -2.739  -1.189  24.503  0.00  0.00    -0.298 N 
ATOM     33  C   UNL     1      -3.209  -1.655  24.403  0.00  0.00    +0.110 C 
ENDROOT
BRANCH   6   5
ATOM      1  F   UNL     1       0.126   2.041  25.120  0.00  0.00    -0.204 F 
ATOM      2  C   UNL     1      -0.378   1.397  25.011  0.00  0.00    +0.140 A 
ATOM      3  C   UNL     1      -0.485   1.081  24.257  0.00  0.00    +0.031 A 
ATOM      4  C   UNL     1      -0.990   0.437  24.147  0.00  0.00    +0.019 A 
ATOM      5  C   UNL     1      -1.386   0.109  24.793  0.00  0.00    +0.075 A 
ATOM     34  C   UNL     1      -1.279   0.425  25.546  0.00  0.00    +0.019 A 
ATOM     35  C   UNL     1      -0.775   1.069  25.656  0.00  0.00    +0.031 A 
ENDBRANCH   6   5
BRANCH  18  19
ATOM     19  N   UNL     1      -2.484   0.977  24.584  0.00  0.00    -0.092 NA
BRANCH  19  20
ATOM     20  S   UNL     1      -2.937   1.661  24.506  0.00  0.00    +0.093 S 
ATOM     21  O   UNL     1      -3.096   1.648  25.316  0.00  0.00    -0.148 OA
ATOM     22  O   UNL     1      -2.779   1.674  23.697  0.00  0.00    -0.148 OA
BRANCH  20  23
ATOM     23  C   UNL     1      -3.391   2.347  24.428  0.00  0.00    +0.129 A 
ATOM     24  C   UNL     1      -3.751   2.681  25.091  0.00  0.00    +0.050 A 
ATOM     25  C   UNL     1      -4.204   3.366  25.012  0.00  0.00    +0.141 A 
ATOM     26  F   UNL     1      -4.565   3.700  25.674  0.00  0.00    -0.204 F 
ATOM     27  C   UNL     1      -4.297   3.716  24.270  0.00  0.00    +0.030 A 
ATOM     28  C   UNL     1      -3.937   3.381  23.608  0.00  0.00    +0.004 A 
ATOM     29  C   UNL     1      -3.484   2.697  23.687  0.00  0.00    +0.020 A 
ENDBRANCH  20  23
ENDBRANCH  19  20
ENDBRANCH  18  19
TORSDOF 4
ENDMDL
MODEL 4
REMARK VINA RESULT:     -15.7      1.824      2.388
REMARK  Name = 
REMARK  4 active torsions:
REMARK  status: ('A' for Active; 'I' for Inactive)
REMARK    1  A    between atoms: C_5  and  N_6
REMARK    2  A    between atoms: C_18  and  N_19
REMARK    3  A    between atoms: N_19  and  S_20
REMARK    4  A    between atoms: S_20  and  C_23
REMARK                            x       y       z     vdW  Elec       q    Type
REMARK                         _______ _______ _______ _____ _____    ______ ____
ROOT
ATOM      6  N   UNL     1      -3.294   2.916  25.238  0.00  0.00    -0.162 NA
ATOM      7  C   UNL     1      -3.904   3.444  25.411  0.00  0.00    +0.327 C 
ATOM      8  O   UNL     1      -3.731   4.224  25.613  0.00  0.00    -0.250 OA
ATOM      9  N   UNL     1      -4.689   3.191  25.380  0.00  0.00    -0.262 N 
ATOM     10  C   UNL     1      -5.523   3.228  25.430  0.00  0.00    +0.097 C 
ATOM     11  C   UNL     1      -5.745   2.295  25.189  0.00  0.00    +0.043 C 
ATOM     12  C   UNL     1      -6.088   1.578  25.012  0.00  0.00    +0.011 C 
ATOM     13  C   UNL     1      -5.441   1.848  25.053  0.00  0.00    +0.058 C 
ATOM     14  C   UNL     1      -5.243   2.752  25.288  0.00  0.00    +0.101 C 
ATOM     15  C   UNL     1      -4.557   1.619  24.949  0.00  0.00    +0.041 A 
ATOM     16  C   UNL     1      -4.082   0.975  24.752  0.00  0.00    +0.014 A 
ATOM     17  C   UNL     1      -3.261   1.058  24.735  0.00  0.00    +0.024 A 
ATOM     18  C   UNL     1      -2.916   1.786  24.915  0.00  0.00    +0.147 A 
ATOM     30  C   UNL     1      -3.392   2.430  25.112  0.00  0.00    +0.277 A 
ATOM     31  O   UNL     1      -2.674   2.828  25.185  0.00  0.00    -0.266 OA
ATOM     32  N   UNL     1      -4.213   2.347  25.129  0.00  0.00    -0.298 N 
ATOM     33  C   UNL     1      -4.818   2.066  25.082  0.00  0.00    +0.110 C 
ENDROOT
BRANCH   6   5
ATOM      1  F   UNL     1      -0.155   3.930  25.363  0.00  0.00    -0.204 F 
ATOM      2  C   UNL     1      -0.940   3.677  25.332  0.00  0.00    +0.140 A 
ATOM      3  C   UNL     1      -1.301   3.369  26.007  0.00  0.00    +0.031 A 
ATOM      4  C   UNL     1      -2.086   3.115  25.975  0.00  0.00    +0.019 A 
ATOM      5  C   UNL     1      -2.510   3.170  25.269  0.00  0.00    +0.075 A 
ATOM     34  C   UNL     1      -2.148   3.478  24.595  0.00  0.00    +0.019 A 
ATOM     35  C   UNL     1      -1.364   3.731  24.626  0.00  0.00    +0.031 A 
ENDBRANCH   6   5
BRANCH  18  19
ATOM     19  N   UNL     1      -2.096   1.869  24.897  0.00  0.00    -0.092 NA
BRANCH  19  20
ATOM     20  S   UNL     1      -1.619   1.217  24.732  0.00  0.00    +0.093 S 
ATOM     21  O   UNL     1      -1.666   1.386  23.927  0.00  0.00    -0.148 OA
ATOM     22  O   UNL     1      -1.571   1.048  25.538  0.00  0.00    -0.148 OA
BRANCH  20  23
ATOM     23  C   UNL     1      -1.141   0.564  24.568  0.00  0.00    +0.129 A 
ATOM     24  C   UNL     1      -1.105  -0.066  25.100  0.00  0.00    +0.050 A 
ATOM     25  C   UNL     1      -0.627  -0.718  24.935  0.00  0.00    +0.141 A 
ATOM     26  F   UNL     1      -0.592  -1.347  25.467  0.00  0.00    -0.204 F 
ATOM     27  C   UNL     1      -0.186  -0.740  24.239  0.00  0.00    +0.030 A 
ATOM     28  C   UNL     1      -0.222  -0.111  23.707  0.00  0.00    +0.004 A 
ATOM     29  C   UNL     1      -0.699   0.541  23.871  0.00  0.00    +0.020 A 
ENDBRANCH  20  23
ENDBRANCH  19  20
ENDBRANCH  18  19
TORSDOF 4
ENDMDL
