MODEL 1
REMARK VINA RESULT:     -12.3      0.000      0.000
REMARK  Name = 
REMARK  5 active torsions:
REMARK  status: ('A' for Active; 'I' for Inactive)
REMARK    1  A    between atoms: C_1  and  N_2
REMARK    2  A    between atoms: C_1  and  C_24
REMARK    3  A    between atoms: C_6  and  C_7
REMARK    4  A    between atoms: C_9  and  C_12
REMARK    5  A    between atoms: C_16  and  N_18
REMARK                            x       y       z     vdW  Elec       q    Type
REMARK                         _______ _______ _______ _____ _____    ______ ____
ROOT
ATOM      7  C   UNL     1      -4.456   2.611  24.788  0.00  0.00    +0.251 A 
ATOM      8  N   UNL     1      -3.729   2.751  25.152  0.00  0.00    -0.190 NA
ATOM      9  C   UNL     1      -3.373   3.390  24.772  0.00  0.00    +0.203 A 
ATOM     10  N   UNL     1      -3.879   3.645  24.173  0.00  0.00    -0.056 NA
ATOM     11  O   UNL     1      -4.549   3.163  24.183  0.00  0.00    -0.336 OA
ENDROOT
BRANCH   9  12
ATOM     12  C   UNL     1      -2.638   3.717  24.958  0.00  0.00    +0.043 A 
ATOM     13  C   UNL     1      -2.566   4.531  25.069  0.00  0.00    +0.024 A 
ATOM     14  C   UNL     1      -1.831   4.858  25.255  0.00  0.00    +0.100 A 
ATOM     15  N   UNL     1      -1.169   4.371  25.330  0.00  0.00    -0.229 NA
ATOM     16  C   UNL     1      -1.242   3.557  25.218  0.00  0.00    +0.132 A 
ATOM     17  C   UNL     1      -1.977   3.230  25.032  0.00  0.00    +0.037 A 
BRANCH  16  18
ATOM     18  N   UNL     1      -0.580   3.069  25.293  0.00  0.00    -0.288 N 
ATOM     19  C   UNL     1      -0.289   2.882  26.041  0.00  0.00    +0.124 C 
ATOM     20  C   UNL     1       0.373   2.395  26.115  0.00  0.00    +0.164 C 
ATOM     21  O   UNL     1       0.742   2.095  25.442  0.00  0.00    -0.350 OA
ATOM     22  C   UNL     1       0.450   2.282  24.693  0.00  0.00    +0.164 C 
ATOM     23  C   UNL     1      -0.211   2.770  24.619  0.00  0.00    +0.124 C 
ENDBRANCH  16  18
ENDBRANCH   9  12
BRANCH   7   6
ATOM      2  N   UNL     1      -4.890   1.210  24.891  0.00  0.00    -0.263 NA
ATOM      3  C   UNL     1      -5.564   0.827  25.172  0.00  0.00    +0.073 C 
ATOM      4  C   UNL     1      -6.088   1.403  25.448  0.00  0.00    +0.019 C 
ATOM      5  C   UNL     1      -5.736   2.141  25.338  0.00  0.00    +0.027 C 
ATOM      6  C   UNL     1      -4.996   2.022  24.994  0.00  0.00    +0.138 C 
BRANCH   2   1
ATOM      1  C   UNL     1      -4.225   0.845  24.565  0.00  0.00    +0.099 C 
BRANCH   1  24
ATOM     24  C   UNL     1      -4.129   0.029  24.632  0.00  0.00    -0.006 A 
ATOM     25  C   UNL     1      -4.362  -0.466  24.015  0.00  0.00    -0.003 A 
ATOM     26  C   UNL     1      -4.265  -1.283  24.082  0.00  0.00    -0.000 A 
ATOM     27  C   UNL     1      -3.936  -1.604  24.766  0.00  0.00    -0.000 A 
ATOM     28  C   UNL     1      -3.702  -1.109  25.384  0.00  0.00    -0.000 A 
ATOM     29  C   UNL     1      -3.799  -0.293  25.317  0.00  0.00    -0.003 A 
ENDBRANCH   1  24
ENDBRANCH   2   1
ENDBRANCH   7   6
TORSDOF 5
ENDMDL
MODEL 2
REMARK VINA RESULT:     -12.0      1.799      3.628
REMARK  Name = 
REMARK  5 active torsions:
REMARK  status: ('A' for Active; 'I' for Inactive)
REMARK    1  A    between atoms: C_1  and  N_2
REMARK    2  A    between atoms: C_1  and  C_24
REMARK    3  A    between atoms: C_6  and  C_7
REMARK    4  A    between atoms: C_9  and  C_12
REMARK    5  A    between atoms: C_16  and  N_18
REMARK                            x       y       z     vdW  Elec       q    Type
REMARK                         _______ _______ _______ _____ _____    ______ ____
ROOT
ATOM      7  C   UNL     1      -0.932   0.416  25.112  0.00  0.00    +0.251 A 
ATOM      8  N   UNL     1      -1.255   1.111  24.806  0.00  0.00    -0.190 NA
ATOM      9  C   UNL     1      -1.195   1.696  25.384  0.00  0.00    +0.203 A 
ATOM     10  N   UNL     1      -0.835   1.363  26.047  0.00  0.00    -0.056 NA
ATOM     11  O   UNL     1      -0.672   0.572  25.879  0.00  0.00    -0.336 OA
ENDROOT
BRANCH   9  12
ATOM     12  C   UNL     1      -1.451   2.477  25.312  0.00  0.00    +0.043 A 
ATOM     13  C   UNL     1      -0.900   3.091  25.294  0.00  0.00    +0.024 A 
ATOM     14  C   UNL     1      -1.156   3.872  25.221  0.00  0.00    +0.100 A 
ATOM     15  N   UNL     1      -1.962   4.039  25.166  0.00  0.00    -0.229 NA
ATOM     16  C   UNL     1      -2.513   3.425  25.184  0.00  0.00    +0.132 A 
ATOM     17  C   UNL     1      -2.257   2.644  25.257  0.00  0.00    +0.037 A 
BRANCH  16  18
ATOM     18  N   UNL     1      -3.319   3.592  25.129  0.00  0.00    -0.288 N 
ATOM     19  C   UNL     1      -3.771   3.671  25.814  0.00  0.00    +0.124 C 
ATOM     20  C   UNL     1      -4.577   3.838  25.759  0.00  0.00    +0.164 C 
ATOM     21  O   UNL     1      -4.931   3.926  25.019  0.00  0.00    -0.350 OA
ATOM     22  C   UNL     1      -4.478   3.847  24.333  0.00  0.00    +0.164 C 
ATOM     23  C   UNL     1      -3.672   3.680  24.388  0.00  0.00    +0.124 C 
ENDBRANCH  16  18
ENDBRANCH   9  12
BRANCH   7   6
ATOM      2  N   UNL     1      -1.463  -0.889  24.691  0.00  0.00    -0.263 NA
ATOM      3  C   UNL     1      -1.176  -1.517  24.241  0.00  0.00    +0.073 C 
ATOM      4  C   UNL     1      -0.413  -1.325  23.992  0.00  0.00    +0.019 C 
ATOM      5  C   UNL     1      -0.228  -0.578  24.288  0.00  0.00    +0.027 C 
ATOM      6  C   UNL     1      -0.877  -0.308  24.720  0.00  0.00    +0.138 C 
BRANCH   2   1
ATOM      1  C   UNL     1      -2.205  -0.847  25.049  0.00  0.00    +0.099 C 
BRANCH   1  24
ATOM     24  C   UNL     1      -2.812  -1.346  24.798  0.00  0.00    -0.006 A 
ATOM     25  C   UNL     1      -2.874  -2.108  25.107  0.00  0.00    -0.003 A 
ATOM     26  C   UNL     1      -3.482  -2.607  24.856  0.00  0.00    -0.000 A 
ATOM     27  C   UNL     1      -4.027  -2.343  24.296  0.00  0.00    -0.000 A 
ATOM     28  C   UNL     1      -3.964  -1.581  23.986  0.00  0.00    -0.000 A 
ATOM     29  C   UNL     1      -3.357  -1.083  24.237  0.00  0.00    -0.003 A 
ENDBRANCH   1  24
ENDBRANCH   2   1
ENDBRANCH   7   6
TORSDOF 5
ENDMDL
MODEL 3
REMARK VINA RESULT:     -11.8      1.776      4.430
REMARK  Name = 
REMARK  5 active torsions:
REMARK  status: ('A' for Active; 'I' for Inactive)
REMARK    1  A    between atoms: C_1  and  N_2
REMARK    2  A    between atoms: C_1  and  C_24
REMARK    3  A    between atoms: C_6  and  C_7
REMARK    4  A    between atoms: C_9  and  C_12
REMARK    5  A    between atoms: C_16  and  N_18
REMARK                            x       y       z     vdW  Elec       q    Type
REMARK                         _______ _______ _______ _____ _____    ______ ____
ROOT
ATOM      7  C   UNL     1      -4.143   1.836  24.590  0.00  0.00    +0.251 A 
ATOM      8  N   UNL     1      -3.799   1.160  24.262  0.00  0.00    -0.190 NA
ATOM      9  C   UNL     1      -4.019   0.513  24.723  0.00  0.00    +0.203 A 
ATOM     10  N   UNL     1      -4.499   0.787  25.335  0.00  0.00    -0.056 NA
ATOM     11  O   UNL     1      -4.576   1.605  25.252  0.00  0.00    -0.336 OA
ENDROOT
BRANCH   9  12
ATOM     12  C   UNL     1      -3.798  -0.272  24.595  0.00  0.00    +0.043 A 
ATOM     13  C   UNL     1      -4.342  -0.807  24.281  0.00  0.00    +0.024 A 
ATOM     14  C   UNL     1      -4.121  -1.592  24.153  0.00  0.00    +0.100 A 
ATOM     15  N   UNL     1      -3.357  -1.840  24.337  0.00  0.00    -0.229 NA
ATOM     16  C   UNL     1      -2.813  -1.305  24.651  0.00  0.00    +0.132 A 
ATOM     17  C   UNL     1      -3.034  -0.520  24.779  0.00  0.00    +0.037 A 
BRANCH  16  18
ATOM     18  N   UNL     1      -2.048  -1.554  24.835  0.00  0.00    -0.288 N 
ATOM     19  C   UNL     1      -1.559  -1.075  25.295  0.00  0.00    +0.124 C 
ATOM     20  C   UNL     1      -0.794  -1.324  25.480  0.00  0.00    +0.164 C 
ATOM     21  O   UNL     1      -0.519  -2.051  25.205  0.00  0.00    -0.350 OA
ATOM     22  C   UNL     1      -1.009  -2.530  24.744  0.00  0.00    +0.164 C 
ATOM     23  C   UNL     1      -1.773  -2.282  24.560  0.00  0.00    +0.124 C 
ENDBRANCH  16  18
ENDBRANCH   9  12
BRANCH   7   6
ATOM      2  N   UNL     1      -3.490   3.151  24.528  0.00  0.00    -0.263 NA
ATOM      3  C   UNL     1      -3.621   3.848  24.106  0.00  0.00    +0.073 C 
ATOM      4  C   UNL     1      -4.279   3.733  23.622  0.00  0.00    +0.019 C 
ATOM      5  C   UNL     1      -4.554   2.965  23.744  0.00  0.00    +0.027 C 
ATOM      6  C   UNL     1      -4.067   2.605  24.304  0.00  0.00    +0.138 C 
BRANCH   2   1
ATOM      1  C   UNL     1      -2.887   3.022  25.077  0.00  0.00    +0.099 C 
BRANCH   1  24
ATOM     24  C   UNL     1      -2.233   3.523  25.096  0.00  0.00    -0.006 A 
ATOM     25  C   UNL     1      -1.528   3.295  24.732  0.00  0.00    -0.003 A 
ATOM     26  C   UNL     1      -0.873   3.796  24.751  0.00  0.00    -0.000 A 
ATOM     27  C   UNL     1      -0.923   4.525  25.133  0.00  0.00    -0.000 A 
ATOM     28  C   UNL     1      -1.627   4.753  25.497  0.00  0.00    -0.000 A 
ATOM     29  C   UNL     1      -2.281   4.253  25.478  0.00  0.00    -0.003 A 
ENDBRANCH   1  24
ENDBRANCH   2   1
ENDBRANCH   7   6
TORSDOF 5
ENDMDL
MODEL 4
REMARK VINA RESULT:     -11.5      2.229      4.486
REMARK  Name = 
REMARK  5 active torsions:
REMARK  status: ('A' for Active; 'I' for Inactive)
REMARK    1  A    between atoms: C_1  and  N_2
REMARK    2  A    between atoms: C_1  and  C_24
REMARK    3  A    between atoms: C_6  and  C_7
REMARK    4  A    between atoms: C_9  and  C_12
REMARK    5  A    between atoms: C_16  and  N_18
REMARK                            x       y       z     vdW  Elec       q    Type
REMARK                         _______ _______ _______ _____ _____    ______ ____
ROOT
ATOM      7  C   UNL     1      -1.822   2.293  24.662  0.00  0.00    +0.251 A 
ATOM      8  N   UNL     1      -1.714   1.549  25.003  0.00  0.00    -0.190 NA
ATOM      9  C   UNL     1      -1.462   1.032  24.412  0.00  0.00    +0.203 A 
ATOM     10  N   UNL     1      -1.415   1.456  23.706  0.00  0.00    -0.056 NA
ATOM     11  O   UNL     1      -1.638   2.235  23.860  0.00  0.00    -0.336 OA
ENDROOT
BRANCH   9  12
ATOM     12  C   UNL     1      -1.288   0.232  24.510  0.00  0.00    +0.043 A 
ATOM     13  C   UNL     1      -0.502  -0.022  24.512  0.00  0.00    +0.024 A 
ATOM     14  C   UNL     1      -0.328  -0.822  24.610  0.00  0.00    +0.100 A 
ATOM     15  N   UNL     1      -0.939  -1.369  24.706  0.00  0.00    -0.229 NA
ATOM     16  C   UNL     1      -1.724  -1.116  24.703  0.00  0.00    +0.132 A 
ATOM     17  C   UNL     1      -1.898  -0.315  24.605  0.00  0.00    +0.037 A 
BRANCH  16  18
ATOM     18  N   UNL     1      -2.334  -1.662  24.799  0.00  0.00    -0.288 N 
ATOM     19  C   UNL     1      -2.378  -2.321  24.305  0.00  0.00    +0.124 C 
ATOM     20  C   UNL     1      -2.989  -2.867  24.401  0.00  0.00    +0.164 C 
ATOM     21  O   UNL     1      -3.555  -2.755  24.990  0.00  0.00    -0.350 OA
ATOM     22  C   UNL     1      -3.511  -2.095  25.484  0.00  0.00    +0.164 C 
ATOM     23  C   UNL     1      -2.900  -1.549  25.388  0.00  0.00    +0.124 C 
ENDBRANCH  16  18
ENDBRANCH   9  12
BRANCH   7   6
ATOM      2  N   UNL     1      -2.843   3.267  25.076  0.00  0.00    -0.263 NA
ATOM      3  C   UNL     1      -2.842   3.956  25.528  0.00  0.00    +0.073 C 
ATOM      4  C   UNL     1      -2.070   4.090  25.787  0.00  0.00    +0.019 C 
ATOM      5  C   UNL     1      -1.594   3.484  25.494  0.00  0.00    +0.027 C 
ATOM      6  C   UNL     1      -2.072   2.974  25.054  0.00  0.00    +0.138 C 
BRANCH   2   1
ATOM      1  C   UNL     1      -3.500   2.928  24.709  0.00  0.00    +0.099 C 
BRANCH   1  24
ATOM     24  C   UNL     1      -4.251   3.026  25.036  0.00  0.00    -0.006 A 
ATOM     25  C   UNL     1      -4.635   2.385  25.386  0.00  0.00    -0.003 A 
ATOM     26  C   UNL     1      -5.386   2.483  25.713  0.00  0.00    -0.000 A 
ATOM     27  C   UNL     1      -5.753   3.222  25.690  0.00  0.00    -0.000 A 
ATOM     28  C   UNL     1      -5.369   3.862  25.340  0.00  0.00    -0.000 A 
ATOM     29  C   UNL     1      -4.618   3.765  25.013  0.00  0.00    -0.003 A 
ENDBRANCH   1  24
ENDBRANCH   2   1
ENDBRANCH   7   6
TORSDOF 5
ENDMDL
MODEL 5
REMARK VINA RESULT:     -11.3      1.695      2.840
REMARK  Name = 
REMARK  5 active torsions:
REMARK  status: ('A' for Active; 'I' for Inactive)
REMARK    1  A    between atoms: C_1  and  N_2
REMARK    2  A    between atoms: C_1  and  C_24
REMARK    3  A    between atoms: C_6  and  C_7
REMARK    4  A    between atoms: C_9  and  C_12
REMARK    5  A    between atoms: C_16  and  N_18
REMARK                            x       y       z     vdW  Elec       q    Type
REMARK                         _______ _______ _______ _____ _____    ______ ____
ROOT
ATOM      7  C   UNL     1      -4.089   0.127  24.757  0.00  0.00    +0.251 A 
ATOM      8  N   UNL     1      -3.800   0.818  24.410  0.00  0.00    -0.190 NA
ATOM      9  C   UNL     1      -4.126   1.460  24.812  0.00  0.00    +0.203 A 
ATOM     10  N   UNL     1      -4.616   1.167  25.406  0.00  0.00    -0.056 NA
ATOM     11  O   UNL     1      -4.593   0.343  25.372  0.00  0.00    -0.336 OA
ENDROOT
BRANCH   9  12
ATOM     12  C   UNL     1      -3.986   2.257  24.647  0.00  0.00    +0.043 A 
ATOM     13  C   UNL     1      -4.584   2.721  24.321  0.00  0.00    +0.024 A 
ATOM     14  C   UNL     1      -4.444   3.518  24.157  0.00  0.00    +0.100 A 
ATOM     15  N   UNL     1      -3.706   3.849  24.319  0.00  0.00    -0.229 NA
ATOM     16  C   UNL     1      -3.107   3.384  24.645  0.00  0.00    +0.132 A 
ATOM     17  C   UNL     1      -3.248   2.588  24.809  0.00  0.00    +0.037 A 
BRANCH  16  18
ATOM     18  N   UNL     1      -2.369   3.715  24.807  0.00  0.00    -0.288 N 
ATOM     19  C   UNL     1      -1.683   3.334  24.556  0.00  0.00    +0.124 C 
ATOM     20  C   UNL     1      -0.945   3.665  24.718  0.00  0.00    +0.164 C 
ATOM     21  O   UNL     1      -0.893   4.377  25.131  0.00  0.00    -0.350 OA
ATOM     22  C   UNL     1      -1.581   4.759  25.381  0.00  0.00    +0.164 C 
ATOM     23  C   UNL     1      -2.319   4.428  25.219  0.00  0.00    +0.124 C 
ENDBRANCH  16  18
ENDBRANCH   9  12
BRANCH   7   6
ATOM      2  N   UNL     1      -3.224  -1.062  24.733  0.00  0.00    -0.263 NA
ATOM      3  C   UNL     1      -3.268  -1.808  24.386  0.00  0.00    +0.073 C 
ATOM      4  C   UNL     1      -3.977  -1.852  23.965  0.00  0.00    +0.019 C 
ATOM      5  C   UNL     1      -4.371  -1.133  24.053  0.00  0.00    +0.027 C 
ATOM      6  C   UNL     1      -3.905  -0.644  24.528  0.00  0.00    +0.138 C 
BRANCH   2   1
ATOM      1  C   UNL     1      -2.607  -0.782  25.204  0.00  0.00    +0.099 C 
BRANCH   1  24
ATOM     24  C   UNL     1      -1.839  -1.055  25.082  0.00  0.00    -0.006 A 
ATOM     25  C   UNL     1      -1.326  -0.638  24.588  0.00  0.00    -0.003 A 
ATOM     26  C   UNL     1      -0.556  -0.912  24.466  0.00  0.00    -0.000 A 
ATOM     27  C   UNL     1      -0.301  -1.603  24.838  0.00  0.00    -0.000 A 
ATOM     28  C   UNL     1      -0.814  -2.020  25.331  0.00  0.00    -0.000 A 
ATOM     29  C   UNL     1      -1.582  -1.746  25.453  0.00  0.00    -0.003 A 
ENDBRANCH   1  24
ENDBRANCH   2   1
ENDBRANCH   7   6
TORSDOF 5
ENDMDL
