MODEL 1
REMARK VINA RESULT:      -8.6      0.000      0.000
REMARK  Name = 
REMARK  6 active torsions:
REMARK  status: ('A' for Active; 'I' for Inactive)
REMARK    1  A    between atoms: C_2  and  C_4
REMARK    2  A    between atoms: C_6  and  C_7
REMARK    3  A    between atoms: C_7  and  C_8
REMARK    4  A    between atoms: C_25  and  C_26
REMARK    5  A    between atoms: C_26  and  N_27
REMARK    6  A    between atoms: C_28  and  C_30
REMARK                            x       y       z     vdW  Elec       q    Type
REMARK                         _______ _______ _______ _____ _____    ______ ____
ROOT
ATOM      4  C   UNL     1      -3.012   0.107  24.805  0.00  0.00    +0.006 C 
ATOM      5  C   UNL     1      -2.197   0.073  24.684  0.00  0.00    +0.005 C 
ATOM      6  C   UNL     1      -1.773   0.766  24.538  0.00  0.00    +0.027 C 
ATOM     22  C   UNL     1      -2.164   1.492  24.514  0.00  0.00    -0.048 C 
ATOM     23  C   UNL     1      -1.740   2.185  24.368  0.00  0.00    +0.026 C 
ATOM     24  C   UNL     1      -2.980   1.525  24.635  0.00  0.00    -0.033 C 
ATOM     25  C   UNL     1      -3.404   0.832  24.781  0.00  0.00    +0.043 C 
ENDROOT
BRANCH   4   2
ATOM      1  C   UNL     1      -3.473  -0.894  25.716  0.00  0.00    +0.000 C 
ATOM      2  C   UNL     1      -3.436  -0.586  24.951  0.00  0.00    +0.000 C 
ATOM      3  C   UNL     1      -3.822  -0.971  24.332  0.00  0.00    +0.000 C 
ENDBRANCH   4   2
BRANCH   6   7
ATOM      7  C   UNL     1      -0.957   0.733  24.417  0.00  0.00    +0.089 C 
BRANCH   7   8
ATOM      8  C   UNL     1      -0.644   0.213  23.858  0.00  0.00    +0.226 C 
ATOM      9  O   UNL     1      -1.115  -0.389  23.546  0.00  0.00    -0.275 OA
ATOM     10  N   UNL     1       0.139   0.294  23.614  0.00  0.00    -0.276 N 
ATOM     11  C   UNL     1       0.610   0.895  23.926  0.00  0.00    +0.115 C 
ATOM     12  C   UNL     1       1.393   0.976  23.681  0.00  0.00    +0.114 C 
ATOM     13  N   UNL     1       1.706   0.455  23.123  0.00  0.00    -0.290 N 
ATOM     14  C   UNL     1       1.237  -0.146  22.810  0.00  0.00    +0.114 C 
ATOM     15  C   UNL     1       0.452  -0.227  23.055  0.00  0.00    +0.115 C 
ATOM     16  C   UNL     1       2.490   0.536  22.878  0.00  0.00    +0.132 A 
ATOM     17  N   UNL     1       2.960   1.137  23.191  0.00  0.00    -0.229 NA
ATOM     18  C   UNL     1       3.744   1.218  22.945  0.00  0.00    +0.100 A 
ATOM     19  C   UNL     1       4.058   0.698  22.387  0.00  0.00    +0.021 A 
ATOM     20  C   UNL     1       3.587   0.097  22.075  0.00  0.00    +0.004 A 
ATOM     21  C   UNL     1       2.804   0.016  22.320  0.00  0.00    +0.034 A 
ENDBRANCH   7   8
ENDBRANCH   6   7
BRANCH  25  26
ATOM     26  C   UNL     1      -4.219   0.866  24.902  0.00  0.00    +0.119 C 
BRANCH  26  27
ATOM     27  N   UNL     1      -4.552   1.516  25.286  0.00  0.00    -0.205 NA
ATOM     28  C   UNL     1      -5.346   1.706  25.161  0.00  0.00    +0.241 C 
ATOM     29  O   UNL     1      -5.805   1.246  24.653  0.00  0.00    -0.273 OA
BRANCH  28  30
ATOM     30  C   UNL     1      -5.680   2.356  25.544  0.00  0.00    +0.078 C 
ATOM     31  C   UNL     1      -6.155   2.665  26.143  0.00  0.00    +0.010 C 
ATOM     32  C   UNL     1      -5.781   3.172  25.609  0.00  0.00    +0.010 C 
ENDBRANCH  28  30
ENDBRANCH  26  27
ENDBRANCH  25  26
TORSDOF 6
ENDMDL
MODEL 2
REMARK VINA RESULT:      -8.5      0.955      1.798
REMARK  Name = 
REMARK  6 active torsions:
REMARK  status: ('A' for Active; 'I' for Inactive)
REMARK    1  A    between atoms: C_2  and  C_4
REMARK    2  A    between atoms: C_6  and  C_7
REMARK    3  A    between atoms: C_7  and  C_8
REMARK    4  A    between atoms: C_25  and  C_26
REMARK    5  A    between atoms: C_26  and  N_27
REMARK    6  A    between atoms: C_28  and  C_30
REMARK                            x       y       z     vdW  Elec       q    Type
REMARK                         _______ _______ _______ _____ _____    ______ ____
ROOT
ATOM      4  C   UNL     1      -3.142   1.909  23.984  0.00  0.00    +0.006 C 
ATOM      5  C   UNL     1      -2.379   1.603  23.929  0.00  0.00    +0.005 C 
ATOM      6  C   UNL     1      -2.187   0.901  24.318  0.00  0.00    +0.027 C 
ATOM     22  C   UNL     1      -2.759   0.505  24.762  0.00  0.00    -0.048 C 
ATOM     23  C   UNL     1      -2.567  -0.197  25.151  0.00  0.00    +0.026 C 
ATOM     24  C   UNL     1      -3.523   0.812  24.816  0.00  0.00    -0.033 C 
ATOM     25  C   UNL     1      -3.715   1.514  24.427  0.00  0.00    +0.043 C 
ENDROOT
BRANCH   4   2
ATOM      1  C   UNL     1      -3.575   2.592  22.805  0.00  0.00    +0.000 C 
ATOM      2  C   UNL     1      -3.334   2.610  23.594  0.00  0.00    +0.000 C 
ATOM      3  C   UNL     1      -3.284   3.331  23.993  0.00  0.00    +0.000 C 
ENDBRANCH   4   2
BRANCH   6   7
ATOM      7  C   UNL     1      -1.422   0.594  24.264  0.00  0.00    +0.089 C 
BRANCH   7   8
ATOM      8  C   UNL     1      -0.773   1.067  24.455  0.00  0.00    +0.226 C 
ATOM      9  O   UNL     1      -0.849   1.661  25.023  0.00  0.00    -0.275 OA
ATOM     10  N   UNL     1      -0.050   0.946  24.078  0.00  0.00    -0.276 N 
ATOM     11  C   UNL     1       0.025   0.353  23.510  0.00  0.00    +0.115 C 
ATOM     12  C   UNL     1       0.748   0.232  23.133  0.00  0.00    +0.114 C 
ATOM     13  N   UNL     1       1.397   0.705  23.323  0.00  0.00    -0.290 N 
ATOM     14  C   UNL     1       1.323   1.298  23.891  0.00  0.00    +0.114 C 
ATOM     15  C   UNL     1       0.598   1.419  24.269  0.00  0.00    +0.115 C 
ATOM     16  C   UNL     1       2.121   0.584  22.946  0.00  0.00    +0.132 A 
ATOM     17  N   UNL     1       2.196  -0.010  22.378  0.00  0.00    -0.229 NA
ATOM     18  C   UNL     1       2.920  -0.130  22.000  0.00  0.00    +0.100 A 
ATOM     19  C   UNL     1       3.569   0.342  22.191  0.00  0.00    +0.021 A 
ATOM     20  C   UNL     1       3.493   0.936  22.759  0.00  0.00    +0.004 A 
ATOM     21  C   UNL     1       2.770   1.057  23.137  0.00  0.00    +0.034 A 
ENDBRANCH   7   8
ENDBRANCH   6   7
BRANCH  25  26
ATOM     26  C   UNL     1      -4.479   1.820  24.481  0.00  0.00    +0.119 C 
BRANCH  26  27
ATOM     27  N   UNL     1      -4.865   1.838  25.210  0.00  0.00    -0.205 NA
ATOM     28  C   UNL     1      -5.688   1.891  25.240  0.00  0.00    +0.241 C 
ATOM     29  O   UNL     1      -6.124   1.925  24.541  0.00  0.00    -0.273 OA
BRANCH  28  30
ATOM     30  C   UNL     1      -6.074   1.909  25.969  0.00  0.00    +0.078 C 
ATOM     31  C   UNL     1      -6.250   2.298  26.674  0.00  0.00    +0.010 C 
ATOM     32  C   UNL     1      -6.567   1.551  26.525  0.00  0.00    +0.010 C 
ENDBRANCH  28  30
ENDBRANCH  26  27
ENDBRANCH  25  26
TORSDOF 6
ENDMDL
MODEL 3
REMARK VINA RESULT:      -7.3      1.599      6.566
REMARK  Name = 
REMARK  6 active torsions:
REMARK  status: ('A' for Active; 'I' for Inactive)
REMARK    1  A    between atoms: C_2  and  C_4
REMARK    2  A    between atoms: C_6  and  C_7
REMARK    3  A    between atoms: C_7  and  C_8
REMARK    4  A    between atoms: C_25  and  C_26
REMARK    5  A    between atoms: C_26  and  N_27
REMARK    6  A    between atoms: C_28  and  C_30
REMARK                            x       y       z     vdW  Elec       q    Type
REMARK                         _______ _______ _______ _____ _____    ______ ____
ROOT
ATOM      4  C   UNL     1       0.002   0.398  23.745  0.00  0.00    +0.006 C 
ATOM      5  C   UNL     1      -0.654   0.844  23.966  0.00  0.00    +0.005 C 
ATOM      6  C   UNL     1      -0.577   1.655  24.094  0.00  0.00    +0.027 C 
ATOM     22  C   UNL     1       0.156   2.021  24.000  0.00  0.00    -0.048 C 
ATOM     23  C   UNL     1       0.233   2.832  24.127  0.00  0.00    +0.026 C 
ATOM     24  C   UNL     1       0.814   1.573  23.777  0.00  0.00    -0.033 C 
ATOM     25  C   UNL     1       0.737   0.762  23.650  0.00  0.00    +0.043 C 
ENDROOT
BRANCH   4   2
ATOM      1  C   UNL     1      -0.153  -0.706  22.849  0.00  0.00    +0.000 C 
ATOM      2  C   UNL     1      -0.075  -0.414  23.617  0.00  0.00    +0.000 C 
ATOM      3  C   UNL     1      -0.073  -0.934  24.257  0.00  0.00    +0.000 C 
ENDBRANCH   4   2
BRANCH   6   7
ATOM      7  C   UNL     1      -1.235   2.103  24.316  0.00  0.00    +0.089 C 
BRANCH   7   8
ATOM      8  C   UNL     1      -1.891   2.147  23.818  0.00  0.00    +0.226 C 
ATOM      9  O   UNL     1      -1.786   2.202  23.001  0.00  0.00    -0.275 OA
ATOM     10  N   UNL     1      -2.652   2.135  24.137  0.00  0.00    -0.276 N 
ATOM     11  C   UNL     1      -2.757   2.079  24.953  0.00  0.00    +0.115 C 
ATOM     12  C   UNL     1      -3.517   2.067  25.272  0.00  0.00    +0.114 C 
ATOM     13  N   UNL     1      -4.173   2.110  24.774  0.00  0.00    -0.290 N 
ATOM     14  C   UNL     1      -4.070   2.166  23.958  0.00  0.00    +0.114 C 
ATOM     15  C   UNL     1      -3.308   2.178  23.639  0.00  0.00    +0.115 C 
ATOM     16  C   UNL     1      -4.935   2.098  25.093  0.00  0.00    +0.132 A 
ATOM     17  N   UNL     1      -5.039   2.043  25.909  0.00  0.00    -0.229 NA
ATOM     18  C   UNL     1      -5.800   2.031  26.228  0.00  0.00    +0.100 A 
ATOM     19  C   UNL     1      -6.457   2.074  25.730  0.00  0.00    +0.021 A 
ATOM     20  C   UNL     1      -6.352   2.130  24.914  0.00  0.00    +0.004 A 
ATOM     21  C   UNL     1      -5.591   2.142  24.595  0.00  0.00    +0.034 A 
ENDBRANCH   7   8
ENDBRANCH   6   7
BRANCH  25  26
ATOM     26  C   UNL     1       1.393   0.315  23.428  0.00  0.00    +0.119 C 
BRANCH  26  27
ATOM     27  N   UNL     1       2.118   0.686  23.295  0.00  0.00    -0.205 NA
ATOM     28  C   UNL     1       2.747   0.260  22.971  0.00  0.00    +0.241 C 
ATOM     29  O   UNL     1       2.650  -0.537  22.781  0.00  0.00    -0.273 OA
BRANCH  28  30
ATOM     30  C   UNL     1       3.471   0.631  22.837  0.00  0.00    +0.078 C 
ATOM     31  C   UNL     1       4.249   0.782  23.065  0.00  0.00    +0.010 C 
ATOM     32  C   UNL     1       3.948   1.122  22.377  0.00  0.00    +0.010 C 
ENDBRANCH  28  30
ENDBRANCH  26  27
ENDBRANCH  25  26
TORSDOF 6
ENDMDL
MODEL 4
REMARK VINA RESULT:      -6.3     15.825     17.072
REMARK  Name = 
REMARK  6 active torsions:
REMARK  status: ('A' for Active; 'I' for Inactive)
REMARK    1  A    between atoms: C_2  and  C_4
REMARK    2  A    between atoms: C_6  and  C_7
REMARK    3  A    between atoms: C_7  and  C_8
REMARK    4  A    between atoms: C_25  and  C_26
REMARK    5  A    between atoms: C_26  and  N_27
REMARK    6  A    between atoms: C_28  and  C_30
REMARK                            x       y       z     vdW  Elec       q    Type
REMARK                         _______ _______ _______ _____ _____    ______ ____
ROOT
ATOM      4  C   UNL     1      -5.518  -9.096  10.442  0.00  0.00    +0.006 C 
ATOM      5  C   UNL     1      -5.126  -9.484  11.055  0.00  0.00    +0.005 C 
ATOM      6  C   UNL     1      -5.525 -10.043  11.511  0.00  0.00    +0.027 C 
ATOM     22  C   UNL     1      -6.317 -10.213  11.356  0.00  0.00    -0.048 C 
ATOM     23  C   UNL     1      -6.717 -10.772  11.813  0.00  0.00    +0.026 C 
ATOM     24  C   UNL     1      -6.710  -9.824  10.743  0.00  0.00    -0.033 C 
ATOM     25  C   UNL     1      -6.310  -9.265  10.286  0.00  0.00    +0.043 C 
ENDROOT
BRANCH   4   2
ATOM      1  C   UNL     1      -4.786  -8.756   9.262  0.00  0.00    +0.000 C 
ATOM      2  C   UNL     1      -5.118  -8.537   9.986  0.00  0.00    +0.000 C 
ATOM      3  C   UNL     1      -5.051  -7.759  10.251  0.00  0.00    +0.000 C 
ENDBRANCH   4   2
BRANCH   6   7
ATOM      7  C   UNL     1      -5.133 -10.432  12.125  0.00  0.00    +0.089 C 
BRANCH   7   8
ATOM      8  C   UNL     1      -4.321 -10.568  12.074  0.00  0.00    +0.226 C 
ATOM      9  O   UNL     1      -3.968 -10.688  11.338  0.00  0.00    -0.275 OA
ATOM     10  N   UNL     1      -3.862 -10.583  12.759  0.00  0.00    -0.276 N 
ATOM     11  C   UNL     1      -4.215 -10.463  13.495  0.00  0.00    +0.115 C 
ATOM     12  C   UNL     1      -3.756 -10.479  14.180  0.00  0.00    +0.114 C 
ATOM     13  N   UNL     1      -2.944 -10.615  14.130  0.00  0.00    -0.290 N 
ATOM     14  C   UNL     1      -2.590 -10.735  13.394  0.00  0.00    +0.114 C 
ATOM     15  C   UNL     1      -3.050 -10.719  12.708  0.00  0.00    +0.115 C 
ATOM     16  C   UNL     1      -2.484 -10.630  14.816  0.00  0.00    +0.132 A 
ATOM     17  N   UNL     1      -2.838 -10.510  15.551  0.00  0.00    -0.229 NA
ATOM     18  C   UNL     1      -2.379 -10.526  16.237  0.00  0.00    +0.100 A 
ATOM     19  C   UNL     1      -1.566 -10.661  16.186  0.00  0.00    +0.021 A 
ATOM     20  C   UNL     1      -1.214 -10.781  15.450  0.00  0.00    +0.004 A 
ATOM     21  C   UNL     1      -1.672 -10.766  14.765  0.00  0.00    +0.034 A 
ENDBRANCH   7   8
ENDBRANCH   6   7
BRANCH  25  26
ATOM     26  C   UNL     1      -6.703  -8.877   9.674  0.00  0.00    +0.119 C 
BRANCH  26  27
ATOM     27  N   UNL     1      -7.511  -8.996   9.561  0.00  0.00    -0.205 NA
ATOM     28  C   UNL     1      -7.890  -8.667   8.905  0.00  0.00    +0.241 C 
ATOM     29  O   UNL     1      -7.459  -8.218   8.364  0.00  0.00    -0.273 OA
BRANCH  28  30
ATOM     30  C   UNL     1      -8.698  -8.786   8.792  0.00  0.00    +0.078 C 
ATOM     31  C   UNL     1      -9.474  -8.718   9.061  0.00  0.00    +0.010 C 
ATOM     32  C   UNL     1      -9.321  -9.061   8.327  0.00  0.00    +0.010 C 
ENDBRANCH  28  30
ENDBRANCH  26  27
ENDBRANCH  25  26
TORSDOF 6
ENDMDL
MODEL 5
REMARK VINA RESULT:      -5.9     15.166     16.752
REMARK  Name = 
REMARK  6 active torsions:
REMARK  status: ('A' for Active; 'I' for Inactive)
REMARK    1  A    between atoms: C_2  and  C_4
REMARK    2  A    between atoms: C_6  and  C_7
REMARK    3  A    between atoms: C_7  and  C_8
REMARK    4  A    between atoms: C_25  and  C_26
REMARK    5  A    between atoms: C_26  and  N_27
REMARK    6  A    between atoms: C_28  and  C_30
REMARK                            x       y       z     vdW  Elec       q    Type
REMARK                         _______ _______ _______ _____ _____    ______ ____
ROOT
ATOM      4  C   UNL     1      -5.988  -8.979  11.043  0.00  0.00    +0.006 C 
ATOM      5  C   UNL     1      -5.892  -9.211  11.828  0.00  0.00    +0.005 C 
ATOM      6  C   UNL     1      -6.537  -9.493  12.257  0.00  0.00    +0.027 C 
ATOM     22  C   UNL     1      -7.280  -9.543  11.901  0.00  0.00    -0.048 C 
ATOM     23  C   UNL     1      -7.925  -9.825  12.331  0.00  0.00    +0.026 C 
ATOM     24  C   UNL     1      -7.376  -9.310  11.115  0.00  0.00    -0.033 C 
ATOM     25  C   UNL     1      -6.731  -9.028  10.686  0.00  0.00    +0.043 C 
ENDROOT
BRANCH   4   2
ATOM      1  C   UNL     1      -5.117  -7.905  10.679  0.00  0.00    +0.000 C 
ATOM      2  C   UNL     1      -5.343  -8.697  10.614  0.00  0.00    +0.000 C 
ATOM      3  C   UNL     1      -4.922  -9.205  10.119  0.00  0.00    +0.000 C 
ENDBRANCH   4   2
BRANCH   6   7
ATOM      7  C   UNL     1      -6.441  -9.725  13.044  0.00  0.00    +0.089 C 
BRANCH   7   8
ATOM      8  C   UNL     1      -5.736 -10.080  13.286  0.00  0.00    +0.226 C 
ATOM      9  O   UNL     1      -5.205 -10.366  12.723  0.00  0.00    -0.275 OA
ATOM     10  N   UNL     1      -5.564 -10.148  14.089  0.00  0.00    -0.276 N 
ATOM     11  C   UNL     1      -6.095  -9.862  14.652  0.00  0.00    +0.115 C 
ATOM     12  C   UNL     1      -5.923  -9.930  15.455  0.00  0.00    +0.114 C 
ATOM     13  N   UNL     1      -5.219 -10.284  15.697  0.00  0.00    -0.290 N 
ATOM     14  C   UNL     1      -4.687 -10.571  15.135  0.00  0.00    +0.114 C 
ATOM     15  C   UNL     1      -4.860 -10.503  14.331  0.00  0.00    +0.115 C 
ATOM     16  C   UNL     1      -5.046 -10.353  16.501  0.00  0.00    +0.132 A 
ATOM     17  N   UNL     1      -5.578 -10.066  17.062  0.00  0.00    -0.229 NA
ATOM     18  C   UNL     1      -5.405 -10.134  17.867  0.00  0.00    +0.100 A 
ATOM     19  C   UNL     1      -4.700 -10.489  18.109  0.00  0.00    +0.021 A 
ATOM     20  C   UNL     1      -4.169 -10.776  17.546  0.00  0.00    +0.004 A 
ATOM     21  C   UNL     1      -4.341 -10.708  16.743  0.00  0.00    +0.034 A 
ENDBRANCH   7   8
ENDBRANCH   6   7
BRANCH  25  26
ATOM     26  C   UNL     1      -6.827  -8.796   9.901  0.00  0.00    +0.119 C 
BRANCH  26  27
ATOM     27  N   UNL     1      -7.513  -8.400   9.669  0.00  0.00    -0.205 NA
ATOM     28  C   UNL     1      -7.728  -8.377   8.872  0.00  0.00    +0.241 C 
ATOM     29  O   UNL     1      -7.256  -8.750   8.308  0.00  0.00    -0.273 OA
BRANCH  28  30
ATOM     30  C   UNL     1      -8.413  -7.981   8.641  0.00  0.00    +0.078 C 
ATOM     31  C   UNL     1      -9.173  -7.996   8.321  0.00  0.00    +0.010 C 
ATOM     32  C   UNL     1      -8.841  -7.280   8.561  0.00  0.00    +0.010 C 
ENDBRANCH  28  30
ENDBRANCH  26  27
ENDBRANCH  25  26
TORSDOF 6
ENDMDL
MODEL 6
REMARK VINA RESULT:      -5.9     14.291     16.500
REMARK  Name = 
REMARK  6 active torsions:
REMARK  status: ('A' for Active; 'I' for Inactive)
REMARK    1  A    between atoms: C_2  and  C_4
REMARK    2  A    between atoms: C_6  and  C_7
REMARK    3  A    between atoms: C_7  and  C_8
REMARK    4  A    between atoms: C_25  and  C_26
REMARK    5  A    between atoms: C_26  and  N_27
REMARK    6  A    between atoms: C_28  and  C_30
REMARK                            x       y       z     vdW  Elec       q    Type
REMARK                         _______ _______ _______ _____ _____    ______ ____
ROOT
ATOM      4  C   UNL     1      -5.720 -10.168  13.179  0.00  0.00    +0.006 C 
ATOM      5  C   UNL     1      -6.081 -10.256  13.915  0.00  0.00    +0.005 C 
ATOM      6  C   UNL     1      -5.629 -10.459  14.574  0.00  0.00    +0.027 C 
ATOM     22  C   UNL     1      -4.816 -10.575  14.498  0.00  0.00    -0.048 C 
ATOM     23  C   UNL     1      -4.364 -10.779  15.157  0.00  0.00    +0.026 C 
ATOM     24  C   UNL     1      -4.455 -10.487  13.761  0.00  0.00    -0.033 C 
ATOM     25  C   UNL     1      -4.907 -10.283  13.101  0.00  0.00    +0.043 C 
ENDROOT
BRANCH   4   2
ATOM      1  C   UNL     1      -6.517 -10.554  12.057  0.00  0.00    +0.000 C 
ATOM      2  C   UNL     1      -6.172  -9.964  12.519  0.00  0.00    +0.000 C 
ATOM      3  C   UNL     1      -6.280  -9.170  12.322  0.00  0.00    +0.000 C 
ENDBRANCH   4   2
BRANCH   6   7
ATOM      7  C   UNL     1      -5.990 -10.548  15.311  0.00  0.00    +0.089 C 
BRANCH   7   8
ATOM      8  C   UNL     1      -6.255  -9.884  15.723  0.00  0.00    +0.226 C 
ATOM      9  O   UNL     1      -5.823  -9.181  15.693  0.00  0.00    -0.275 OA
ATOM     10  N   UNL     1      -6.950  -9.923  16.165  0.00  0.00    -0.276 N 
ATOM     11  C   UNL     1      -7.381 -10.626  16.195  0.00  0.00    +0.115 C 
ATOM     12  C   UNL     1      -8.076 -10.665  16.637  0.00  0.00    +0.114 C 
ATOM     13  N   UNL     1      -8.341 -10.001  17.050  0.00  0.00    -0.290 N 
ATOM     14  C   UNL     1      -7.910  -9.298  17.020  0.00  0.00    +0.114 C 
ATOM     15  C   UNL     1      -7.214  -9.259  16.577  0.00  0.00    +0.115 C 
ATOM     16  C   UNL     1      -9.037 -10.039  17.492  0.00  0.00    +0.132 A 
ATOM     17  N   UNL     1      -9.467 -10.742  17.522  0.00  0.00    -0.229 NA
ATOM     18  C   UNL     1     -10.163 -10.781  17.964  0.00  0.00    +0.100 A 
ATOM     19  C   UNL     1     -10.427 -10.117  18.376  0.00  0.00    +0.021 A 
ATOM     20  C   UNL     1      -9.996  -9.415  18.346  0.00  0.00    +0.004 A 
ATOM     21  C   UNL     1      -9.301  -9.376  17.904  0.00  0.00    +0.034 A 
ENDBRANCH   7   8
ENDBRANCH   6   7
BRANCH  25  26
ATOM     26  C   UNL     1      -4.545 -10.195  12.365  0.00  0.00    +0.119 C 
BRANCH  26  27
ATOM     27  N   UNL     1      -3.731 -10.070  12.318  0.00  0.00    -0.205 NA
ATOM     28  C   UNL     1      -3.346 -10.132  11.591  0.00  0.00    +0.241 C 
ATOM     29  O   UNL     1      -3.775 -10.319  10.912  0.00  0.00    -0.273 OA
BRANCH  28  30
ATOM     30  C   UNL     1      -2.531 -10.007  11.543  0.00  0.00    +0.078 C 
ATOM     31  C   UNL     1      -1.784 -10.033  11.889  0.00  0.00    +0.010 C 
ATOM     32  C   UNL     1      -1.870  -9.765  11.114  0.00  0.00    +0.010 C 
ENDBRANCH  28  30
ENDBRANCH  26  27
ENDBRANCH  25  26
TORSDOF 6
ENDMDL
MODEL 7
REMARK VINA RESULT:      -5.9     14.223     15.564
REMARK  Name = 
REMARK  6 active torsions:
REMARK  status: ('A' for Active; 'I' for Inactive)
REMARK    1  A    between atoms: C_2  and  C_4
REMARK    2  A    between atoms: C_6  and  C_7
REMARK    3  A    between atoms: C_7  and  C_8
REMARK    4  A    between atoms: C_25  and  C_26
REMARK    5  A    between atoms: C_26  and  N_27
REMARK    6  A    between atoms: C_28  and  C_30
REMARK                            x       y       z     vdW  Elec       q    Type
REMARK                         _______ _______ _______ _____ _____    ______ ____
ROOT
ATOM      4  C   UNL     1      -6.482 -10.052  16.185  0.00  0.00    +0.006 C 
ATOM      5  C   UNL     1      -6.244  -9.931  15.405  0.00  0.00    +0.005 C 
ATOM      6  C   UNL     1      -6.799  -9.954  14.796  0.00  0.00    +0.027 C 
ATOM     22  C   UNL     1      -7.594 -10.097  14.966  0.00  0.00    -0.048 C 
ATOM     23  C   UNL     1      -8.149 -10.120  14.357  0.00  0.00    +0.026 C 
ATOM     24  C   UNL     1      -7.832 -10.217  15.747  0.00  0.00    -0.033 C 
ATOM     25  C   UNL     1      -7.277 -10.195  16.357  0.00  0.00    +0.043 C 
ENDROOT
BRANCH   4   2
ATOM      1  C   UNL     1      -5.695  -9.304  17.115  0.00  0.00    +0.000 C 
ATOM      2  C   UNL     1      -5.927 -10.029  16.794  0.00  0.00    +0.000 C 
ATOM      3  C   UNL     1      -5.602 -10.730  17.084  0.00  0.00    +0.000 C 
ENDBRANCH   4   2
BRANCH   6   7
ATOM      7  C   UNL     1      -6.560  -9.833  14.015  0.00  0.00    +0.089 C 
BRANCH   7   8
ATOM      8  C   UNL     1      -5.873 -10.193  13.733  0.00  0.00    +0.226 C 
ATOM      9  O   UNL     1      -5.504 -10.781  14.178  0.00  0.00    -0.275 OA
ATOM     10  N   UNL     1      -5.557  -9.964  13.007  0.00  0.00    -0.276 N 
ATOM     11  C   UNL     1      -5.926  -9.376  12.561  0.00  0.00    +0.115 C 
ATOM     12  C   UNL     1      -5.609  -9.148  11.836  0.00  0.00    +0.114 C 
ATOM     13  N   UNL     1      -4.922  -9.507  11.554  0.00  0.00    -0.290 N 
ATOM     14  C   UNL     1      -4.552 -10.095  11.998  0.00  0.00    +0.114 C 
ATOM     15  C   UNL     1      -4.869 -10.324  12.725  0.00  0.00    +0.115 C 
ATOM     16  C   UNL     1      -4.605  -9.278  10.827  0.00  0.00    +0.132 A 
ATOM     17  N   UNL     1      -4.975  -8.690  10.383  0.00  0.00    -0.229 NA
ATOM     18  C   UNL     1      -4.657  -8.462   9.655  0.00  0.00    +0.100 A 
ATOM     19  C   UNL     1      -3.970  -8.821   9.374  0.00  0.00    +0.021 A 
ATOM     20  C   UNL     1      -3.601  -9.409   9.819  0.00  0.00    +0.004 A 
ATOM     21  C   UNL     1      -3.918  -9.638  10.545  0.00  0.00    +0.034 A 
ENDBRANCH   7   8
ENDBRANCH   6   7
BRANCH  25  26
ATOM     26  C   UNL     1      -7.515 -10.315  17.136  0.00  0.00    +0.119 C 
BRANCH  26  27
ATOM     27  N   UNL     1      -8.315 -10.268  17.335  0.00  0.00    -0.205 NA
ATOM     28  C   UNL     1      -8.561 -10.450  18.102  0.00  0.00    +0.241 C 
ATOM     29  O   UNL     1      -8.008 -10.678  18.669  0.00  0.00    -0.273 OA
BRANCH  28  30
ATOM     30  C   UNL     1      -9.361 -10.403  18.300  0.00  0.00    +0.078 C 
ATOM     31  C   UNL     1     -10.062  -9.972  18.341  0.00  0.00    +0.010 C 
ATOM     32  C   UNL     1     -10.043 -10.754  18.603  0.00  0.00    +0.010 C 
ENDBRANCH  28  30
ENDBRANCH  26  27
ENDBRANCH  25  26
TORSDOF 6
ENDMDL
MODEL 8
REMARK VINA RESULT:      -5.9     14.434     16.831
REMARK  Name = 
REMARK  6 active torsions:
REMARK  status: ('A' for Active; 'I' for Inactive)
REMARK    1  A    between atoms: C_2  and  C_4
REMARK    2  A    between atoms: C_6  and  C_7
REMARK    3  A    between atoms: C_7  and  C_8
REMARK    4  A    between atoms: C_25  and  C_26
REMARK    5  A    between atoms: C_26  and  N_27
REMARK    6  A    between atoms: C_28  and  C_30
REMARK                            x       y       z     vdW  Elec       q    Type
REMARK                         _______ _______ _______ _____ _____    ______ ____
ROOT
ATOM      4  C   UNL     1      -5.726  -9.738  12.432  0.00  0.00    +0.006 C 
ATOM      5  C   UNL     1      -6.202  -9.729  13.105  0.00  0.00    +0.005 C 
ATOM      6  C   UNL     1      -5.934 -10.074  13.805  0.00  0.00    +0.027 C 
ATOM     22  C   UNL     1      -5.190 -10.430  13.832  0.00  0.00    -0.048 C 
ATOM     23  C   UNL     1      -4.923 -10.776  14.531  0.00  0.00    +0.026 C 
ATOM     24  C   UNL     1      -4.714 -10.439  13.158  0.00  0.00    -0.033 C 
ATOM     25  C   UNL     1      -4.981 -10.094  12.458  0.00  0.00    +0.043 C 
ENDROOT
BRANCH   4   2
ATOM      1  C   UNL     1      -6.354  -9.858  11.154  0.00  0.00    +0.000 C 
ATOM      2  C   UNL     1      -5.993  -9.393  11.733  0.00  0.00    +0.000 C 
ATOM      3  C   UNL     1      -5.901  -8.582  11.611  0.00  0.00    +0.000 C 
ENDBRANCH   4   2
BRANCH   6   7
ATOM      7  C   UNL     1      -6.411 -10.065  14.479  0.00  0.00    +0.089 C 
BRANCH   7   8
ATOM      8  C   UNL     1      -7.207 -10.275  14.425  0.00  0.00    +0.226 C 
ATOM      9  O   UNL     1      -7.460 -10.776  13.820  0.00  0.00    -0.275 OA
ATOM     10  N   UNL     1      -7.748  -9.985  14.975  0.00  0.00    -0.276 N 
ATOM     11  C   UNL     1      -7.495  -9.485  15.580  0.00  0.00    +0.115 C 
ATOM     12  C   UNL     1      -8.036  -9.195  16.130  0.00  0.00    +0.114 C 
ATOM     13  N   UNL     1      -8.832  -9.405  16.075  0.00  0.00    -0.290 N 
ATOM     14  C   UNL     1      -9.086  -9.906  15.471  0.00  0.00    +0.114 C 
ATOM     15  C   UNL     1      -8.544 -10.196  14.920  0.00  0.00    +0.115 C 
ATOM     16  C   UNL     1      -9.374  -9.115  16.626  0.00  0.00    +0.132 A 
ATOM     17  N   UNL     1      -9.120  -8.615  17.231  0.00  0.00    -0.229 NA
ATOM     18  C   UNL     1      -9.662  -8.325  17.781  0.00  0.00    +0.100 A 
ATOM     19  C   UNL     1     -10.458  -8.535  17.727  0.00  0.00    +0.021 A 
ATOM     20  C   UNL     1     -10.712  -9.036  17.122  0.00  0.00    +0.004 A 
ATOM     21  C   UNL     1     -10.170  -9.326  16.572  0.00  0.00    +0.034 A 
ENDBRANCH   7   8
ENDBRANCH   6   7
BRANCH  25  26
ATOM     26  C   UNL     1      -4.505 -10.104  11.785  0.00  0.00    +0.119 C 
BRANCH  26  27
ATOM     27  N   UNL     1      -3.695  -9.962  11.851  0.00  0.00    -0.205 NA
ATOM     28  C   UNL     1      -3.185 -10.187  11.242  0.00  0.00    +0.241 C 
ATOM     29  O   UNL     1      -3.487 -10.554  10.567  0.00  0.00    -0.273 OA
BRANCH  28  30
ATOM     30  C   UNL     1      -2.375 -10.046  11.308  0.00  0.00    +0.078 C 
ATOM     31  C   UNL     1      -1.728  -9.544  11.215  0.00  0.00    +0.010 C 
ATOM     32  C   UNL     1      -1.620 -10.305  11.516  0.00  0.00    +0.010 C 
ENDBRANCH  28  30
ENDBRANCH  26  27
ENDBRANCH  25  26
TORSDOF 6
ENDMDL
MODEL 9
REMARK VINA RESULT:      -4.8     16.692     18.636
REMARK  Name = 
REMARK  6 active torsions:
REMARK  status: ('A' for Active; 'I' for Inactive)
REMARK    1  A    between atoms: C_2  and  C_4
REMARK    2  A    between atoms: C_6  and  C_7
REMARK    3  A    between atoms: C_7  and  C_8
REMARK    4  A    between atoms: C_25  and  C_26
REMARK    5  A    between atoms: C_26  and  N_27
REMARK    6  A    between atoms: C_28  and  C_30
REMARK                            x       y       z     vdW  Elec       q    Type
REMARK                         _______ _______ _______ _____ _____    ______ ____
ROOT
ATOM      4  C   UNL     1      -4.208  -9.971  10.798  0.00  0.00    +0.006 C 
ATOM      5  C   UNL     1      -5.020  -9.929  10.659  0.00  0.00    +0.005 C 
ATOM      6  C   UNL     1      -5.550 -10.199  11.231  0.00  0.00    +0.027 C 
ATOM     22  C   UNL     1      -5.269 -10.509  11.941  0.00  0.00    -0.048 C 
ATOM     23  C   UNL     1      -5.799 -10.779  12.513  0.00  0.00    +0.026 C 
ATOM     24  C   UNL     1      -4.456 -10.551  12.080  0.00  0.00    -0.033 C 
ATOM     25  C   UNL     1      -3.926 -10.281  11.509  0.00  0.00    +0.043 C 
ENDROOT
BRANCH   4   2
ATOM      1  C   UNL     1      -3.190  -9.054  10.387  0.00  0.00    +0.000 C 
ATOM      2  C   UNL     1      -3.678  -9.701  10.226  0.00  0.00    +0.000 C 
ATOM      3  C   UNL     1      -3.633 -10.078   9.494  0.00  0.00    +0.000 C 
ENDBRANCH   4   2
BRANCH   6   7
ATOM      7  C   UNL     1      -6.363 -10.158  11.092  0.00  0.00    +0.089 C 
BRANCH   7   8
ATOM      8  C   UNL     1      -6.733  -9.424  11.023  0.00  0.00    +0.226 C 
ATOM      9  O   UNL     1      -6.438  -8.773  11.436  0.00  0.00    -0.275 OA
ATOM     10  N   UNL     1      -7.397  -9.341  10.541  0.00  0.00    -0.276 N 
ATOM     11  C   UNL     1      -7.692  -9.991  10.128  0.00  0.00    +0.115 C 
ATOM     12  C   UNL     1      -8.356  -9.908   9.646  0.00  0.00    +0.114 C 
ATOM     13  N   UNL     1      -8.726  -9.174   9.577  0.00  0.00    -0.290 N 
ATOM     14  C   UNL     1      -8.432  -8.523   9.990  0.00  0.00    +0.114 C 
ATOM     15  C   UNL     1      -7.767  -8.606  10.472  0.00  0.00    +0.115 C 
ATOM     16  C   UNL     1      -9.391  -9.090   9.095  0.00  0.00    +0.132 A 
ATOM     17  N   UNL     1      -9.684  -9.741   8.682  0.00  0.00    -0.229 NA
ATOM     18  C   UNL     1     -10.349  -9.658   8.200  0.00  0.00    +0.100 A 
ATOM     19  C   UNL     1     -10.719  -8.924   8.131  0.00  0.00    +0.021 A 
ATOM     20  C   UNL     1     -10.425  -8.273   8.544  0.00  0.00    +0.004 A 
ATOM     21  C   UNL     1      -9.761  -8.356   9.026  0.00  0.00    +0.034 A 
ENDBRANCH   7   8
ENDBRANCH   6   7
BRANCH  25  26
ATOM     26  C   UNL     1      -3.114 -10.322  11.648  0.00  0.00    +0.119 C 
BRANCH  26  27
ATOM     27  N   UNL     1      -2.824 -10.263  12.418  0.00  0.00    -0.205 NA
ATOM     28  C   UNL     1      -2.046 -10.483  12.584  0.00  0.00    +0.241 C 
ATOM     29  O   UNL     1      -1.559 -10.762  11.980  0.00  0.00    -0.273 OA
BRANCH  28  30
ATOM     30  C   UNL     1      -1.756 -10.423  13.354  0.00  0.00    +0.078 C 
ATOM     31  C   UNL     1      -1.601  -9.971  14.026  0.00  0.00    +0.010 C 
ATOM     32  C   UNL     1      -1.408 -10.773  14.015  0.00  0.00    +0.010 C 
ENDBRANCH  28  30
ENDBRANCH  26  27
ENDBRANCH  25  26
TORSDOF 6
ENDMDL
MODEL 10
REMARK VINA RESULT:      -4.6     14.141     16.191
REMARK  Name = 
REMARK  6 active torsions:
REMARK  status: ('A' for Active; 'I' for Inactive)
REMARK    1  A    between atoms: C_2  and  C_4
REMARK    2  A    between atoms: C_6  and  C_7
REMARK    3  A    between atoms: C_7  and  C_8
REMARK    4  A    between atoms: C_25  and  C_26
REMARK    5  A    between atoms: C_26  and  N_27
REMARK    6  A    between atoms: C_28  and  C_30
REMARK                            x       y       z     vdW  Elec       q    Type
REMARK                         _______ _______ _______ _____ _____    ______ ____
ROOT
ATOM      4  C   UNL     1      -5.854 -10.101  12.764  0.00  0.00    +0.006 C 
ATOM      5  C   UNL     1      -5.915 -10.233  13.576  0.00  0.00    +0.005 C 
ATOM      6  C   UNL     1      -5.240 -10.409  14.017  0.00  0.00    +0.027 C 
ATOM     22  C   UNL     1      -4.504 -10.453  13.646  0.00  0.00    -0.048 C 
ATOM     23  C   UNL     1      -3.830 -10.629  14.087  0.00  0.00    +0.026 C 
ATOM     24  C   UNL     1      -4.444 -10.321  12.833  0.00  0.00    -0.033 C 
ATOM     25  C   UNL     1      -5.119 -10.145  12.392  0.00  0.00    +0.043 C 
ENDROOT
BRANCH   4   2
ATOM      1  C   UNL     1      -6.979 -10.535  11.997  0.00  0.00    +0.000 C 
ATOM      2  C   UNL     1      -6.529  -9.925  12.323  0.00  0.00    +0.000 C 
ATOM      3  C   UNL     1      -6.754  -9.140  12.209  0.00  0.00    +0.000 C 
ENDBRANCH   4   2
BRANCH   6   7
ATOM      7  C   UNL     1      -5.301 -10.541  14.829  0.00  0.00    +0.089 C 
BRANCH   7   8
ATOM      8  C   UNL     1      -5.999 -10.354  15.227  0.00  0.00    +0.226 C 
ATOM      9  O   UNL     1      -6.668 -10.127  14.801  0.00  0.00    -0.275 OA
ATOM     10  N   UNL     1      -6.027 -10.392  16.050  0.00  0.00    -0.276 N 
ATOM     11  C   UNL     1      -5.358 -10.618  16.477  0.00  0.00    +0.115 C 
ATOM     12  C   UNL     1      -5.386 -10.656  17.300  0.00  0.00    +0.114 C 
ATOM     13  N   UNL     1      -6.084 -10.468  17.697  0.00  0.00    -0.290 N 
ATOM     14  C   UNL     1      -6.753 -10.242  17.272  0.00  0.00    +0.114 C 
ATOM     15  C   UNL     1      -6.725 -10.204  16.448  0.00  0.00    +0.115 C 
ATOM     16  C   UNL     1      -6.112 -10.506  18.522  0.00  0.00    +0.132 A 
ATOM     17  N   UNL     1      -5.443 -10.732  18.947  0.00  0.00    -0.229 NA
ATOM     18  C   UNL     1      -5.471 -10.770  19.771  0.00  0.00    +0.100 A 
ATOM     19  C   UNL     1      -6.169 -10.583  20.169  0.00  0.00    +0.021 A 
ATOM     20  C   UNL     1      -6.839 -10.356  19.742  0.00  0.00    +0.004 A 
ATOM     21  C   UNL     1      -6.810 -10.318  18.919  0.00  0.00    +0.034 A 
ENDBRANCH   7   8
ENDBRANCH   6   7
BRANCH  25  26
ATOM     26  C   UNL     1      -5.058 -10.013  11.581  0.00  0.00    +0.119 C 
BRANCH  26  27
ATOM     27  N   UNL     1      -4.388  -9.643  11.272  0.00  0.00    -0.205 NA
ATOM     28  C   UNL     1      -4.212  -9.712  10.469  0.00  0.00    +0.241 C 
ATOM     29  O   UNL     1      -4.706 -10.149   9.975  0.00  0.00    -0.273 OA
BRANCH  28  30
ATOM     30  C   UNL     1      -3.542  -9.342  10.160  0.00  0.00    +0.078 C 
ATOM     31  C   UNL     1      -2.932  -9.316   9.606  0.00  0.00    +0.010 C 
ATOM     32  C   UNL     1      -2.992  -8.728  10.181  0.00  0.00    +0.010 C 
ENDBRANCH  28  30
ENDBRANCH  26  27
ENDBRANCH  25  26
TORSDOF 6
ENDMDL
