MODEL 1
REMARK VINA RESULT:     -10.5      0.000      0.000
REMARK  Name = 
REMARK  5 active torsions:
REMARK  status: ('A' for Active; 'I' for Inactive)
REMARK    1  A    between atoms: C_4  and  C_15
REMARK    2  A    between atoms: C_6  and  C_8
REMARK    3  A    between atoms: C_22  and  C_23
REMARK    4  A    between atoms: C_23  and  N_24
REMARK    5  A    between atoms: C_25  and  C_27
REMARK                            x       y       z     vdW  Elec       q    Type
REMARK                         _______ _______ _______ _____ _____    ______ ____
ROOT
ATOM     15  C   UNL     1      -0.391  -0.431  24.161  0.00  0.00    +0.056 C 
ATOM     16  C   UNL     1       0.029  -1.016  23.867  0.00  0.00    +0.078 C 
ATOM     17  N   UNL     1       0.146  -0.211  23.724  0.00  0.00    -0.272 NA
ATOM     18  C   UNL     1      -0.585   0.309  24.266  0.00  0.00    +0.072 C 
ATOM     19  C   UNL     1      -0.863   0.871  24.450  0.00  0.00    +0.018 C 
ATOM     20  C   UNL     1      -0.271   0.357  24.016  0.00  0.00    +0.010 C 
ATOM     21  C   UNL     1       0.320   0.780  23.523  0.00  0.00    +0.018 C 
ATOM     22  C   UNL     1       0.756   0.236  23.213  0.00  0.00    +0.079 C 
ENDROOT
BRANCH  15   4
ATOM      1  C   UNL     1      -1.436  -0.733  26.805  0.00  0.00    +0.074 C 
ATOM      2  C   UNL     1      -1.536  -0.781  25.987  0.00  0.00    +0.139 A 
ATOM      3  N   UNL     1      -0.914  -0.582  25.483  0.00  0.00    -0.235 NA
ATOM      4  C   UNL     1      -1.014  -0.630  24.666  0.00  0.00    +0.063 A 
ATOM      5  C   UNL     1      -1.736  -0.876  24.352  0.00  0.00    +0.034 A 
ATOM      6  C   UNL     1      -2.358  -1.075  24.855  0.00  0.00    +0.084 A 
ATOM      7  N   UNL     1      -2.259  -1.027  25.673  0.00  0.00    -0.231 NA
BRANCH   6   8
ATOM      8  C   UNL     1      -3.080  -1.322  24.542  0.00  0.00    +0.024 A 
ATOM      9  C   UNL     1      -3.232  -2.126  24.441  0.00  0.00    +0.036 A 
ATOM     10 BR   UNL     1      -2.662  -2.683  24.653  0.00  0.00    -0.049 Br
ATOM     11  C   UNL     1      -3.954  -2.374  24.128  0.00  0.00    +0.007 A 
ATOM     12  C   UNL     1      -4.525  -1.816  23.916  0.00  0.00    +0.001 A 
ATOM     13  C   UNL     1      -4.372  -1.012  24.018  0.00  0.00    +0.000 A 
ATOM     14  C   UNL     1      -3.650  -0.764  24.331  0.00  0.00    +0.002 A 
ENDBRANCH   6   8
ENDBRANCH  15   4
BRANCH  22  23
ATOM     23  C   UNL     1       1.401   0.121  22.712  0.00  0.00    +0.131 C 
BRANCH  23  24
ATOM     24  N   UNL     1       2.169   0.224  22.996  0.00  0.00    -0.200 NA
ATOM     25  C   UNL     1       2.810   0.164  22.481  0.00  0.00    +0.271 C 
ATOM     26  O   UNL     1       2.684   0.002  21.682  0.00  0.00    -0.268 OA
BRANCH  25  27
ATOM     27  C   UNL     1       3.578   0.268  22.765  0.00  0.00    +0.084 A 
ATOM     28  C   UNL     1       4.004  -0.273  23.219  0.00  0.00    +0.012 A 
ATOM     29  C   UNL     1       4.743   0.054  23.379  0.00  0.00    +0.008 A 
ATOM     30  C   UNL     1       4.775   0.799  23.025  0.00  0.00    +0.036 A 
ATOM     31  S   UNL     1       4.054   0.930  22.645  0.00  0.00    -0.082 S 
ENDBRANCH  25  27
ENDBRANCH  23  24
ENDBRANCH  22  23
TORSDOF 5
ENDMDL
MODEL 2
REMARK VINA RESULT:     -10.4      2.138      3.037
REMARK  Name = 
REMARK  5 active torsions:
REMARK  status: ('A' for Active; 'I' for Inactive)
REMARK    1  A    between atoms: C_4  and  C_15
REMARK    2  A    between atoms: C_6  and  C_8
REMARK    3  A    between atoms: C_22  and  C_23
REMARK    4  A    between atoms: C_23  and  N_24
REMARK    5  A    between atoms: C_25  and  C_27
REMARK                            x       y       z     vdW  Elec       q    Type
REMARK                         _______ _______ _______ _____ _____    ______ ____
ROOT
ATOM     15  C   UNL     1      -1.142   0.709  23.958  0.00  0.00    +0.056 C 
ATOM     16  C   UNL     1      -1.010   0.913  23.218  0.00  0.00    +0.078 C 
ATOM     17  N   UNL     1      -0.511   0.461  23.696  0.00  0.00    -0.272 NA
ATOM     18  C   UNL     1      -0.978   0.368  24.630  0.00  0.00    +0.072 C 
ATOM     19  C   UNL     1      -0.982   0.142  25.243  0.00  0.00    +0.018 C 
ATOM     20  C   UNL     1      -0.648   0.266  24.420  0.00  0.00    +0.010 C 
ATOM     21  C   UNL     1       0.133  -0.103  24.262  0.00  0.00    +0.018 C 
ATOM     22  C   UNL     1       0.300   0.075  23.538  0.00  0.00    +0.079 C 
ENDROOT
BRANCH  15   4
ATOM      1  C   UNL     1      -3.789   0.163  24.888  0.00  0.00    +0.074 C 
ATOM      2  C   UNL     1      -3.171   0.695  24.765  0.00  0.00    +0.139 A 
ATOM      3  N   UNL     1      -2.466   0.436  24.423  0.00  0.00    -0.235 NA
ATOM      4  C   UNL     1      -1.848   0.969  24.300  0.00  0.00    +0.063 A 
ATOM      5  C   UNL     1      -1.933   1.759  24.519  0.00  0.00    +0.034 A 
ATOM      6  C   UNL     1      -2.638   2.017  24.862  0.00  0.00    +0.084 A 
ATOM      7  N   UNL     1      -3.257   1.486  24.985  0.00  0.00    -0.231 NA
BRANCH   6   8
ATOM      8  C   UNL     1      -2.725   2.808  25.081  0.00  0.00    +0.024 A 
ATOM      9  C   UNL     1      -3.205   3.309  24.636  0.00  0.00    +0.036 A 
ATOM     10 BR   UNL     1      -3.599   3.020  23.971  0.00  0.00    -0.049 Br
ATOM     11  C   UNL     1      -3.293   4.100  24.855  0.00  0.00    +0.007 A 
ATOM     12  C   UNL     1      -2.899   4.389  25.520  0.00  0.00    +0.001 A 
ATOM     13  C   UNL     1      -2.419   3.888  25.965  0.00  0.00    +0.000 A 
ATOM     14  C   UNL     1      -2.331   3.097  25.746  0.00  0.00    +0.002 A 
ENDBRANCH   6   8
ENDBRANCH  15   4
BRANCH  22  23
ATOM     23  C   UNL     1       0.877  -0.025  22.957  0.00  0.00    +0.131 C 
BRANCH  23  24
ATOM     24  N   UNL     1       1.662   0.171  23.116  0.00  0.00    -0.200 NA
ATOM     25  C   UNL     1       2.232   0.103  22.524  0.00  0.00    +0.271 C 
ATOM     26  O   UNL     1       2.017  -0.160  21.772  0.00  0.00    -0.268 OA
BRANCH  25  27
ATOM     27  C   UNL     1       3.017   0.299  22.683  0.00  0.00    +0.084 A 
ATOM     28  C   UNL     1       3.343   1.056  22.658  0.00  0.00    +0.012 A 
ATOM     29  C   UNL     1       4.142   0.997  22.855  0.00  0.00    +0.008 A 
ATOM     30  C   UNL     1       4.310   0.203  23.001  0.00  0.00    +0.036 A 
ATOM     31  S   UNL     1       3.615  -0.228  22.895  0.00  0.00    -0.082 S 
ENDBRANCH  25  27
ENDBRANCH  23  24
ENDBRANCH  22  23
TORSDOF 5
ENDMDL
MODEL 3
REMARK VINA RESULT:     -10.2      2.236      2.777
REMARK  Name = 
REMARK  5 active torsions:
REMARK  status: ('A' for Active; 'I' for Inactive)
REMARK    1  A    between atoms: C_4  and  C_15
REMARK    2  A    between atoms: C_6  and  C_8
REMARK    3  A    between atoms: C_22  and  C_23
REMARK    4  A    between atoms: C_23  and  N_24
REMARK    5  A    between atoms: C_25  and  C_27
REMARK                            x       y       z     vdW  Elec       q    Type
REMARK                         _______ _______ _______ _____ _____    ______ ____
ROOT
ATOM     15  C   UNL     1      -1.046   1.525  24.283  0.00  0.00    +0.056 C 
ATOM     16  C   UNL     1      -0.870   1.707  23.547  0.00  0.00    +0.078 C 
ATOM     17  N   UNL     1      -0.529   1.103  23.995  0.00  0.00    -0.272 NA
ATOM     18  C   UNL     1      -0.985   1.123  24.939  0.00  0.00    +0.072 C 
ATOM     19  C   UNL     1      -1.049   0.885  25.544  0.00  0.00    +0.018 C 
ATOM     20  C   UNL     1      -0.707   0.931  24.716  0.00  0.00    +0.010 C 
ATOM     21  C   UNL     1      -0.084   0.344  24.522  0.00  0.00    +0.018 C 
ATOM     22  C   UNL     1       0.118   0.489  23.800  0.00  0.00    +0.079 C 
ENDROOT
BRANCH  15   4
ATOM      1  C   UNL     1      -1.783   3.736  25.938  0.00  0.00    +0.074 C 
ATOM      2  C   UNL     1      -1.997   3.083  25.482  0.00  0.00    +0.139 A 
ATOM      3  N   UNL     1      -1.415   2.631  25.111  0.00  0.00    -0.235 NA
ATOM      4  C   UNL     1      -1.629   1.977  24.655  0.00  0.00    +0.063 A 
ATOM      5  C   UNL     1      -2.424   1.775  24.570  0.00  0.00    +0.034 A 
ATOM      6  C   UNL     1      -3.005   2.227  24.942  0.00  0.00    +0.084 A 
ATOM      7  N   UNL     1      -2.792   2.881  25.398  0.00  0.00    -0.231 NA
BRANCH   6   8
ATOM      8  C   UNL     1      -3.801   2.026  24.858  0.00  0.00    +0.024 A 
ATOM      9  C   UNL     1      -4.288   2.468  24.359  0.00  0.00    +0.036 A 
ATOM     10 BR   UNL     1      -3.978   3.111  23.945  0.00  0.00    -0.049 Br
ATOM     11  C   UNL     1      -5.084   2.267  24.274  0.00  0.00    +0.007 A 
ATOM     12  C   UNL     1      -5.393   1.624  24.689  0.00  0.00    +0.001 A 
ATOM     13  C   UNL     1      -4.906   1.182  25.187  0.00  0.00    +0.000 A 
ATOM     14  C   UNL     1      -4.110   1.383  25.271  0.00  0.00    +0.002 A 
ENDBRANCH   6   8
ENDBRANCH  15   4
BRANCH  22  23
ATOM     23  C   UNL     1       0.623   0.239  23.199  0.00  0.00    +0.131 C 
BRANCH  23  24
ATOM     24  N   UNL     1       1.434   0.381  23.255  0.00  0.00    -0.200 NA
ATOM     25  C   UNL     1       1.936   0.147  22.644  0.00  0.00    +0.271 C 
ATOM     26  O   UNL     1       1.629  -0.229  21.978  0.00  0.00    -0.268 OA
BRANCH  25  27
ATOM     27  C   UNL     1       2.747   0.289  22.700  0.00  0.00    +0.084 A 
ATOM     28  C   UNL     1       3.109   1.030  22.725  0.00  0.00    +0.012 A 
ATOM     29  C   UNL     1       3.924   0.914  22.782  0.00  0.00    +0.008 A 
ATOM     30  C   UNL     1       4.066   0.102  22.792  0.00  0.00    +0.036 A 
ATOM     31  S   UNL     1       3.338  -0.284  22.742  0.00  0.00    -0.082 S 
ENDBRANCH  25  27
ENDBRANCH  23  24
ENDBRANCH  22  23
TORSDOF 5
ENDMDL
MODEL 4
REMARK VINA RESULT:      -9.9      3.213      5.362
REMARK  Name = 
REMARK  5 active torsions:
REMARK  status: ('A' for Active; 'I' for Inactive)
REMARK    1  A    between atoms: C_4  and  C_15
REMARK    2  A    between atoms: C_6  and  C_8
REMARK    3  A    between atoms: C_22  and  C_23
REMARK    4  A    between atoms: C_23  and  N_24
REMARK    5  A    between atoms: C_25  and  C_27
REMARK                            x       y       z     vdW  Elec       q    Type
REMARK                         _______ _______ _______ _____ _____    ______ ____
ROOT
ATOM     15  C   UNL     1      -0.834   0.932  25.356  0.00  0.00    +0.056 C 
ATOM     16  C   UNL     1      -1.309   0.470  25.764  0.00  0.00    +0.078 C 
ATOM     17  N   UNL     1      -0.918   0.272  25.064  0.00  0.00    -0.272 NA
ATOM     18  C   UNL     1      -0.361   1.111  24.772  0.00  0.00    +0.072 C 
ATOM     19  C   UNL     1       0.048   1.404  24.356  0.00  0.00    +0.018 C 
ATOM     20  C   UNL     1      -0.454   0.731  24.670  0.00  0.00    +0.010 C 
ATOM     21  C   UNL     1      -0.448  -0.008  24.196  0.00  0.00    +0.018 C 
ATOM     22  C   UNL     1      -0.907  -0.493  24.567  0.00  0.00    +0.079 C 
ENDROOT
BRANCH  15   4
ATOM      1  C   UNL     1       0.805   2.799  26.771  0.00  0.00    +0.074 C 
ATOM      2  C   UNL     1       0.113   2.627  26.355  0.00  0.00    +0.139 A 
ATOM      3  N   UNL     1      -0.014   1.866  26.064  0.00  0.00    -0.235 NA
ATOM      4  C   UNL     1      -0.706   1.695  25.648  0.00  0.00    +0.063 A 
ATOM      5  C   UNL     1      -1.269   2.283  25.523  0.00  0.00    +0.034 A 
ATOM      6  C   UNL     1      -1.141   3.044  25.814  0.00  0.00    +0.084 A 
ATOM      7  N   UNL     1      -0.450   3.217  26.230  0.00  0.00    -0.231 NA
BRANCH   6   8
ATOM      8  C   UNL     1      -1.705   3.634  25.689  0.00  0.00    +0.024 A 
ATOM      9  C   UNL     1      -1.512   4.301  25.243  0.00  0.00    +0.036 A 
ATOM     10 BR   UNL     1      -0.756   4.377  24.921  0.00  0.00    -0.049 Br
ATOM     11  C   UNL     1      -2.074   4.891  25.118  0.00  0.00    +0.007 A 
ATOM     12  C   UNL     1      -2.831   4.815  25.440  0.00  0.00    +0.001 A 
ATOM     13  C   UNL     1      -3.023   4.149  25.886  0.00  0.00    +0.000 A 
ATOM     14  C   UNL     1      -2.460   3.558  26.011  0.00  0.00    +0.002 A 
ENDBRANCH   6   8
ENDBRANCH  15   4
BRANCH  22  23
ATOM     23  C   UNL     1      -1.213  -1.258  24.535  0.00  0.00    +0.131 C 
BRANCH  23  24
ATOM     24  N   UNL     1      -2.011  -1.377  24.364  0.00  0.00    -0.200 NA
ATOM     25  C   UNL     1      -2.332  -2.136  24.404  0.00  0.00    +0.271 C 
ATOM     26  O   UNL     1      -1.856  -2.775  24.616  0.00  0.00    -0.268 OA
BRANCH  25  27
ATOM     27  C   UNL     1      -3.130  -2.255  24.233  0.00  0.00    +0.084 A 
ATOM     28  C   UNL     1      -3.676  -1.670  24.033  0.00  0.00    +0.012 A 
ATOM     29  C   UNL     1      -4.406  -2.033  23.907  0.00  0.00    +0.008 A 
ATOM     30  C   UNL     1      -4.311  -2.844  24.030  0.00  0.00    +0.036 A 
ATOM     31  S   UNL     1      -3.523  -2.980  24.231  0.00  0.00    -0.082 S 
ENDBRANCH  25  27
ENDBRANCH  23  24
ENDBRANCH  22  23
TORSDOF 5
ENDMDL
MODEL 5
REMARK VINA RESULT:      -9.8      2.675      3.763
REMARK  Name = 
REMARK  5 active torsions:
REMARK  status: ('A' for Active; 'I' for Inactive)
REMARK    1  A    between atoms: C_4  and  C_15
REMARK    2  A    between atoms: C_6  and  C_8
REMARK    3  A    between atoms: C_22  and  C_23
REMARK    4  A    between atoms: C_23  and  N_24
REMARK    5  A    between atoms: C_25  and  C_27
REMARK                            x       y       z     vdW  Elec       q    Type
REMARK                         _______ _______ _______ _____ _____    ______ ____
ROOT
ATOM     15  C   UNL     1      -0.759   0.154  24.927  0.00  0.00    +0.056 C 
ATOM     16  C   UNL     1      -0.912   0.574  25.564  0.00  0.00    +0.078 C 
ATOM     17  N   UNL     1      -0.504   0.834  24.896  0.00  0.00    -0.272 NA
ATOM     18  C   UNL     1      -0.468   0.031  24.222  0.00  0.00    +0.072 C 
ATOM     19  C   UNL     1      -0.285  -0.220  23.648  0.00  0.00    +0.018 C 
ATOM     20  C   UNL     1      -0.357   0.417  24.275  0.00  0.00    +0.010 C 
ATOM     21  C   UNL     1       0.008   1.191  24.081  0.00  0.00    +0.018 C 
ATOM     22  C   UNL     1      -0.122   1.637  24.688  0.00  0.00    +0.079 C 
ENDROOT
BRANCH  15   4
ATOM      1  C   UNL     1      -0.263  -2.641  25.262  0.00  0.00    +0.074 C 
ATOM      2  C   UNL     1      -0.780  -2.024  25.082  0.00  0.00    +0.139 A 
ATOM      3  N   UNL     1      -0.511  -1.244  25.094  0.00  0.00    -0.235 NA
ATOM      4  C   UNL     1      -1.028  -0.627  24.914  0.00  0.00    +0.063 A 
ATOM      5  C   UNL     1      -1.814  -0.788  24.723  0.00  0.00    +0.034 A 
ATOM      6  C   UNL     1      -2.083  -1.568  24.710  0.00  0.00    +0.084 A 
ATOM      7  N   UNL     1      -1.566  -2.186  24.890  0.00  0.00    -0.231 NA
BRANCH   6   8
ATOM      8  C   UNL     1      -2.868  -1.731  24.518  0.00  0.00    +0.024 A 
ATOM      9  C   UNL     1      -3.443  -1.743  25.110  0.00  0.00    +0.036 A 
ATOM     10 BR   UNL     1      -3.232  -1.592  25.893  0.00  0.00    -0.049 Br
ATOM     11  C   UNL     1      -4.229  -1.906  24.919  0.00  0.00    +0.007 A 
ATOM     12  C   UNL     1      -4.440  -2.056  24.135  0.00  0.00    +0.001 A 
ATOM     13  C   UNL     1      -3.866  -2.044  23.544  0.00  0.00    +0.000 A 
ATOM     14  C   UNL     1      -3.079  -1.881  23.735  0.00  0.00    +0.002 A 
ENDBRANCH   6   8
ENDBRANCH  15   4
BRANCH  22  23
ATOM     23  C   UNL     1       0.007   2.396  24.981  0.00  0.00    +0.131 C 
BRANCH  23  24
ATOM     24  N   UNL     1      -0.580   2.972  24.910  0.00  0.00    -0.200 NA
ATOM     25  C   UNL     1      -0.504   3.688  25.311  0.00  0.00    +0.271 C 
ATOM     26  O   UNL     1       0.157   3.831  25.782  0.00  0.00    -0.268 OA
BRANCH  25  27
ATOM     27  C   UNL     1      -1.091   4.264  25.240  0.00  0.00    +0.084 A 
ATOM     28  C   UNL     1      -0.996   5.017  24.918  0.00  0.00    +0.012 A 
ATOM     29  C   UNL     1      -1.722   5.406  24.958  0.00  0.00    +0.008 A 
ATOM     30  C   UNL     1      -2.267   4.893  25.305  0.00  0.00    +0.036 A 
ATOM     31  S   UNL     1      -1.877   4.187  25.479  0.00  0.00    -0.082 S 
ENDBRANCH  25  27
ENDBRANCH  23  24
ENDBRANCH  22  23
TORSDOF 5
ENDMDL
MODEL 6
REMARK VINA RESULT:      -9.7      3.356      5.169
REMARK  Name = 
REMARK  5 active torsions:
REMARK  status: ('A' for Active; 'I' for Inactive)
REMARK    1  A    between atoms: C_4  and  C_15
REMARK    2  A    between atoms: C_6  and  C_8
REMARK    3  A    between atoms: C_22  and  C_23
REMARK    4  A    between atoms: C_23  and  N_24
REMARK    5  A    between atoms: C_25  and  C_27
REMARK                            x       y       z     vdW  Elec       q    Type
REMARK                         _______ _______ _______ _____ _____    ______ ____
ROOT
ATOM     15  C   UNL     1      -1.443   1.554  24.918  0.00  0.00    +0.056 C 
ATOM     16  C   UNL     1      -1.760   1.111  24.362  0.00  0.00    +0.078 C 
ATOM     17  N   UNL     1      -1.256   0.853  24.963  0.00  0.00    -0.272 NA
ATOM     18  C   UNL     1      -1.010   1.692  25.542  0.00  0.00    +0.072 C 
ATOM     19  C   UNL     1      -0.693   1.961  26.046  0.00  0.00    +0.018 C 
ATOM     20  C   UNL     1      -0.950   1.293  25.505  0.00  0.00    +0.010 C 
ATOM     21  C   UNL     1      -0.633   0.498  25.697  0.00  0.00    +0.018 C 
ATOM     22  C   UNL     1      -0.923   0.029  25.169  0.00  0.00    +0.079 C 
ENDROOT
BRANCH  15   4
ATOM      1  C   UNL     1      -0.645   4.269  24.518  0.00  0.00    +0.074 C 
ATOM      2  C   UNL     1      -1.227   3.717  24.709  0.00  0.00    +0.139 A 
ATOM      3  N   UNL     1      -1.044   2.912  24.718  0.00  0.00    -0.235 NA
ATOM      4  C   UNL     1      -1.626   2.359  24.909  0.00  0.00    +0.063 A 
ATOM      5  C   UNL     1      -2.390   2.610  25.091  0.00  0.00    +0.034 A 
ATOM      6  C   UNL     1      -2.573   3.414  25.082  0.00  0.00    +0.084 A 
ATOM      7  N   UNL     1      -1.992   3.968  24.891  0.00  0.00    -0.231 NA
BRANCH   6   8
ATOM      8  C   UNL     1      -3.337   3.667  25.265  0.00  0.00    +0.024 A 
ATOM      9  C   UNL     1      -3.905   3.725  24.669  0.00  0.00    +0.036 A 
ATOM     10 BR   UNL     1      -3.708   3.531  23.892  0.00  0.00    -0.049 Br
ATOM     11  C   UNL     1      -4.669   3.977  24.850  0.00  0.00    +0.007 A 
ATOM     12  C   UNL     1      -4.866   4.171  25.628  0.00  0.00    +0.001 A 
ATOM     13  C   UNL     1      -4.298   4.112  26.223  0.00  0.00    +0.000 A 
ATOM     14  C   UNL     1      -3.534   3.860  26.042  0.00  0.00    +0.002 A 
ENDBRANCH   6   8
ENDBRANCH  15   4
BRANCH  22  23
ATOM     23  C   UNL     1      -0.930  -0.759  24.927  0.00  0.00    +0.131 C 
BRANCH  23  24
ATOM     24  N   UNL     1      -1.647  -1.160  24.845  0.00  0.00    -0.200 NA
ATOM     25  C   UNL     1      -1.653  -1.980  24.760  0.00  0.00    +0.271 C 
ATOM     26  O   UNL     1      -0.943  -2.401  24.757  0.00  0.00    -0.268 OA
BRANCH  25  27
ATOM     27  C   UNL     1      -2.369  -2.381  24.678  0.00  0.00    +0.084 A 
ATOM     28  C   UNL     1      -3.016  -2.327  25.186  0.00  0.00    +0.012 A 
ATOM     29  C   UNL     1      -3.611  -2.818  24.896  0.00  0.00    +0.008 A 
ATOM     30  C   UNL     1      -3.332  -3.176  24.207  0.00  0.00    +0.036 A 
ATOM     31  S   UNL     1      -2.565  -2.905  24.072  0.00  0.00    -0.082 S 
ENDBRANCH  25  27
ENDBRANCH  23  24
ENDBRANCH  22  23
TORSDOF 5
ENDMDL
MODEL 7
REMARK VINA RESULT:      -9.2      3.990      5.822
REMARK  Name = 
REMARK  5 active torsions:
REMARK  status: ('A' for Active; 'I' for Inactive)
REMARK    1  A    between atoms: C_4  and  C_15
REMARK    2  A    between atoms: C_6  and  C_8
REMARK    3  A    between atoms: C_22  and  C_23
REMARK    4  A    between atoms: C_23  and  N_24
REMARK    5  A    between atoms: C_25  and  C_27
REMARK                            x       y       z     vdW  Elec       q    Type
REMARK                         _______ _______ _______ _____ _____    ______ ____
ROOT
ATOM     15  C   UNL     1      -4.058   1.595  24.977  0.00  0.00    +0.056 C 
ATOM     16  C   UNL     1      -3.856   1.149  25.582  0.00  0.00    +0.078 C 
ATOM     17  N   UNL     1      -4.043   0.885  24.823  0.00  0.00    -0.272 NA
ATOM     18  C   UNL     1      -4.269   1.731  24.247  0.00  0.00    +0.072 C 
ATOM     19  C   UNL     1      -4.446   2.000  23.679  0.00  0.00    +0.018 C 
ATOM     20  C   UNL     1      -4.240   1.327  24.235  0.00  0.00    +0.010 C 
ATOM     21  C   UNL     1      -4.270   0.520  23.891  0.00  0.00    +0.018 C 
ATOM     22  C   UNL     1      -4.077   0.048  24.459  0.00  0.00    +0.079 C 
ENDROOT
BRANCH  15   4
ATOM      1  C   UNL     1      -5.560   3.954  25.567  0.00  0.00    +0.074 C 
ATOM      2  C   UNL     1      -4.840   3.590  25.396  0.00  0.00    +0.139 A 
ATOM      3  N   UNL     1      -4.809   2.775  25.272  0.00  0.00    -0.235 NA
ATOM      4  C   UNL     1      -4.088   2.411  25.102  0.00  0.00    +0.063 A 
ATOM      5  C   UNL     1      -3.399   2.861  25.056  0.00  0.00    +0.034 A 
ATOM      6  C   UNL     1      -3.430   3.675  25.181  0.00  0.00    +0.084 A 
ATOM      7  N   UNL     1      -4.150   4.040  25.351  0.00  0.00    -0.231 NA
BRANCH   6   8
ATOM      8  C   UNL     1      -2.740   4.126  25.136  0.00  0.00    +0.024 A 
ATOM      9  C   UNL     1      -2.309   4.290  25.820  0.00  0.00    +0.036 A 
ATOM     10 BR   UNL     1      -2.568   4.003  26.549  0.00  0.00    -0.049 Br
ATOM     11  C   UNL     1      -1.620   4.741  25.776  0.00  0.00    +0.007 A 
ATOM     12  C   UNL     1      -1.361   5.029  25.046  0.00  0.00    +0.001 A 
ATOM     13  C   UNL     1      -1.792   4.865  24.363  0.00  0.00    +0.000 A 
ATOM     14  C   UNL     1      -2.482   4.414  24.407  0.00  0.00    +0.002 A 
ENDBRANCH   6   8
ENDBRANCH  15   4
BRANCH  22  23
ATOM     23  C   UNL     1      -3.964  -0.749  24.638  0.00  0.00    +0.131 C 
BRANCH  23  24
ATOM     24  N   UNL     1      -3.231  -1.102  24.507  0.00  0.00    -0.200 NA
ATOM     25  C   UNL     1      -3.083  -1.862  24.791  0.00  0.00    +0.271 C 
ATOM     26  O   UNL     1      -3.668  -2.269  25.207  0.00  0.00    -0.268 OA
BRANCH  25  27
ATOM     27  C   UNL     1      -2.349  -2.215  24.660  0.00  0.00    +0.084 A 
ATOM     28  C   UNL     1      -2.201  -2.858  24.165  0.00  0.00    +0.012 A 
ATOM     29  C   UNL     1      -1.395  -3.028  24.200  0.00  0.00    +0.008 A 
ATOM     30  C   UNL     1      -1.044  -2.490  24.717  0.00  0.00    +0.036 A 
ATOM     31  S   UNL     1      -1.633  -1.988  25.001  0.00  0.00    -0.082 S 
ENDBRANCH  25  27
ENDBRANCH  23  24
ENDBRANCH  22  23
TORSDOF 5
ENDMDL
