MODEL 1
REMARK VINA RESULT:      -9.0      0.000      0.000
REMARK  Name = 
REMARK  6 active torsions:
REMARK  status: ('A' for Active; 'I' for Inactive)
REMARK    1  A    between atoms: C_2  and  C_4
REMARK    2  A    between atoms: C_6  and  C_7
REMARK    3  A    between atoms: C_7  and  C_8
REMARK    4  A    between atoms: C_22  and  C_23
REMARK    5  A    between atoms: C_23  and  N_24
REMARK    6  A    between atoms: C_25  and  C_27
REMARK                            x       y       z     vdW  Elec       q    Type
REMARK                         _______ _______ _______ _____ _____    ______ ____
ROOT
ATOM      4  C   UNL     1      -2.068   0.029  24.715  0.00  0.00    +0.006 C 
ATOM      5  C   UNL     1      -1.265   0.077  24.534  0.00  0.00    +0.005 C 
ATOM      6  C   UNL     1      -0.949   0.779  24.240  0.00  0.00    +0.027 C 
ATOM     19  C   UNL     1      -1.436   1.435  24.127  0.00  0.00    -0.048 C 
ATOM     20  C   UNL     1      -1.120   2.138  23.832  0.00  0.00    +0.026 C 
ATOM     21  C   UNL     1      -2.240   1.388  24.308  0.00  0.00    -0.033 C 
ATOM     22  C   UNL     1      -2.556   0.686  24.602  0.00  0.00    +0.043 C 
ENDROOT
BRANCH   4   2
ATOM      1  C   UNL     1      -2.753  -1.206  24.497  0.00  0.00    +0.000 C 
ATOM      2  C   UNL     1      -2.384  -0.674  25.009  0.00  0.00    +0.000 C 
ATOM      3  C   UNL     1      -2.332  -0.844  25.814  0.00  0.00    +0.000 C 
ENDBRANCH   4   2
BRANCH   6   7
ATOM      7  C   UNL     1      -0.145   0.826  24.058  0.00  0.00    +0.089 C 
BRANCH   7   8
ATOM      8  C   UNL     1       0.179   0.326  23.487  0.00  0.00    +0.226 C 
ATOM      9  O   UNL     1      -0.291  -0.249  23.129  0.00  0.00    -0.275 OA
ATOM     10  N   UNL     1       0.972   0.402  23.276  0.00  0.00    -0.276 N 
ATOM     11  C   UNL     1       1.442   0.978  23.635  0.00  0.00    +0.115 C 
ATOM     12  C   UNL     1       2.235   1.054  23.423  0.00  0.00    +0.115 C 
ATOM     13  N   UNL     1       2.560   0.554  22.852  0.00  0.00    -0.276 N 
ATOM     14  C   UNL     1       2.091  -0.021  22.493  0.00  0.00    +0.115 C 
ATOM     15  C   UNL     1       1.297  -0.098  22.704  0.00  0.00    +0.115 C 
ATOM     16  C   UNL     1       3.354   0.630  22.640  0.00  0.00    +0.226 C 
ATOM     17  C   UNL     1       3.678   0.131  22.069  0.00  0.00    +0.095 C 
ATOM     18  O   UNL     1       3.823   1.205  22.999  0.00  0.00    -0.275 OA
ENDBRANCH   7   8
ENDBRANCH   6   7
BRANCH  22  23
ATOM     23  C   UNL     1      -3.359   0.638  24.783  0.00  0.00    +0.120 C 
BRANCH  23  24
ATOM     24  N   UNL     1      -3.767   1.310  25.034  0.00  0.00    -0.201 NA
ATOM     25  C   UNL     1      -4.590   1.333  24.991  0.00  0.00    +0.268 C 
ATOM     26  O   UNL     1      -5.006   0.684  24.697  0.00  0.00    -0.268 OA
BRANCH  25  27
ATOM     27  C   UNL     1      -4.997   2.006  25.243  0.00  0.00    +0.093 A 
ATOM     28  C   UNL     1      -5.550   1.949  25.853  0.00  0.00    +0.107 A 
ATOM     29  N   UNL     1      -5.958   2.621  26.104  0.00  0.00    -0.222 NA
ATOM     30  C   UNL     1      -5.812   3.350  25.745  0.00  0.00    +0.199 A 
ATOM     31  N   UNL     1      -5.259   3.406  25.135  0.00  0.00    -0.222 NA
ATOM     32  C   UNL     1      -4.852   2.734  24.884  0.00  0.00    +0.107 A 
ENDBRANCH  25  27
ENDBRANCH  23  24
ENDBRANCH  22  23
TORSDOF 6
ENDMDL
MODEL 2
REMARK VINA RESULT:      -8.7      1.309      1.640
REMARK  Name = 
REMARK  6 active torsions:
REMARK  status: ('A' for Active; 'I' for Inactive)
REMARK    1  A    between atoms: C_2  and  C_4
REMARK    2  A    between atoms: C_6  and  C_7
REMARK    3  A    between atoms: C_7  and  C_8
REMARK    4  A    between atoms: C_22  and  C_23
REMARK    5  A    between atoms: C_23  and  N_24
REMARK    6  A    between atoms: C_25  and  C_27
REMARK                            x       y       z     vdW  Elec       q    Type
REMARK                         _______ _______ _______ _____ _____    ______ ____
ROOT
ATOM      4  C   UNL     1      -2.169   1.837  23.410  0.00  0.00    +0.006 C 
ATOM      5  C   UNL     1      -1.394   1.568  23.486  0.00  0.00    +0.005 C 
ATOM      6  C   UNL     1      -1.029   1.565  24.225  0.00  0.00    +0.027 C 
ATOM     19  C   UNL     1      -1.439   1.832  24.889  0.00  0.00    -0.048 C 
ATOM     20  C   UNL     1      -1.074   1.830  25.629  0.00  0.00    +0.026 C 
ATOM     21  C   UNL     1      -2.216   2.102  24.813  0.00  0.00    -0.033 C 
ATOM     22  C   UNL     1      -2.580   2.105  24.074  0.00  0.00    +0.043 C 
ENDROOT
BRANCH   4   2
ATOM      1  C   UNL     1      -2.966   1.182  22.421  0.00  0.00    +0.000 C 
ATOM      2  C   UNL     1      -2.535   1.840  22.670  0.00  0.00    +0.000 C 
ATOM      3  C   UNL     1      -2.469   2.500  22.180  0.00  0.00    +0.000 C 
ENDBRANCH   4   2
BRANCH   6   7
ATOM      7  C   UNL     1      -0.252   1.295  24.301  0.00  0.00    +0.089 C 
BRANCH   7   8
ATOM      8  C   UNL     1      -0.005   0.626  23.886  0.00  0.00    +0.226 C 
ATOM      9  O   UNL     1      -0.521  -0.010  23.785  0.00  0.00    -0.275 OA
ATOM     10  N   UNL     1       0.757   0.594  23.573  0.00  0.00    -0.276 N 
ATOM     11  C   UNL     1       1.273   1.230  23.675  0.00  0.00    +0.115 C 
ATOM     12  C   UNL     1       2.035   1.198  23.361  0.00  0.00    +0.115 C 
ATOM     13  N   UNL     1       2.282   0.528  22.946  0.00  0.00    -0.276 N 
ATOM     14  C   UNL     1       1.767  -0.108  22.844  0.00  0.00    +0.115 C 
ATOM     15  C   UNL     1       1.004  -0.076  23.158  0.00  0.00    +0.115 C 
ATOM     16  C   UNL     1       3.045   0.496  22.633  0.00  0.00    +0.226 C 
ATOM     17  C   UNL     1       3.292  -0.173  22.218  0.00  0.00    +0.095 C 
ATOM     18  O   UNL     1       3.560   1.131  22.734  0.00  0.00    -0.275 OA
ENDBRANCH   7   8
ENDBRANCH   6   7
BRANCH  22  23
ATOM     23  C   UNL     1      -3.356   2.374  23.997  0.00  0.00    +0.120 C 
BRANCH  23  24
ATOM     24  N   UNL     1      -3.913   2.203  24.582  0.00  0.00    -0.201 NA
ATOM     25  C   UNL     1      -4.611   2.639  24.626  0.00  0.00    +0.268 C 
ATOM     26  O   UNL     1      -4.753   3.247  24.087  0.00  0.00    -0.268 OA
BRANCH  25  27
ATOM     27  C   UNL     1      -5.168   2.467  25.212  0.00  0.00    +0.093 A 
ATOM     28  C   UNL     1      -5.614   1.774  25.165  0.00  0.00    +0.107 A 
ATOM     29  N   UNL     1      -6.170   1.603  25.750  0.00  0.00    -0.222 NA
ATOM     30  C   UNL     1      -6.281   2.124  26.380  0.00  0.00    +0.199 A 
ATOM     31  N   UNL     1      -5.835   2.816  26.425  0.00  0.00    -0.222 NA
ATOM     32  C   UNL     1      -5.279   2.988  25.841  0.00  0.00    +0.107 A 
ENDBRANCH  25  27
ENDBRANCH  23  24
ENDBRANCH  22  23
TORSDOF 6
ENDMDL
MODEL 3
REMARK VINA RESULT:      -8.4      1.085      6.347
REMARK  Name = 
REMARK  6 active torsions:
REMARK  status: ('A' for Active; 'I' for Inactive)
REMARK    1  A    between atoms: C_2  and  C_4
REMARK    2  A    between atoms: C_6  and  C_7
REMARK    3  A    between atoms: C_7  and  C_8
REMARK    4  A    between atoms: C_22  and  C_23
REMARK    5  A    between atoms: C_23  and  N_24
REMARK    6  A    between atoms: C_25  and  C_27
REMARK                            x       y       z     vdW  Elec       q    Type
REMARK                         _______ _______ _______ _____ _____    ______ ____
ROOT
ATOM      4  C   UNL     1      -1.120   0.099  24.348  0.00  0.00    +0.006 C 
ATOM      5  C   UNL     1      -1.802   0.548  24.468  0.00  0.00    +0.005 C 
ATOM      6  C   UNL     1      -1.906   1.257  24.062  0.00  0.00    +0.027 C 
ATOM     19  C   UNL     1      -1.329   1.519  23.534  0.00  0.00    -0.048 C 
ATOM     20  C   UNL     1      -1.434   2.229  23.127  0.00  0.00    +0.026 C 
ATOM     21  C   UNL     1      -0.646   1.071  23.413  0.00  0.00    -0.033 C 
ATOM     22  C   UNL     1      -0.542   0.361  23.820  0.00  0.00    +0.043 C 
ENDROOT
BRANCH   4   2
ATOM      1  C   UNL     1      -0.740  -0.603  25.533  0.00  0.00    +0.000 C 
ATOM      2  C   UNL     1      -1.016  -0.611  24.755  0.00  0.00    +0.000 C 
ATOM      3  C   UNL     1      -1.186  -1.327  24.384  0.00  0.00    +0.000 C 
ENDBRANCH   4   2
BRANCH   6   7
ATOM      7  C   UNL     1      -2.589   1.705  24.182  0.00  0.00    +0.089 C 
BRANCH   7   8
ATOM      8  C   UNL     1      -3.331   1.346  24.144  0.00  0.00    +0.226 C 
ATOM      9  O   UNL     1      -3.446   0.691  23.656  0.00  0.00    -0.275 OA
ATOM     10  N   UNL     1      -3.956   1.643  24.592  0.00  0.00    -0.276 N 
ATOM     11  C   UNL     1      -3.840   2.299  25.080  0.00  0.00    +0.115 C 
ATOM     12  C   UNL     1      -4.465   2.595  25.528  0.00  0.00    +0.115 C 
ATOM     13  N   UNL     1      -5.208   2.236  25.490  0.00  0.00    -0.276 N 
ATOM     14  C   UNL     1      -5.324   1.581  25.003  0.00  0.00    +0.115 C 
ATOM     15  C   UNL     1      -4.698   1.283  24.554  0.00  0.00    +0.115 C 
ATOM     16  C   UNL     1      -5.833   2.533  25.939  0.00  0.00    +0.226 C 
ATOM     17  C   UNL     1      -6.575   2.174  25.900  0.00  0.00    +0.095 C 
ATOM     18  O   UNL     1      -5.717   3.188  26.426  0.00  0.00    -0.275 OA
ENDBRANCH   7   8
ENDBRANCH   6   7
BRANCH  22  23
ATOM     23  C   UNL     1       0.140  -0.087  23.700  0.00  0.00    +0.120 C 
BRANCH  23  24
ATOM     24  N   UNL     1       0.836   0.279  23.451  0.00  0.00    -0.201 NA
ATOM     25  C   UNL     1       1.452  -0.174  23.143  0.00  0.00    +0.268 C 
ATOM     26  O   UNL     1       1.373  -0.993  23.083  0.00  0.00    -0.268 OA
BRANCH  25  27
ATOM     27  C   UNL     1       2.150   0.192  22.894  0.00  0.00    +0.093 A 
ATOM     28  C   UNL     1       2.496   0.778  23.361  0.00  0.00    +0.107 A 
ATOM     29  N   UNL     1       3.193   1.144  23.112  0.00  0.00    -0.222 NA
ATOM     30  C   UNL     1       3.543   0.923  22.398  0.00  0.00    +0.199 A 
ATOM     31  N   UNL     1       3.195   0.337  21.932  0.00  0.00    -0.222 NA
ATOM     32  C   UNL     1       2.499  -0.028  22.181  0.00  0.00    +0.107 A 
ENDBRANCH  25  27
ENDBRANCH  23  24
ENDBRANCH  22  23
TORSDOF 6
ENDMDL
MODEL 4
REMARK VINA RESULT:      -6.4     16.219     17.368
REMARK  Name = 
REMARK  6 active torsions:
REMARK  status: ('A' for Active; 'I' for Inactive)
REMARK    1  A    between atoms: C_2  and  C_4
REMARK    2  A    between atoms: C_6  and  C_7
REMARK    3  A    between atoms: C_7  and  C_8
REMARK    4  A    between atoms: C_22  and  C_23
REMARK    5  A    between atoms: C_23  and  N_24
REMARK    6  A    between atoms: C_25  and  C_27
REMARK                            x       y       z     vdW  Elec       q    Type
REMARK                         _______ _______ _______ _____ _____    ______ ____
ROOT
ATOM      4  C   UNL     1      -4.998  -9.282  10.830  0.00  0.00    +0.006 C 
ATOM      5  C   UNL     1      -4.623  -9.658  11.462  0.00  0.00    +0.005 C 
ATOM      6  C   UNL     1      -5.052 -10.156  11.959  0.00  0.00    +0.027 C 
ATOM     19  C   UNL     1      -5.856 -10.280  11.826  0.00  0.00    -0.048 C 
ATOM     20  C   UNL     1      -6.285 -10.780  12.323  0.00  0.00    +0.026 C 
ATOM     21  C   UNL     1      -6.232  -9.905  11.194  0.00  0.00    -0.033 C 
ATOM     22  C   UNL     1      -5.804  -9.406  10.697  0.00  0.00    +0.043 C 
ENDROOT
BRANCH   4   2
ATOM      1  C   UNL     1      -4.537  -7.974  10.490  0.00  0.00    +0.000 C 
ATOM      2  C   UNL     1      -4.570  -8.783  10.333  0.00  0.00    +0.000 C 
ATOM      3  C   UNL     1      -4.175  -9.093   9.679  0.00  0.00    +0.000 C 
ENDBRANCH   4   2
BRANCH   6   7
ATOM      7  C   UNL     1      -4.675 -10.532  12.591  0.00  0.00    +0.089 C 
BRANCH   7   8
ATOM      8  C   UNL     1      -3.859 -10.646  12.576  0.00  0.00    +0.226 C 
ATOM      9  O   UNL     1      -3.471 -10.755  11.856  0.00  0.00    -0.275 OA
ATOM     10  N   UNL     1      -3.430 -10.650  13.281  0.00  0.00    -0.276 N 
ATOM     11  C   UNL     1      -3.818 -10.540  14.001  0.00  0.00    +0.115 C 
ATOM     12  C   UNL     1      -3.390 -10.544  14.705  0.00  0.00    +0.115 C 
ATOM     13  N   UNL     1      -2.572 -10.658  14.691  0.00  0.00    -0.276 N 
ATOM     14  C   UNL     1      -2.184 -10.768  13.971  0.00  0.00    +0.115 C 
ATOM     15  C   UNL     1      -2.612 -10.764  13.266  0.00  0.00    +0.115 C 
ATOM     16  C   UNL     1      -2.144 -10.663  15.396  0.00  0.00    +0.226 C 
ATOM     17  C   UNL     1      -1.327 -10.776  15.381  0.00  0.00    +0.095 C 
ATOM     18  O   UNL     1      -2.532 -10.553  16.115  0.00  0.00    -0.275 OA
ENDBRANCH   7   8
ENDBRANCH   6   7
BRANCH  22  23
ATOM     23  C   UNL     1      -6.179  -9.031  10.065  0.00  0.00    +0.120 C 
BRANCH  23  24
ATOM     24  N   UNL     1      -6.985  -9.149   9.935  0.00  0.00    -0.201 NA
ATOM     25  C   UNL     1      -7.355  -8.789   9.292  0.00  0.00    +0.268 C 
ATOM     26  O   UNL     1      -6.920  -8.312   8.778  0.00  0.00    -0.268 OA
BRANCH  25  27
ATOM     27  C   UNL     1      -8.162  -8.907   9.161  0.00  0.00    +0.093 A 
ATOM     28  C   UNL     1      -8.412  -9.430   8.573  0.00  0.00    +0.107 A 
ATOM     29  N   UNL     1      -9.218  -9.548   8.442  0.00  0.00    -0.222 NA
ATOM     30  C   UNL     1      -9.774  -9.143   8.899  0.00  0.00    +0.199 A 
ATOM     31  N   UNL     1      -9.523  -8.621   9.486  0.00  0.00    -0.222 NA
ATOM     32  C   UNL     1      -8.717  -8.503   9.617  0.00  0.00    +0.107 A 
ENDBRANCH  25  27
ENDBRANCH  23  24
ENDBRANCH  22  23
TORSDOF 6
ENDMDL
MODEL 5
REMARK VINA RESULT:      -6.1     14.397     15.704
REMARK  Name = 
REMARK  6 active torsions:
REMARK  status: ('A' for Active; 'I' for Inactive)
REMARK    1  A    between atoms: C_2  and  C_4
REMARK    2  A    between atoms: C_6  and  C_7
REMARK    3  A    between atoms: C_7  and  C_8
REMARK    4  A    between atoms: C_22  and  C_23
REMARK    5  A    between atoms: C_23  and  N_24
REMARK    6  A    between atoms: C_25  and  C_27
REMARK                            x       y       z     vdW  Elec       q    Type
REMARK                         _______ _______ _______ _____ _____    ______ ____
ROOT
ATOM      4  C   UNL     1      -7.492 -10.048  14.643  0.00  0.00    +0.006 C 
ATOM      5  C   UNL     1      -7.038 -10.083  13.956  0.00  0.00    +0.005 C 
ATOM      6  C   UNL     1      -6.215 -10.074  14.004  0.00  0.00    +0.027 C 
ATOM     19  C   UNL     1      -5.845 -10.029  14.740  0.00  0.00    -0.048 C 
ATOM     20  C   UNL     1      -5.022 -10.020  14.788  0.00  0.00    +0.026 C 
ATOM     21  C   UNL     1      -6.300  -9.993  15.428  0.00  0.00    -0.033 C 
ATOM     22  C   UNL     1      -7.123 -10.003  15.380  0.00  0.00    +0.043 C 
ENDROOT
BRANCH   4   2
ATOM      1  C   UNL     1      -8.719 -10.777  14.568  0.00  0.00    +0.000 C 
ATOM      2  C   UNL     1      -8.316 -10.057  14.594  0.00  0.00    +0.000 C 
ATOM      3  C   UNL     1      -8.735  -9.348  14.572  0.00  0.00    +0.000 C 
ENDBRANCH   4   2
BRANCH   6   7
ATOM      7  C   UNL     1      -5.761 -10.110  13.316  0.00  0.00    +0.089 C 
BRANCH   7   8
ATOM      8  C   UNL     1      -5.844  -9.530  12.735  0.00  0.00    +0.226 C 
ATOM      9  O   UNL     1      -6.361  -8.898  12.856  0.00  0.00    -0.275 OA
ATOM     10  N   UNL     1      -5.412  -9.582  12.035  0.00  0.00    -0.276 N 
ATOM     11  C   UNL     1      -4.895 -10.213  11.915  0.00  0.00    +0.115 C 
ATOM     12  C   UNL     1      -4.462 -10.265  11.215  0.00  0.00    +0.115 C 
ATOM     13  N   UNL     1      -4.546  -9.684  10.634  0.00  0.00    -0.276 N 
ATOM     14  C   UNL     1      -5.062  -9.053  10.754  0.00  0.00    +0.115 C 
ATOM     15  C   UNL     1      -5.495  -9.001  11.454  0.00  0.00    +0.115 C 
ATOM     16  C   UNL     1      -4.113  -9.737   9.933  0.00  0.00    +0.226 C 
ATOM     17  C   UNL     1      -4.196  -9.156   9.353  0.00  0.00    +0.095 C 
ATOM     18  O   UNL     1      -3.596 -10.368   9.813  0.00  0.00    -0.275 OA
ENDBRANCH   7   8
ENDBRANCH   6   7
BRANCH  22  23
ATOM     23  C   UNL     1      -7.577  -9.967  16.067  0.00  0.00    +0.120 C 
BRANCH  23  24
ATOM     24  N   UNL     1      -7.254 -10.203  16.789  0.00  0.00    -0.201 NA
ATOM     25  C   UNL     1      -7.598  -9.954  17.495  0.00  0.00    +0.268 C 
ATOM     26  O   UNL     1      -8.265  -9.468  17.482  0.00  0.00    -0.268 OA
BRANCH  25  27
ATOM     27  C   UNL     1      -7.275 -10.191  18.217  0.00  0.00    +0.093 A 
ATOM     28  C   UNL     1      -7.755 -10.545  18.787  0.00  0.00    +0.107 A 
ATOM     29  N   UNL     1      -7.433 -10.781  19.509  0.00  0.00    -0.222 NA
ATOM     30  C   UNL     1      -6.629 -10.664  19.660  0.00  0.00    +0.199 A 
ATOM     31  N   UNL     1      -6.150 -10.310  19.090  0.00  0.00    -0.222 NA
ATOM     32  C   UNL     1      -6.473 -10.073  18.368  0.00  0.00    +0.107 A 
ENDBRANCH  25  27
ENDBRANCH  23  24
ENDBRANCH  22  23
TORSDOF 6
ENDMDL
MODEL 6
REMARK VINA RESULT:      -6.0     16.871     18.590
REMARK  Name = 
REMARK  6 active torsions:
REMARK  status: ('A' for Active; 'I' for Inactive)
REMARK    1  A    between atoms: C_2  and  C_4
REMARK    2  A    between atoms: C_6  and  C_7
REMARK    3  A    between atoms: C_7  and  C_8
REMARK    4  A    between atoms: C_22  and  C_23
REMARK    5  A    between atoms: C_23  and  N_24
REMARK    6  A    between atoms: C_25  and  C_27
REMARK                            x       y       z     vdW  Elec       q    Type
REMARK                         _______ _______ _______ _____ _____    ______ ____
ROOT
ATOM      4  C   UNL     1      -5.570  -9.161  10.684  0.00  0.00    +0.006 C 
ATOM      5  C   UNL     1      -6.103  -8.803  10.166  0.00  0.00    +0.005 C 
ATOM      6  C   UNL     1      -5.898  -8.693   9.375  0.00  0.00    +0.027 C 
ATOM     19  C   UNL     1      -5.162  -8.942   9.100  0.00  0.00    -0.048 C 
ATOM     20  C   UNL     1      -4.957  -8.832   8.309  0.00  0.00    +0.026 C 
ATOM     21  C   UNL     1      -4.628  -9.301   9.619  0.00  0.00    -0.033 C 
ATOM     22  C   UNL     1      -4.833  -9.411  10.409  0.00  0.00    +0.043 C 
ENDROOT
BRANCH   4   2
ATOM      1  C   UNL     1      -5.988 -10.021  11.746  0.00  0.00    +0.000 C 
ATOM      2  C   UNL     1      -5.775  -9.271  11.475  0.00  0.00    +0.000 C 
ATOM      3  C   UNL     1      -5.767  -8.632  11.995  0.00  0.00    +0.000 C 
ENDBRANCH   4   2
BRANCH   6   7
ATOM      7  C   UNL     1      -6.431  -8.334   8.857  0.00  0.00    +0.089 C 
BRANCH   7   8
ATOM      8  C   UNL     1      -7.236  -8.508   8.906  0.00  0.00    +0.226 C 
ATOM      9  O   UNL     1      -7.481  -9.274   9.094  0.00  0.00    -0.275 OA
ATOM     10  N   UNL     1      -7.795  -7.918   8.767  0.00  0.00    -0.276 N 
ATOM     11  C   UNL     1      -7.550  -7.153   8.579  0.00  0.00    +0.115 C 
ATOM     12  C   UNL     1      -8.109  -6.563   8.440  0.00  0.00    +0.115 C 
ATOM     13  N   UNL     1      -8.915  -6.738   8.489  0.00  0.00    -0.276 N 
ATOM     14  C   UNL     1      -9.160  -7.502   8.677  0.00  0.00    +0.115 C 
ATOM     15  C   UNL     1      -8.601  -8.093   8.816  0.00  0.00    +0.115 C 
ATOM     16  C   UNL     1      -9.474  -6.147   8.350  0.00  0.00    +0.226 C 
ATOM     17  C   UNL     1     -10.278  -6.322   8.399  0.00  0.00    +0.095 C 
ATOM     18  O   UNL     1      -9.229  -5.383   8.162  0.00  0.00    -0.275 OA
ENDBRANCH   7   8
ENDBRANCH   6   7
BRANCH  22  23
ATOM     23  C   UNL     1      -4.301  -9.770  10.927  0.00  0.00    +0.120 C 
BRANCH  23  24
ATOM     24  N   UNL     1      -3.537  -9.469  11.009  0.00  0.00    -0.201 NA
ATOM     25  C   UNL     1      -2.912  -9.974  11.194  0.00  0.00    +0.268 C 
ATOM     26  O   UNL     1      -3.050 -10.781  11.297  0.00  0.00    -0.268 OA
BRANCH  25  27
ATOM     27  C   UNL     1      -2.148  -9.673  11.276  0.00  0.00    +0.093 A 
ATOM     28  C   UNL     1      -1.819  -9.215  10.673  0.00  0.00    +0.107 A 
ATOM     29  N   UNL     1      -1.055  -8.914  10.755  0.00  0.00    -0.222 NA
ATOM     30  C   UNL     1      -0.620  -9.071  11.439  0.00  0.00    +0.199 A 
ATOM     31  N   UNL     1      -0.950  -9.529  12.040  0.00  0.00    -0.222 NA
ATOM     32  C   UNL     1      -1.714  -9.830  11.959  0.00  0.00    +0.107 A 
ENDBRANCH  25  27
ENDBRANCH  23  24
ENDBRANCH  22  23
TORSDOF 6
ENDMDL
MODEL 7
REMARK VINA RESULT:      -5.6     15.249     16.417
REMARK  Name = 
REMARK  6 active torsions:
REMARK  status: ('A' for Active; 'I' for Inactive)
REMARK    1  A    between atoms: C_2  and  C_4
REMARK    2  A    between atoms: C_6  and  C_7
REMARK    3  A    between atoms: C_7  and  C_8
REMARK    4  A    between atoms: C_22  and  C_23
REMARK    5  A    between atoms: C_23  and  N_24
REMARK    6  A    between atoms: C_25  and  C_27
REMARK                            x       y       z     vdW  Elec       q    Type
REMARK                         _______ _______ _______ _____ _____    ______ ____
ROOT
ATOM      4  C   UNL     1      -8.347 -10.062  13.277  0.00  0.00    +0.006 C 
ATOM      5  C   UNL     1      -7.639  -9.985  12.862  0.00  0.00    +0.005 C 
ATOM      6  C   UNL     1      -6.922  -9.971  13.268  0.00  0.00    +0.027 C 
ATOM     19  C   UNL     1      -6.912 -10.035  14.090  0.00  0.00    -0.048 C 
ATOM     20  C   UNL     1      -6.195 -10.021  14.497  0.00  0.00    +0.026 C 
ATOM     21  C   UNL     1      -7.621 -10.112  14.506  0.00  0.00    -0.033 C 
ATOM     22  C   UNL     1      -8.338 -10.126  14.100  0.00  0.00    +0.043 C 
ENDROOT
BRANCH   4   2
ATOM      1  C   UNL     1      -9.507  -9.384  12.790  0.00  0.00    +0.000 C 
ATOM      2  C   UNL     1      -9.065 -10.076  12.870  0.00  0.00    +0.000 C 
ATOM      3  C   UNL     1      -9.340 -10.781  12.544  0.00  0.00    +0.000 C 
ENDBRANCH   4   2
BRANCH   6   7
ATOM      7  C   UNL     1      -6.213  -9.893  12.852  0.00  0.00    +0.089 C 
BRANCH   7   8
ATOM      8  C   UNL     1      -6.104  -9.258  12.337  0.00  0.00    +0.226 C 
ATOM      9  O   UNL     1      -6.529  -8.559  12.449  0.00  0.00    -0.275 OA
ATOM     10  N   UNL     1      -5.572  -9.322  11.711  0.00  0.00    -0.276 N 
ATOM     11  C   UNL     1      -5.148 -10.021  11.599  0.00  0.00    +0.115 C 
ATOM     12  C   UNL     1      -4.615 -10.085  10.972  0.00  0.00    +0.115 C 
ATOM     13  N   UNL     1      -4.507  -9.449  10.456  0.00  0.00    -0.276 N 
ATOM     14  C   UNL     1      -4.930  -8.751  10.568  0.00  0.00    +0.115 C 
ATOM     15  C   UNL     1      -5.463  -8.686  11.195  0.00  0.00    +0.115 C 
ATOM     16  C   UNL     1      -3.974  -9.514   9.830  0.00  0.00    +0.226 C 
ATOM     17  C   UNL     1      -3.865  -8.879   9.314  0.00  0.00    +0.095 C 
ATOM     18  O   UNL     1      -3.550 -10.212   9.718  0.00  0.00    -0.275 OA
ENDBRANCH   7   8
ENDBRANCH   6   7
BRANCH  22  23
ATOM     23  C   UNL     1      -9.047 -10.204  14.515  0.00  0.00    +0.120 C 
BRANCH  23  24
ATOM     24  N   UNL     1      -9.086  -9.988  15.310  0.00  0.00    -0.201 NA
ATOM     25  C   UNL     1      -9.739 -10.203  15.764  0.00  0.00    +0.268 C 
ATOM     26  O   UNL     1     -10.354 -10.636  15.424  0.00  0.00    -0.268 OA
BRANCH  25  27
ATOM     27  C   UNL     1      -9.778  -9.987  16.560  0.00  0.00    +0.093 A 
ATOM     28  C   UNL     1      -9.585 -10.536  17.146  0.00  0.00    +0.107 A 
ATOM     29  N   UNL     1      -9.623 -10.320  17.941  0.00  0.00    -0.222 NA
ATOM     30  C   UNL     1      -9.855  -9.555  18.151  0.00  0.00    +0.199 A 
ATOM     31  N   UNL     1     -10.048  -9.008  17.565  0.00  0.00    -0.222 NA
ATOM     32  C   UNL     1     -10.009  -9.224  16.769  0.00  0.00    +0.107 A 
ENDBRANCH  25  27
ENDBRANCH  23  24
ENDBRANCH  22  23
TORSDOF 6
ENDMDL
MODEL 8
REMARK VINA RESULT:      -5.3     15.633     17.122
REMARK  Name = 
REMARK  6 active torsions:
REMARK  status: ('A' for Active; 'I' for Inactive)
REMARK    1  A    between atoms: C_2  and  C_4
REMARK    2  A    between atoms: C_6  and  C_7
REMARK    3  A    between atoms: C_7  and  C_8
REMARK    4  A    between atoms: C_22  and  C_23
REMARK    5  A    between atoms: C_23  and  N_24
REMARK    6  A    between atoms: C_25  and  C_27
REMARK                            x       y       z     vdW  Elec       q    Type
REMARK                         _______ _______ _______ _____ _____    ______ ____
ROOT
ATOM      4  C   UNL     1      -5.592  -9.890  11.790  0.00  0.00    +0.006 C 
ATOM      5  C   UNL     1      -5.639 -10.062  12.595  0.00  0.00    +0.005 C 
ATOM      6  C   UNL     1      -6.343  -9.933  13.004  0.00  0.00    +0.027 C 
ATOM     19  C   UNL     1      -7.001  -9.632  12.608  0.00  0.00    -0.048 C 
ATOM     20  C   UNL     1      -7.706  -9.504  13.017  0.00  0.00    +0.026 C 
ATOM     21  C   UNL     1      -6.954  -9.460  11.802  0.00  0.00    -0.033 C 
ATOM     22  C   UNL     1      -6.250  -9.588  11.393  0.00  0.00    +0.043 C 
ENDROOT
BRANCH   4   2
ATOM      1  C   UNL     1      -4.387  -9.384  11.211  0.00  0.00    +0.000 C 
ATOM      2  C   UNL     1      -4.887 -10.018  11.381  0.00  0.00    +0.000 C 
ATOM      3  C   UNL     1      -4.683 -10.780  11.141  0.00  0.00    +0.000 C 
ENDBRANCH   4   2
BRANCH   6   7
ATOM      7  C   UNL     1      -6.390 -10.105  13.810  0.00  0.00    +0.089 C 
BRANCH   7   8
ATOM      8  C   UNL     1      -5.733  -9.989  14.295  0.00  0.00    +0.226 C 
ATOM      9  O   UNL     1      -5.018  -9.739  13.969  0.00  0.00    -0.275 OA
ATOM     10  N   UNL     1      -5.792 -10.123  15.107  0.00  0.00    -0.276 N 
ATOM     11  C   UNL     1      -6.507 -10.374  15.434  0.00  0.00    +0.115 C 
ATOM     12  C   UNL     1      -6.566 -10.508  16.245  0.00  0.00    +0.115 C 
ATOM     13  N   UNL     1      -5.908 -10.392  16.731  0.00  0.00    -0.276 N 
ATOM     14  C   UNL     1      -5.194 -10.141  16.405  0.00  0.00    +0.115 C 
ATOM     15  C   UNL     1      -5.134 -10.007  15.593  0.00  0.00    +0.115 C 
ATOM     16  C   UNL     1      -5.968 -10.526  17.543  0.00  0.00    +0.226 C 
ATOM     17  C   UNL     1      -5.311 -10.410  18.029  0.00  0.00    +0.095 C 
ATOM     18  O   UNL     1      -6.682 -10.776  17.869  0.00  0.00    -0.275 OA
ENDBRANCH   7   8
ENDBRANCH   6   7
BRANCH  22  23
ATOM     23  C   UNL     1      -6.203  -9.417  10.588  0.00  0.00    +0.120 C 
BRANCH  23  24
ATOM     24  N   UNL     1      -6.796  -8.972  10.225  0.00  0.00    -0.201 NA
ATOM     25  C   UNL     1      -6.833  -8.929   9.402  0.00  0.00    +0.268 C 
ATOM     26  O   UNL     1      -6.278  -9.329   8.942  0.00  0.00    -0.268 OA
BRANCH  25  27
ATOM     27  C   UNL     1      -7.426  -8.484   9.039  0.00  0.00    +0.093 A 
ATOM     28  C   UNL     1      -7.297  -7.687   8.866  0.00  0.00    +0.107 A 
ATOM     29  N   UNL     1      -7.889  -7.243   8.503  0.00  0.00    -0.222 NA
ATOM     30  C   UNL     1      -8.612  -7.595   8.313  0.00  0.00    +0.199 A 
ATOM     31  N   UNL     1      -8.740  -8.391   8.486  0.00  0.00    -0.222 NA
ATOM     32  C   UNL     1      -8.147  -8.835   8.849  0.00  0.00    +0.107 A 
ENDBRANCH  25  27
ENDBRANCH  23  24
ENDBRANCH  22  23
TORSDOF 6
ENDMDL
