MODEL 1
REMARK VINA RESULT:     -12.7      0.000      0.000
REMARK  Name = 
REMARK  6 active torsions:
REMARK  status: ('A' for Active; 'I' for Inactive)
REMARK    1  A    between atoms: C_2  and  C_5
REMARK    2  A    between atoms: C_8  and  C_11
REMARK    3  A    between atoms: N_13  and  C_14
REMARK    4  A    between atoms: C_14  and  C_15
REMARK    5  A    between atoms: C_22  and  C_23
REMARK    6  A    between atoms: C_23  and  N_24
REMARK                            x       y       z     vdW  Elec       q    Type
REMARK                         _______ _______ _______ _____ _____    ______ ____
ROOT
ATOM     15  C   UNL     1      -4.063   2.133  24.548  0.00  0.00    +0.079 C 
ATOM     16  C   UNL     1      -4.348   2.618  25.086  0.00  0.00    +0.018 C 
ATOM     17  C   UNL     1      -3.943   3.229  25.431  0.00  0.00    +0.005 C 
ATOM     18  C   UNL     1      -4.448   3.670  26.027  0.00  0.00    +0.017 C 
ATOM     19  C   UNL     1      -4.319   3.211  25.580  0.00  0.00    +0.072 C 
ATOM     20  N   UNL     1      -3.658   2.758  24.904  0.00  0.00    -0.272 NA
ATOM     21  C   UNL     1      -2.807   3.072  24.800  0.00  0.00    +0.073 C 
ATOM     22  C   UNL     1      -3.124   3.526  25.325  0.00  0.00    +0.032 C 
ENDROOT
BRANCH  15  14
ATOM     14  C   UNL     1      -4.121   1.495  24.029  0.00  0.00    +0.131 C 
BRANCH  14  13
ATOM     11  C   UNL     1      -3.784   0.122  23.826  0.00  0.00    +0.265 C 
ATOM     12  O   UNL     1      -3.560   0.291  23.050  0.00  0.00    -0.268 OA
ATOM     13  N   UNL     1      -4.064   0.724  24.316  0.00  0.00    -0.200 NA
BRANCH  11   8
ATOM      5  C   UNL     1      -3.613  -2.193  24.685  0.00  0.00    +0.071 A 
ATOM      6  C   UNL     1      -4.196  -2.000  24.134  0.00  0.00    +0.004 A 
ATOM      7  C   UNL     1      -4.253  -1.228  23.848  0.00  0.00    +0.005 A 
ATOM      8  C   UNL     1      -3.727  -0.650  24.112  0.00  0.00    +0.055 A 
ATOM      9  C   UNL     1      -3.144  -0.844  24.663  0.00  0.00    +0.005 A 
ATOM     10  C   UNL     1      -3.087  -1.615  24.949  0.00  0.00    +0.004 A 
BRANCH   5   2
ATOM      1  F   UNL     1      -3.500  -3.737  25.256  0.00  0.00    -0.166 F 
ATOM      2  C   UNL     1      -3.557  -2.965  24.971  0.00  0.00    +0.419 C 
ATOM      3  F   UNL     1      -3.474  -3.244  24.198  0.00  0.00    -0.166 F 
ATOM      4  F   UNL     1      -3.640  -2.686  25.743  0.00  0.00    -0.166 F 
ENDBRANCH   5   2
ENDBRANCH  11   8
ENDBRANCH  14  13
ENDBRANCH  15  14
BRANCH  22  23
ATOM     23  C   UNL     1      -2.770   4.162  25.714  0.00  0.00    +0.073 C 
BRANCH  23  24
ATOM     24  N   UNL     1      -2.044   4.453  25.451  0.00  0.00    -0.273 NA
ATOM     25  C   UNL     1      -1.368   3.983  25.505  0.00  0.00    +0.072 C 
ATOM     26  C   UNL     1      -0.642   4.273  25.242  0.00  0.00    +0.017 C 
ATOM     27  C   UNL     1      -0.592   5.033  24.926  0.00  0.00    +0.003 C 
ATOM     28  C   UNL     1      -1.267   5.504  24.872  0.00  0.00    +0.017 C 
ATOM     29  C   UNL     1      -1.993   5.213  25.135  0.00  0.00    +0.072 C 
ENDBRANCH  23  24
ENDBRANCH  22  23
TORSDOF 6
ENDMDL
MODEL 2
REMARK VINA RESULT:     -12.2      1.610      2.659
REMARK  Name = 
REMARK  6 active torsions:
REMARK  status: ('A' for Active; 'I' for Inactive)
REMARK    1  A    between atoms: C_2  and  C_5
REMARK    2  A    between atoms: C_8  and  C_11
REMARK    3  A    between atoms: N_13  and  C_14
REMARK    4  A    between atoms: C_14  and  C_15
REMARK    5  A    between atoms: C_22  and  C_23
REMARK    6  A    between atoms: C_23  and  N_24
REMARK                            x       y       z     vdW  Elec       q    Type
REMARK                         _______ _______ _______ _____ _____    ______ ____
ROOT
ATOM     15  C   UNL     1      -0.934   1.403  25.521  0.00  0.00    +0.079 C 
ATOM     16  C   UNL     1      -0.629   2.109  25.398  0.00  0.00    +0.018 C 
ATOM     17  C   UNL     1      -1.049   2.796  25.314  0.00  0.00    +0.005 C 
ATOM     18  C   UNL     1      -0.512   3.501  25.180  0.00  0.00    +0.017 C 
ATOM     19  C   UNL     1      -0.653   2.872  25.283  0.00  0.00    +0.072 C 
ATOM     20  N   UNL     1      -1.355   2.108  25.435  0.00  0.00    -0.272 NA
ATOM     21  C   UNL     1      -2.249   2.291  25.451  0.00  0.00    +0.073 C 
ATOM     22  C   UNL     1      -1.910   2.964  25.332  0.00  0.00    +0.032 C 
ENDROOT
BRANCH  15  14
ATOM     14  C   UNL     1      -0.879   0.589  25.642  0.00  0.00    +0.131 C 
BRANCH  14  13
ATOM     11  C   UNL     1      -1.473  -0.708  25.558  0.00  0.00    +0.265 C 
ATOM     12  O   UNL     1      -0.912  -0.999  26.088  0.00  0.00    -0.268 OA
ATOM     13  N   UNL     1      -1.457   0.087  25.335  0.00  0.00    -0.200 NA
BRANCH  11   8
ATOM      5  C   UNL     1      -3.206  -2.215  24.638  0.00  0.00    +0.071 A 
ATOM      6  C   UNL     1      -2.430  -2.262  24.362  0.00  0.00    +0.004 A 
ATOM      7  C   UNL     1      -1.852  -1.760  24.669  0.00  0.00    +0.005 A 
ATOM      8  C   UNL     1      -2.051  -1.210  25.252  0.00  0.00    +0.055 A 
ATOM      9  C   UNL     1      -2.827  -1.163  25.527  0.00  0.00    +0.005 A 
ATOM     10  C   UNL     1      -3.404  -1.666  25.220  0.00  0.00    +0.004 A 
BRANCH   5   2
ATOM      1  F   UNL     1      -4.360  -3.222  24.024  0.00  0.00    -0.166 F 
ATOM      2  C   UNL     1      -3.783  -2.718  24.330  0.00  0.00    +0.419 C 
ATOM      3  F   UNL     1      -3.613  -3.272  24.919  0.00  0.00    -0.166 F 
ATOM      4  F   UNL     1      -3.953  -2.165  23.742  0.00  0.00    -0.166 F 
ENDBRANCH   5   2
ENDBRANCH  11   8
ENDBRANCH  14  13
ENDBRANCH  15  14
BRANCH  22  23
ATOM     23  C   UNL     1      -2.277   3.698  25.238  0.00  0.00    +0.073 C 
BRANCH  23  24
ATOM     24  N   UNL     1      -3.100   3.747  25.220  0.00  0.00    -0.273 NA
ATOM     25  C   UNL     1      -3.499   3.711  24.498  0.00  0.00    +0.072 C 
ATOM     26  C   UNL     1      -4.323   3.760  24.480  0.00  0.00    +0.017 C 
ATOM     27  C   UNL     1      -4.747   3.846  25.182  0.00  0.00    +0.003 C 
ATOM     28  C   UNL     1      -4.348   3.883  25.904  0.00  0.00    +0.017 C 
ATOM     29  C   UNL     1      -3.525   3.834  25.922  0.00  0.00    +0.072 C 
ENDBRANCH  23  24
ENDBRANCH  22  23
TORSDOF 6
ENDMDL
MODEL 3
REMARK VINA RESULT:     -12.0      3.459      6.406
REMARK  Name = 
REMARK  6 active torsions:
REMARK  status: ('A' for Active; 'I' for Inactive)
REMARK    1  A    between atoms: C_2  and  C_5
REMARK    2  A    between atoms: C_8  and  C_11
REMARK    3  A    between atoms: N_13  and  C_14
REMARK    4  A    between atoms: C_14  and  C_15
REMARK    5  A    between atoms: C_22  and  C_23
REMARK    6  A    between atoms: C_23  and  N_24
REMARK                            x       y       z     vdW  Elec       q    Type
REMARK                         _______ _______ _______ _____ _____    ______ ____
ROOT
ATOM     15  C   UNL     1      -0.656   0.432  25.305  0.00  0.00    +0.079 C 
ATOM     16  C   UNL     1      -0.361  -0.012  24.738  0.00  0.00    +0.018 C 
ATOM     17  C   UNL     1      -0.700  -0.683  24.440  0.00  0.00    +0.005 C 
ATOM     18  C   UNL     1      -0.202  -1.049  23.790  0.00  0.00    +0.017 C 
ATOM     19  C   UNL     1      -0.351  -0.610  24.250  0.00  0.00    +0.072 C 
ATOM     20  N   UNL     1      -0.996  -0.253  24.996  0.00  0.00    -0.272 NA
ATOM     21  C   UNL     1      -1.770  -0.693  25.194  0.00  0.00    +0.073 C 
ATOM     22  C   UNL     1      -1.447  -1.101  24.635  0.00  0.00    +0.032 C 
ENDROOT
BRANCH  15  14
ATOM     14  C   UNL     1      -0.641   1.080  25.816  0.00  0.00    +0.131 C 
BRANCH  14  13
ATOM     11  C   UNL     1      -0.727   2.495  25.995  0.00  0.00    +0.265 C 
ATOM     12  O   UNL     1      -0.303   2.432  26.699  0.00  0.00    -0.268 OA
ATOM     13  N   UNL     1      -0.896   1.818  25.553  0.00  0.00    -0.200 NA
BRANCH  11   8
ATOM      5  C   UNL     1      -1.494   4.711  25.206  0.00  0.00    +0.071 A 
ATOM      6  C   UNL     1      -1.971   4.266  25.710  0.00  0.00    +0.004 A 
ATOM      7  C   UNL     1      -1.716   3.527  25.973  0.00  0.00    +0.005 A 
ATOM      8  C   UNL     1      -0.983   3.233  25.732  0.00  0.00    +0.055 A 
ATOM      9  C   UNL     1      -0.506   3.679  25.227  0.00  0.00    +0.005 A 
ATOM     10  C   UNL     1      -0.762   4.418  24.964  0.00  0.00    +0.004 A 
BRANCH   5   2
ATOM      1  F   UNL     1      -2.007   6.189  24.680  0.00  0.00    -0.166 F 
ATOM      2  C   UNL     1      -1.750   5.450  24.943  0.00  0.00    +0.419 C 
ATOM      3  F   UNL     1      -2.418   5.098  24.608  0.00  0.00    -0.166 F 
ATOM      4  F   UNL     1      -1.083   5.802  25.277  0.00  0.00    -0.166 F 
ENDBRANCH   5   2
ENDBRANCH  11   8
ENDBRANCH  14  13
ENDBRANCH  15  14
BRANCH  22  23
ATOM     23  C   UNL     1      -1.739  -1.791  24.288  0.00  0.00    +0.073 C 
BRANCH  23  24
ATOM     24  N   UNL     1      -2.535  -1.988  24.368  0.00  0.00    -0.273 NA
ATOM     25  C   UNL     1      -2.765  -2.559  24.918  0.00  0.00    +0.072 C 
ATOM     26  C   UNL     1      -3.562  -2.756  24.998  0.00  0.00    +0.017 C 
ATOM     27  C   UNL     1      -4.129  -2.383  24.530  0.00  0.00    +0.003 C 
ATOM     28  C   UNL     1      -3.900  -1.811  23.981  0.00  0.00    +0.017 C 
ATOM     29  C   UNL     1      -3.103  -1.614  23.900  0.00  0.00    +0.072 C 
ENDBRANCH  23  24
ENDBRANCH  22  23
TORSDOF 6
ENDMDL
MODEL 4
REMARK VINA RESULT:     -11.8      3.067      5.584
REMARK  Name = 
REMARK  6 active torsions:
REMARK  status: ('A' for Active; 'I' for Inactive)
REMARK    1  A    between atoms: C_2  and  C_5
REMARK    2  A    between atoms: C_8  and  C_11
REMARK    3  A    between atoms: N_13  and  C_14
REMARK    4  A    between atoms: C_14  and  C_15
REMARK    5  A    between atoms: C_22  and  C_23
REMARK    6  A    between atoms: C_23  and  N_24
REMARK                            x       y       z     vdW  Elec       q    Type
REMARK                         _______ _______ _______ _____ _____    ______ ____
ROOT
ATOM     15  C   UNL     1      -4.208   0.820  24.839  0.00  0.00    +0.079 C 
ATOM     16  C   UNL     1      -4.424   0.139  24.531  0.00  0.00    +0.018 C 
ATOM     17  C   UNL     1      -3.965  -0.527  24.488  0.00  0.00    +0.005 C 
ATOM     18  C   UNL     1      -4.398  -1.207  24.098  0.00  0.00    +0.017 C 
ATOM     19  C   UNL     1      -4.328  -0.599  24.325  0.00  0.00    +0.072 C 
ATOM     20  N   UNL     1      -3.745   0.138  24.791  0.00  0.00    -0.272 NA
ATOM     21  C   UNL     1      -2.892  -0.041  25.060  0.00  0.00    +0.073 C 
ATOM     22  C   UNL     1      -3.143  -0.692  24.749  0.00  0.00    +0.032 C 
ENDROOT
BRANCH  15  14
ATOM     14  C   UNL     1      -4.338   1.607  25.048  0.00  0.00    +0.131 C 
BRANCH  14  13
ATOM     11  C   UNL     1      -3.840   2.930  25.258  0.00  0.00    +0.265 C 
ATOM     12  O   UNL     1      -4.582   3.166  25.530  0.00  0.00    -0.268 OA
ATOM     13  N   UNL     1      -3.717   2.150  25.017  0.00  0.00    -0.200 NA
BRANCH  11   8
ATOM      5  C   UNL     1      -1.979   4.559  25.166  0.00  0.00    +0.071 A 
ATOM      6  C   UNL     1      -2.417   4.394  24.486  0.00  0.00    +0.004 A 
ATOM      7  C   UNL     1      -3.038   3.851  24.517  0.00  0.00    +0.005 A 
ATOM      8  C   UNL     1      -3.220   3.473  25.227  0.00  0.00    +0.055 A 
ATOM      9  C   UNL     1      -2.782   3.638  25.906  0.00  0.00    +0.005 A 
ATOM     10  C   UNL     1      -2.161   4.181  25.875  0.00  0.00    +0.004 A 
BRANCH   5   2
ATOM      1  F   UNL     1      -0.740   5.646  25.102  0.00  0.00    -0.166 F 
ATOM      2  C   UNL     1      -1.359   5.102  25.134  0.00  0.00    +0.419 C 
ATOM      3  F   UNL     1      -1.843   5.673  25.482  0.00  0.00    -0.166 F 
ATOM      4  F   UNL     1      -0.876   4.531  24.786  0.00  0.00    -0.166 F 
ENDBRANCH   5   2
ENDBRANCH  11   8
ENDBRANCH  14  13
ENDBRANCH  15  14
BRANCH  22  23
ATOM     23  C   UNL     1      -2.729  -1.402  24.674  0.00  0.00    +0.073 C 
BRANCH  23  24
ATOM     24  N   UNL     1      -1.912  -1.415  24.781  0.00  0.00    -0.273 NA
ATOM     25  C   UNL     1      -1.409  -1.351  24.129  0.00  0.00    +0.072 C 
ATOM     26  C   UNL     1      -0.591  -1.364  24.235  0.00  0.00    +0.017 C 
ATOM     27  C   UNL     1      -0.275  -1.441  24.993  0.00  0.00    +0.003 C 
ATOM     28  C   UNL     1      -0.776  -1.505  25.646  0.00  0.00    +0.017 C 
ATOM     29  C   UNL     1      -1.594  -1.492  25.539  0.00  0.00    +0.072 C 
ENDBRANCH  23  24
ENDBRANCH  22  23
TORSDOF 6
ENDMDL
