MODEL 1
REMARK VINA RESULT:     -11.9      0.000      0.000
REMARK  Name = 
REMARK  4 active torsions:
REMARK  status: ('A' for Active; 'I' for Inactive)
REMARK    1  A    between atoms: N_4  and  C_5
REMARK    2  A    between atoms: C_8  and  C_11
REMARK    3  A    between atoms: N_17  and  C_18
REMARK    4  A    between atoms: C_18  and  C_19
REMARK                            x       y       z     vdW  Elec       q    Type
REMARK                         _______ _______ _______ _____ _____    ______ ____
ROOT
ATOM     11  C   UNL     1      -2.161  -0.165  25.183  0.00  0.00    +0.012 A 
ATOM     12  C   UNL     1      -2.501   0.491  24.817  0.00  0.00    +0.041 A 
ATOM     13  C   UNL     1      -3.189   0.716  24.251  0.00  0.00    +0.054 C 
ATOM     14  C   UNL     1      -3.718   0.432  23.888  0.00  0.00    +0.011 C 
ATOM     15  C   UNL     1      -3.403   1.172  24.014  0.00  0.00    +0.039 C 
ATOM     16  C   UNL     1      -3.172   2.133  24.040  0.00  0.00    +0.074 C 
ATOM     17  N   UNL     1      -2.513   2.104  24.553  0.00  0.00    -0.266 NA
ATOM     28  C   UNL     1      -2.978   1.647  24.266  0.00  0.00    +0.078 C 
ATOM     29  C   UNL     1      -2.682   0.947  24.606  0.00  0.00    +0.110 C 
ATOM     30  N   UNL     1      -2.185   1.243  24.943  0.00  0.00    -0.299 N 
ATOM     31  C   UNL     1      -1.528   1.338  25.433  0.00  0.00    +0.261 A 
ATOM     32  O   UNL     1      -1.212   2.090  25.559  0.00  0.00    -0.267 OA
ATOM     33  C   UNL     1      -1.189   0.682  25.799  0.00  0.00    +0.061 A 
ATOM     34  C   UNL     1      -1.505  -0.070  25.674  0.00  0.00    +0.006 A 
ENDROOT
BRANCH  11   8
ATOM      5  C   UNL     1      -3.110  -2.421  24.808  0.00  0.00    +0.073 A 
ATOM      6  C   UNL     1      -3.426  -1.933  25.393  0.00  0.00    +0.017 A 
ATOM      7  C   UNL     1      -3.109  -1.181  25.518  0.00  0.00    +0.001 A 
ATOM      8  C   UNL     1      -2.477  -0.917  25.058  0.00  0.00    +0.001 A 
ATOM      9  C   UNL     1      -2.161  -1.406  24.474  0.00  0.00    +0.001 A 
ATOM     10  C   UNL     1      -2.477  -2.157  24.349  0.00  0.00    +0.017 A 
BRANCH   5   4
ATOM      1  C   UNL     1      -4.319  -4.037  23.980  0.00  0.00    +0.097 C 
ATOM      2  C   UNL     1      -4.003  -3.286  24.105  0.00  0.00    +0.246 C 
ATOM      3  O   UNL     1      -4.263  -2.648  23.651  0.00  0.00    -0.273 OA
ATOM      4  N   UNL     1      -3.425  -3.172  24.683  0.00  0.00    -0.179 NA
ENDBRANCH   5   4
ENDBRANCH  11   8
BRANCH  17  18
ATOM     18  C   UNL     1      -1.876   2.374  25.002  0.00  0.00    +0.138 C 
BRANCH  18  19
ATOM     19  C   UNL     1      -1.654   3.167  24.969  0.00  0.00    +0.139 A 
ATOM     20  C   UNL     1      -2.057   3.799  25.318  0.00  0.00    +0.037 A 
ATOM     21  C   UNL     1      -1.643   4.491  25.147  0.00  0.00    +0.037 A 
ATOM     22  C   UNL     1      -0.985   4.289  24.692  0.00  0.00    +0.145 A 
ATOM     23  O   UNL     1      -0.992   3.471  24.582  0.00  0.00    -0.456 OA
ATOM     24  C   UNL     1      -0.465   4.876  24.436  0.00  0.00    +0.037 A 
ATOM     25  C   UNL     1      -0.602   5.664  24.635  0.00  0.00    +0.003 A 
ATOM     26  C   UNL     1      -1.260   5.866  25.090  0.00  0.00    +0.000 A 
ATOM     27  C   UNL     1      -1.780   5.280  25.346  0.00  0.00    +0.003 A 
ENDBRANCH  18  19
ENDBRANCH  17  18
TORSDOF 4
ENDMDL
MODEL 2
REMARK VINA RESULT:     -11.2      1.247      5.846
REMARK  Name = 
REMARK  4 active torsions:
REMARK  status: ('A' for Active; 'I' for Inactive)
REMARK    1  A    between atoms: N_4  and  C_5
REMARK    2  A    between atoms: C_8  and  C_11
REMARK    3  A    between atoms: N_17  and  C_18
REMARK    4  A    between atoms: C_18  and  C_19
REMARK                            x       y       z     vdW  Elec       q    Type
REMARK                         _______ _______ _______ _____ _____    ______ ____
ROOT
ATOM     11  C   UNL     1      -3.166   2.370  24.967  0.00  0.00    +0.012 A 
ATOM     12  C   UNL     1      -2.693   1.710  24.819  0.00  0.00    +0.041 A 
ATOM     13  C   UNL     1      -1.815   1.480  24.678  0.00  0.00    +0.054 C 
ATOM     14  C   UNL     1      -1.172   1.759  24.635  0.00  0.00    +0.011 C 
ATOM     15  C   UNL     1      -1.513   1.021  24.579  0.00  0.00    +0.039 C 
ATOM     16  C   UNL     1      -1.733   0.063  24.477  0.00  0.00    +0.074 C 
ATOM     17  N   UNL     1      -2.561   0.098  24.585  0.00  0.00    -0.266 NA
ATOM     28  C   UNL     1      -2.011   0.551  24.578  0.00  0.00    +0.078 C 
ATOM     29  C   UNL     1      -2.433   1.253  24.725  0.00  0.00    +0.110 C 
ATOM     30  N   UNL     1      -3.035   0.962  24.761  0.00  0.00    -0.299 N 
ATOM     31  C   UNL     1      -3.850   0.872  24.851  0.00  0.00    +0.261 A 
ATOM     32  O   UNL     1      -4.192   0.123  24.793  0.00  0.00    -0.267 OA
ATOM     33  C   UNL     1      -4.323   1.531  24.999  0.00  0.00    +0.061 A 
ATOM     34  C   UNL     1      -3.982   2.280  25.057  0.00  0.00    +0.006 A 
ENDROOT
BRANCH  11   8
ATOM      5  C   UNL     1      -2.141   4.616  25.141  0.00  0.00    +0.073 A 
ATOM      6  C   UNL     1      -2.187   4.131  25.807  0.00  0.00    +0.017 A 
ATOM      7  C   UNL     1      -2.529   3.382  25.749  0.00  0.00    +0.001 A 
ATOM      8  C   UNL     1      -2.825   3.118  25.025  0.00  0.00    +0.001 A 
ATOM      9  C   UNL     1      -2.778   3.603  24.359  0.00  0.00    +0.001 A 
ATOM     10  C   UNL     1      -2.436   4.352  24.418  0.00  0.00    +0.017 A 
BRANCH   5   4
ATOM      1  C   UNL     1      -0.684   6.234  24.998  0.00  0.00    +0.097 C 
ATOM      2  C   UNL     1      -1.025   5.486  24.940  0.00  0.00    +0.246 C 
ATOM      3  O   UNL     1      -0.594   4.858  24.623  0.00  0.00    -0.273 OA
ATOM      4  N   UNL     1      -1.799   5.364  25.199  0.00  0.00    -0.179 NA
ENDBRANCH   5   4
ENDBRANCH  11   8
BRANCH  17  18
ATOM     18  C   UNL     1      -3.340  -0.166  24.647  0.00  0.00    +0.138 C 
BRANCH  18  19
ATOM     19  C   UNL     1      -3.519  -0.960  24.514  0.00  0.00    +0.139 A 
ATOM     20  C   UNL     1      -3.945  -1.261  23.873  0.00  0.00    +0.037 A 
ATOM     21  C   UNL     1      -3.992  -2.080  23.961  0.00  0.00    +0.037 A 
ATOM     22  C   UNL     1      -3.596  -2.285  24.655  0.00  0.00    +0.145 A 
ATOM     23  O   UNL     1      -3.304  -1.593  24.997  0.00  0.00    -0.456 OA
ATOM     24  C   UNL     1      -3.553  -3.076  24.887  0.00  0.00    +0.037 A 
ATOM     25  C   UNL     1      -3.906  -3.661  24.424  0.00  0.00    +0.003 A 
ATOM     26  C   UNL     1      -4.301  -3.456  23.730  0.00  0.00    +0.000 A 
ATOM     27  C   UNL     1      -4.345  -2.666  23.499  0.00  0.00    +0.003 A 
ENDBRANCH  18  19
ENDBRANCH  17  18
TORSDOF 4
ENDMDL
MODEL 3
REMARK VINA RESULT:     -10.1      2.758      4.474
REMARK  Name = 
REMARK  4 active torsions:
REMARK  status: ('A' for Active; 'I' for Inactive)
REMARK    1  A    between atoms: N_4  and  C_5
REMARK    2  A    between atoms: C_8  and  C_11
REMARK    3  A    between atoms: N_17  and  C_18
REMARK    4  A    between atoms: C_18  and  C_19
REMARK                            x       y       z     vdW  Elec       q    Type
REMARK                         _______ _______ _______ _____ _____    ______ ____
ROOT
ATOM     11  C   UNL     1      -0.694   1.056  23.513  0.00  0.00    +0.012 A 
ATOM     12  C   UNL     1      -1.186   0.738  24.093  0.00  0.00    +0.041 A 
ATOM     13  C   UNL     1      -1.194   0.092  24.746  0.00  0.00    +0.054 C 
ATOM     14  C   UNL     1      -0.790  -0.406  25.033  0.00  0.00    +0.011 C 
ATOM     15  C   UNL     1      -1.542  -0.109  25.132  0.00  0.00    +0.039 C 
ATOM     16  C   UNL     1      -2.468   0.109  25.402  0.00  0.00    +0.074 C 
ATOM     17  N   UNL     1      -2.628   0.728  24.864  0.00  0.00    -0.266 NA
ATOM     28  C   UNL     1      -2.087   0.291  25.018  0.00  0.00    +0.078 C 
ATOM     29  C   UNL     1      -1.544   0.569  24.452  0.00  0.00    +0.110 C 
ATOM     30  N   UNL     1      -1.948   1.036  24.196  0.00  0.00    -0.299 N 
ATOM     31  C   UNL     1      -2.219   1.653  23.719  0.00  0.00    +0.261 A 
ATOM     32  O   UNL     1      -2.981   1.951  23.823  0.00  0.00    -0.267 OA
ATOM     33  C   UNL     1      -1.726   1.971  23.139  0.00  0.00    +0.061 A 
ATOM     34  C   UNL     1      -0.964   1.673  23.036  0.00  0.00    +0.006 A 
ENDROOT
BRANCH  11   8
ATOM      5  C   UNL     1       1.594   0.162  23.203  0.00  0.00    +0.073 A 
ATOM      6  C   UNL     1       0.961  -0.172  22.792  0.00  0.00    +0.017 A 
ATOM      7  C   UNL     1       0.199   0.126  22.895  0.00  0.00    +0.001 A 
ATOM      8  C   UNL     1       0.069   0.758  23.409  0.00  0.00    +0.001 A 
ATOM      9  C   UNL     1       0.701   1.092  23.820  0.00  0.00    +0.001 A 
ATOM     10  C   UNL     1       1.464   0.794  23.717  0.00  0.00    +0.017 A 
BRANCH   5   4
ATOM      1  C   UNL     1       3.723   0.063  22.737  0.00  0.00    +0.097 C 
ATOM      2  C   UNL     1       2.961   0.361  22.840  0.00  0.00    +0.246 C 
ATOM      3  O   UNL     1       2.804   1.155  22.684  0.00  0.00    -0.273 OA
ATOM      4  N   UNL     1       2.355  -0.136  23.099  0.00  0.00    -0.179 NA
ENDBRANCH   5   4
ENDBRANCH  11   8
BRANCH  17  18
ATOM     18  C   UNL     1      -3.049   1.328  24.484  0.00  0.00    +0.138 C 
BRANCH  18  19
ATOM     19  C   UNL     1      -3.795   1.546  24.759  0.00  0.00    +0.139 A 
ATOM     20  C   UNL     1      -4.506   1.162  24.589  0.00  0.00    +0.037 A 
ATOM     21  C   UNL     1      -5.112   1.565  24.977  0.00  0.00    +0.037 A 
ATOM     22  C   UNL     1      -4.777   2.197  25.387  0.00  0.00    +0.145 A 
ATOM     23  O   UNL     1      -3.962   2.186  25.252  0.00  0.00    -0.456 OA
ATOM     24  C   UNL     1      -5.256   2.702  25.830  0.00  0.00    +0.037 A 
ATOM     25  C   UNL     1      -6.070   2.574  25.863  0.00  0.00    +0.003 A 
ATOM     26  C   UNL     1      -6.405   1.942  25.453  0.00  0.00    +0.000 A 
ATOM     27  C   UNL     1      -5.927   1.437  25.010  0.00  0.00    +0.003 A 
ENDBRANCH  18  19
ENDBRANCH  17  18
TORSDOF 4
ENDMDL
MODEL 4
REMARK VINA RESULT:      -9.8      2.899      4.222
REMARK  Name = 
REMARK  4 active torsions:
REMARK  status: ('A' for Active; 'I' for Inactive)
REMARK    1  A    between atoms: N_4  and  C_5
REMARK    2  A    between atoms: C_8  and  C_11
REMARK    3  A    between atoms: N_17  and  C_18
REMARK    4  A    between atoms: C_18  and  C_19
REMARK                            x       y       z     vdW  Elec       q    Type
REMARK                         _______ _______ _______ _____ _____    ______ ____
ROOT
ATOM     11  C   UNL     1      -2.481   1.261  24.016  0.00  0.00    +0.012 A 
ATOM     12  C   UNL     1      -1.875   0.774  24.290  0.00  0.00    +0.041 A 
ATOM     13  C   UNL     1      -1.696   0.158  24.948  0.00  0.00    +0.054 C 
ATOM     14  C   UNL     1      -1.994  -0.163  25.497  0.00  0.00    +0.011 C 
ATOM     15  C   UNL     1      -1.273  -0.164  25.117  0.00  0.00    +0.039 C 
ATOM     16  C   UNL     1      -0.349  -0.304  24.799  0.00  0.00    +0.074 C 
ATOM     17  N   UNL     1      -0.342   0.223  24.151  0.00  0.00    -0.266 NA
ATOM     28  C   UNL     1      -0.800   0.011  24.653  0.00  0.00    +0.078 C 
ATOM     29  C   UNL     1      -1.450   0.479  24.426  0.00  0.00    +0.110 C 
ATOM     30  N   UNL     1      -1.144   0.771  23.907  0.00  0.00    -0.299 N 
ATOM     31  C   UNL     1      -1.020   1.254  23.251  0.00  0.00    +0.261 A 
ATOM     32  O   UNL     1      -0.289   1.250  22.868  0.00  0.00    -0.267 OA
ATOM     33  C   UNL     1      -1.626   1.741  22.977  0.00  0.00    +0.061 A 
ATOM     34  C   UNL     1      -2.357   1.745  23.360  0.00  0.00    +0.006 A 
ENDROOT
BRANCH  11   8
ATOM      5  C   UNL     1      -4.674   1.272  25.165  0.00  0.00    +0.073 A 
ATOM      6  C   UNL     1      -4.096   1.822  25.375  0.00  0.00    +0.017 A 
ATOM      7  C   UNL     1      -3.365   1.818  24.992  0.00  0.00    +0.001 A 
ATOM      8  C   UNL     1      -3.212   1.265  24.399  0.00  0.00    +0.001 A 
ATOM      9  C   UNL     1      -3.790   0.715  24.190  0.00  0.00    +0.001 A 
ATOM     10  C   UNL     1      -4.521   0.719  24.573  0.00  0.00    +0.017 A 
BRANCH   5   4
ATOM      1  C   UNL     1      -6.660   1.905  25.811  0.00  0.00    +0.097 C 
ATOM      2  C   UNL     1      -5.930   1.901  25.428  0.00  0.00    +0.246 C 
ATOM      3  O   UNL     1      -5.724   2.522  24.926  0.00  0.00    -0.273 OA
ATOM      4  N   UNL     1      -5.404   1.276  25.548  0.00  0.00    -0.179 NA
ENDBRANCH   5   4
ENDBRANCH  11   8
BRANCH  17  18
ATOM     18  C   UNL     1      -0.053   0.634  23.496  0.00  0.00    +0.138 C 
BRANCH  18  19
ATOM     19  C   UNL     1       0.739   0.558  23.278  0.00  0.00    +0.139 A 
ATOM     20  C   UNL     1       1.048  -0.010  22.764  0.00  0.00    +0.037 A 
ATOM     21  C   UNL     1       1.861   0.117  22.704  0.00  0.00    +0.037 A 
ATOM     22  C   UNL     1       2.054   0.763  23.179  0.00  0.00    +0.145 A 
ATOM     23  O   UNL     1       1.361   1.036  23.534  0.00  0.00    -0.456 OA
ATOM     24  C   UNL     1       2.837   1.020  23.228  0.00  0.00    +0.037 A 
ATOM     25  C   UNL     1       3.425   0.631  22.801  0.00  0.00    +0.003 A 
ATOM     26  C   UNL     1       3.232  -0.015  22.326  0.00  0.00    +0.000 A 
ATOM     27  C   UNL     1       2.451  -0.272  22.276  0.00  0.00    +0.003 A 
ENDBRANCH  18  19
ENDBRANCH  17  18
TORSDOF 4
ENDMDL
