MODEL 1
REMARK VINA RESULT:     -14.0      0.000      0.000
REMARK  Name = 
REMARK  7 active torsions:
REMARK  status: ('A' for Active; 'I' for Inactive)
REMARK    1  A    between atoms: C_2  and  C_5
REMARK    2  A    between atoms: C_8  and  C_11
REMARK    3  A    between atoms: C_13  and  C_14
REMARK    4  A    between atoms: C_14  and  C_15
REMARK    5  A    between atoms: C_20  and  C_21
REMARK    6  A    between atoms: C_21  and  C_22
REMARK    7  A    between atoms: N_27  and  C_30
REMARK                            x       y       z     vdW  Elec       q    Type
REMARK                         _______ _______ _______ _____ _____    ______ ____
ROOT
ATOM     15  C   UNL     1      -3.692   3.295  25.135  0.00  0.00    +0.024 C 
ATOM     16  C   UNL     1      -4.259   3.542  25.680  0.00  0.00    +0.089 C 
ATOM     17  N   UNL     1      -4.037   4.004  26.326  0.00  0.00    -0.218 NA
ATOM     18  C   UNL     1      -3.246   4.219  26.427  0.00  0.00    +0.089 C 
ATOM     19  C   UNL     1      -2.679   3.972  25.880  0.00  0.00    +0.019 C 
ATOM     20  C   UNL     1      -2.901   3.510  25.235  0.00  0.00    +0.012 C 
ENDROOT
BRANCH  15  14
ATOM     14  C   UNL     1      -3.914   2.832  24.488  0.00  0.00    +0.051 C 
BRANCH  14  13
ATOM     11  C   UNL     1      -4.360   0.755  24.688  0.00  0.00    +0.177 A 
ATOM     12  C   UNL     1      -3.836   1.365  24.503  0.00  0.00    +0.058 A 
ATOM     13  C   UNL     1      -4.231   2.080  24.610  0.00  0.00    +0.101 A 
ATOM     36  N   UNL     1      -4.999   1.913  24.861  0.00  0.00    -0.081 NA
ATOM     37  O   UNL     1      -5.078   1.094  24.909  0.00  0.00    -0.354 OA
BRANCH  11   8
ATOM      5  C   UNL     1      -3.863  -1.668  24.594  0.00  0.00    -0.023 A 
ATOM      6  C   UNL     1      -4.118  -1.273  23.916  0.00  0.00    -0.004 A 
ATOM      7  C   UNL     1      -4.284  -0.466  23.947  0.00  0.00    +0.003 A 
ATOM      8  C   UNL     1      -4.195  -0.053  24.656  0.00  0.00    +0.037 A 
ATOM      9  C   UNL     1      -3.940  -0.449  25.334  0.00  0.00    +0.003 A 
ATOM     10  C   UNL     1      -3.774  -1.257  25.302  0.00  0.00    -0.004 A 
BRANCH   5   2
ATOM      1  C   UNL     1      -3.532  -3.283  24.531  0.00  0.00    +0.004 C 
ATOM      2  C   UNL     1      -3.698  -2.476  24.563  0.00  0.00    +0.019 C 
ATOM      3  C   UNL     1      -4.217  -2.558  23.927  0.00  0.00    +0.004 C 
ATOM      4  C   UNL     1      -3.178  -2.394  25.198  0.00  0.00    +0.004 C 
ENDBRANCH   5   2
ENDBRANCH  11   8
ENDBRANCH  14  13
ENDBRANCH  15  14
BRANCH  20  21
ATOM     21  C   UNL     1      -2.334   3.263  24.689  0.00  0.00    +0.085 C 
BRANCH  21  22
ATOM     22  C   UNL     1      -1.533   3.301  24.881  0.00  0.00    +0.226 C 
ATOM     23  O   UNL     1      -1.256   3.897  25.381  0.00  0.00    -0.275 OA
ATOM     24  N   UNL     1      -1.008   2.743  24.575  0.00  0.00    -0.276 N 
ATOM     25  C   UNL     1      -0.207   2.781  24.768  0.00  0.00    +0.115 C 
ATOM     26  C   UNL     1       0.318   2.223  24.461  0.00  0.00    +0.112 C 
ATOM     27  N   UNL     1       0.041   1.627  23.962  0.00  0.00    -0.304 N 
ATOM     28  C   UNL     1      -0.761   1.590  23.770  0.00  0.00    +0.112 C 
ATOM     29  C   UNL     1      -1.285   2.147  24.076  0.00  0.00    +0.115 C 
BRANCH  27  30
ATOM     30  C   UNL     1       0.566   1.069  23.655  0.00  0.00    +0.048 A 
ATOM     31  C   UNL     1       1.351   1.276  23.513  0.00  0.00    +0.015 A 
ATOM     32  C   UNL     1       1.876   0.718  23.206  0.00  0.00    +0.001 A 
ATOM     33  C   UNL     1       1.615  -0.047  23.042  0.00  0.00    +0.000 A 
ATOM     34  C   UNL     1       0.829  -0.254  23.184  0.00  0.00    +0.001 A 
ATOM     35  C   UNL     1       0.305   0.304  23.491  0.00  0.00    +0.015 A 
ENDBRANCH  27  30
ENDBRANCH  21  22
ENDBRANCH  20  21
TORSDOF 7
ENDMDL
MODEL 2
REMARK VINA RESULT:     -12.4      1.513      4.190
REMARK  Name = 
REMARK  7 active torsions:
REMARK  status: ('A' for Active; 'I' for Inactive)
REMARK    1  A    between atoms: C_2  and  C_5
REMARK    2  A    between atoms: C_8  and  C_11
REMARK    3  A    between atoms: C_13  and  C_14
REMARK    4  A    between atoms: C_14  and  C_15
REMARK    5  A    between atoms: C_20  and  C_21
REMARK    6  A    between atoms: C_21  and  C_22
REMARK    7  A    between atoms: N_27  and  C_30
REMARK                            x       y       z     vdW  Elec       q    Type
REMARK                         _______ _______ _______ _____ _____    ______ ____
ROOT
ATOM     15  C   UNL     1      -0.165   2.251  24.918  0.00  0.00    +0.024 C 
ATOM     16  C   UNL     1       0.504   2.030  25.347  0.00  0.00    +0.089 C 
ATOM     17  N   UNL     1       0.676   2.400  26.063  0.00  0.00    -0.218 NA
ATOM     18  C   UNL     1       0.178   2.991  26.352  0.00  0.00    +0.089 C 
ATOM     19  C   UNL     1      -0.492   3.213  25.923  0.00  0.00    +0.019 C 
ATOM     20  C   UNL     1      -0.663   2.842  25.207  0.00  0.00    +0.012 C 
ENDROOT
BRANCH  15  14
ATOM     14  C   UNL     1      -0.338   1.881  24.201  0.00  0.00    +0.051 C 
BRANCH  14  13
ATOM     11  C   UNL     1      -0.923  -0.172  24.245  0.00  0.00    +0.177 A 
ATOM     12  C   UNL     1      -1.094   0.629  24.351  0.00  0.00    +0.058 A 
ATOM     13  C   UNL     1      -0.415   1.060  24.170  0.00  0.00    +0.101 A 
ATOM     36  N   UNL     1       0.175   0.526  23.951  0.00  0.00    -0.081 NA
ATOM     37  O   UNL     1      -0.139  -0.235  23.998  0.00  0.00    -0.354 OA
BRANCH  11   8
ATOM      5  C   UNL     1      -2.491  -2.053  24.606  0.00  0.00    -0.023 A 
ATOM      6  C   UNL     1      -2.781  -1.310  24.391  0.00  0.00    -0.004 A 
ATOM      7  C   UNL     1      -2.258  -0.683  24.270  0.00  0.00    +0.003 A 
ATOM      8  C   UNL     1      -1.446  -0.799  24.365  0.00  0.00    +0.037 A 
ATOM      9  C   UNL     1      -1.158  -1.541  24.580  0.00  0.00    +0.003 A 
ATOM     10  C   UNL     1      -1.681  -2.168  24.701  0.00  0.00    -0.004 A 
BRANCH   5   2
ATOM      1  C   UNL     1      -3.536  -3.307  24.846  0.00  0.00    +0.004 C 
ATOM      2  C   UNL     1      -3.014  -2.680  24.726  0.00  0.00    +0.019 C 
ATOM      3  C   UNL     1      -2.605  -3.128  24.167  0.00  0.00    +0.004 C 
ATOM      4  C   UNL     1      -3.423  -2.231  25.285  0.00  0.00    +0.004 C 
ENDBRANCH   5   2
ENDBRANCH  11   8
ENDBRANCH  14  13
ENDBRANCH  15  14
BRANCH  20  21
ATOM     21  C   UNL     1      -1.333   3.064  24.778  0.00  0.00    +0.085 C 
BRANCH  21  22
ATOM     22  C   UNL     1      -1.883   3.580  25.111  0.00  0.00    +0.226 C 
ATOM     23  O   UNL     1      -1.638   4.312  25.403  0.00  0.00    -0.275 OA
ATOM     24  N   UNL     1      -2.679   3.367  25.151  0.00  0.00    -0.276 N 
ATOM     25  C   UNL     1      -3.229   3.883  25.484  0.00  0.00    +0.115 C 
ATOM     26  C   UNL     1      -4.025   3.669  25.524  0.00  0.00    +0.112 C 
ATOM     27  N   UNL     1      -4.270   2.938  25.232  0.00  0.00    -0.304 N 
ATOM     28  C   UNL     1      -3.719   2.421  24.899  0.00  0.00    +0.112 C 
ATOM     29  C   UNL     1      -2.924   2.635  24.859  0.00  0.00    +0.115 C 
BRANCH  27  30
ATOM     30  C   UNL     1      -5.066   2.723  25.272  0.00  0.00    +0.048 A 
ATOM     31  C   UNL     1      -5.596   3.185  25.703  0.00  0.00    +0.015 A 
ATOM     32  C   UNL     1      -6.392   2.970  25.743  0.00  0.00    +0.001 A 
ATOM     33  C   UNL     1      -6.656   2.294  25.353  0.00  0.00    +0.000 A 
ATOM     34  C   UNL     1      -6.126   1.832  24.922  0.00  0.00    +0.001 A 
ATOM     35  C   UNL     1      -5.330   2.046  24.882  0.00  0.00    +0.015 A 
ENDBRANCH  27  30
ENDBRANCH  21  22
ENDBRANCH  20  21
TORSDOF 7
ENDMDL
MODEL 3
REMARK VINA RESULT:     -12.4      1.583      4.921
REMARK  Name = 
REMARK  7 active torsions:
REMARK  status: ('A' for Active; 'I' for Inactive)
REMARK    1  A    between atoms: C_2  and  C_5
REMARK    2  A    between atoms: C_8  and  C_11
REMARK    3  A    between atoms: C_13  and  C_14
REMARK    4  A    between atoms: C_14  and  C_15
REMARK    5  A    between atoms: C_20  and  C_21
REMARK    6  A    between atoms: C_21  and  C_22
REMARK    7  A    between atoms: N_27  and  C_30
REMARK                            x       y       z     vdW  Elec       q    Type
REMARK                         _______ _______ _______ _____ _____    ______ ____
ROOT
ATOM     15  C   UNL     1       0.038   1.900  24.980  0.00  0.00    +0.024 C 
ATOM     16  C   UNL     1       0.527   2.473  24.645  0.00  0.00    +0.089 C 
ATOM     17  N   UNL     1       0.974   2.295  23.975  0.00  0.00    -0.218 NA
ATOM     18  C   UNL     1       0.933   1.542  23.640  0.00  0.00    +0.089 C 
ATOM     19  C   UNL     1       0.443   0.967  23.976  0.00  0.00    +0.019 C 
ATOM     20  C   UNL     1      -0.004   1.146  24.645  0.00  0.00    +0.012 C 
ENDROOT
BRANCH  15  14
ATOM     14  C   UNL     1      -0.410   2.078  25.650  0.00  0.00    +0.051 C 
BRANCH  14  13
ATOM     11  C   UNL     1      -2.166   3.289  25.567  0.00  0.00    +0.177 A 
ATOM     12  C   UNL     1      -1.802   2.549  25.606  0.00  0.00    +0.058 A 
ATOM     13  C   UNL     1      -0.986   2.667  25.614  0.00  0.00    +0.101 A 
ATOM     36  N   UNL     1      -0.846   3.480  25.581  0.00  0.00    -0.081 NA
ATOM     37  O   UNL     1      -1.575   3.863  25.552  0.00  0.00    -0.354 OA
BRANCH  11   8
ATOM      5  C   UNL     1      -4.605   3.707  25.509  0.00  0.00    -0.023 A 
ATOM      6  C   UNL     1      -4.240   3.309  24.885  0.00  0.00    -0.004 A 
ATOM      7  C   UNL     1      -3.427   3.170  24.904  0.00  0.00    +0.003 A 
ATOM      8  C   UNL     1      -2.979   3.428  25.548  0.00  0.00    +0.037 A 
ATOM      9  C   UNL     1      -3.345   3.825  26.171  0.00  0.00    +0.003 A 
ATOM     10  C   UNL     1      -4.158   3.965  26.152  0.00  0.00    -0.004 A 
BRANCH   5   2
ATOM      1  C   UNL     1      -6.231   3.986  25.470  0.00  0.00    +0.004 C 
ATOM      2  C   UNL     1      -5.418   3.846  25.489  0.00  0.00    +0.019 C 
ATOM      3  C   UNL     1      -5.558   3.050  25.654  0.00  0.00    +0.004 C 
ATOM      4  C   UNL     1      -5.277   4.643  25.325  0.00  0.00    +0.004 C 
ENDBRANCH   5   2
ENDBRANCH  11   8
ENDBRANCH  14  13
ENDBRANCH  15  14
BRANCH  20  21
ATOM     21  C   UNL     1      -0.493   0.572  24.980  0.00  0.00    +0.085 C 
BRANCH  21  22
ATOM     22  C   UNL     1      -0.426  -0.215  24.744  0.00  0.00    +0.226 C 
ATOM     23  O   UNL     1       0.319  -0.547  24.618  0.00  0.00    -0.275 OA
ATOM     24  N   UNL     1      -1.104  -0.672  24.633  0.00  0.00    -0.276 N 
ATOM     25  C   UNL     1      -1.037  -1.459  24.397  0.00  0.00    +0.115 C 
ATOM     26  C   UNL     1      -1.716  -1.916  24.287  0.00  0.00    +0.112 C 
ATOM     27  N   UNL     1      -2.460  -1.585  24.412  0.00  0.00    -0.304 N 
ATOM     28  C   UNL     1      -2.527  -0.797  24.649  0.00  0.00    +0.112 C 
ATOM     29  C   UNL     1      -1.849  -0.341  24.759  0.00  0.00    +0.115 C 
BRANCH  27  30
ATOM     30  C   UNL     1      -3.139  -2.042  24.302  0.00  0.00    +0.048 A 
ATOM     31  C   UNL     1      -3.777  -1.735  23.879  0.00  0.00    +0.015 A 
ATOM     32  C   UNL     1      -4.456  -2.192  23.769  0.00  0.00    +0.001 A 
ATOM     33  C   UNL     1      -4.496  -2.954  24.081  0.00  0.00    +0.000 A 
ATOM     34  C   UNL     1      -3.857  -3.260  24.504  0.00  0.00    +0.001 A 
ATOM     35  C   UNL     1      -3.179  -2.804  24.615  0.00  0.00    +0.015 A 
ENDBRANCH  27  30
ENDBRANCH  21  22
ENDBRANCH  20  21
TORSDOF 7
ENDMDL
MODEL 4
REMARK VINA RESULT:     -11.8      1.624      4.026
REMARK  Name = 
REMARK  7 active torsions:
REMARK  status: ('A' for Active; 'I' for Inactive)
REMARK    1  A    between atoms: C_2  and  C_5
REMARK    2  A    between atoms: C_8  and  C_11
REMARK    3  A    between atoms: C_13  and  C_14
REMARK    4  A    between atoms: C_14  and  C_15
REMARK    5  A    between atoms: C_20  and  C_21
REMARK    6  A    between atoms: C_21  and  C_22
REMARK    7  A    between atoms: N_27  and  C_30
REMARK                            x       y       z     vdW  Elec       q    Type
REMARK                         _______ _______ _______ _____ _____    ______ ____
ROOT
ATOM     15  C   UNL     1      -0.617   2.936  24.890  0.00  0.00    +0.024 C 
ATOM     16  C   UNL     1      -0.365   3.514  25.422  0.00  0.00    +0.089 C 
ATOM     17  N   UNL     1       0.159   3.319  26.028  0.00  0.00    -0.218 NA
ATOM     18  C   UNL     1       0.432   2.543  26.102  0.00  0.00    +0.089 C 
ATOM     19  C   UNL     1       0.181   1.965  25.570  0.00  0.00    +0.019 C 
ATOM     20  C   UNL     1      -0.343   2.161  24.964  0.00  0.00    +0.012 C 
ENDROOT
BRANCH  15  14
ATOM     14  C   UNL     1      -1.142   3.132  24.284  0.00  0.00    +0.051 C 
BRANCH  14  13
ATOM     11  C   UNL     1      -3.210   3.329  24.774  0.00  0.00    +0.177 A 
ATOM     12  C   UNL     1      -2.547   2.862  24.618  0.00  0.00    +0.058 A 
ATOM     13  C   UNL     1      -1.912   3.365  24.466  0.00  0.00    +0.101 A 
ATOM     36  N   UNL     1      -2.181   4.142  24.528  0.00  0.00    -0.081 NA
ATOM     37  O   UNL     1      -2.983   4.120  24.718  0.00  0.00    -0.354 OA
BRANCH  11   8
ATOM      5  C   UNL     1      -5.478   2.500  25.315  0.00  0.00    -0.023 A 
ATOM      6  C   UNL     1      -5.095   3.018  25.831  0.00  0.00    -0.004 A 
ATOM      7  C   UNL     1      -4.339   3.294  25.650  0.00  0.00    +0.003 A 
ATOM      8  C   UNL     1      -3.966   3.052  24.954  0.00  0.00    +0.037 A 
ATOM      9  C   UNL     1      -4.350   2.535  24.440  0.00  0.00    +0.003 A 
ATOM     10  C   UNL     1      -5.106   2.258  24.620  0.00  0.00    -0.004 A 
BRANCH   5   2
ATOM      1  C   UNL     1      -6.991   1.947  25.675  0.00  0.00    +0.004 C 
ATOM      2  C   UNL     1      -6.234   2.223  25.495  0.00  0.00    +0.019 C 
ATOM      3  C   UNL     1      -6.271   1.845  24.763  0.00  0.00    +0.004 C 
ATOM      4  C   UNL     1      -6.198   2.602  26.227  0.00  0.00    +0.004 C 
ENDBRANCH   5   2
ENDBRANCH  11   8
ENDBRANCH  14  13
ENDBRANCH  15  14
BRANCH  20  21
ATOM     21  C   UNL     1      -0.595   1.582  24.432  0.00  0.00    +0.085 C 
BRANCH  21  22
ATOM     22  C   UNL     1      -0.274   0.823  24.467  0.00  0.00    +0.226 C 
ATOM     23  O   UNL     1       0.544   0.720  24.464  0.00  0.00    -0.275 OA
ATOM     24  N   UNL     1      -0.772   0.166  24.506  0.00  0.00    -0.276 N 
ATOM     25  C   UNL     1      -0.452  -0.593  24.542  0.00  0.00    +0.115 C 
ATOM     26  C   UNL     1      -0.951  -1.249  24.580  0.00  0.00    +0.112 C 
ATOM     27  N   UNL     1      -1.769  -1.146  24.584  0.00  0.00    -0.304 N 
ATOM     28  C   UNL     1      -2.089  -0.386  24.548  0.00  0.00    +0.112 C 
ATOM     29  C   UNL     1      -1.591   0.270  24.510  0.00  0.00    +0.115 C 
BRANCH  27  30
ATOM     30  C   UNL     1      -2.268  -1.802  24.623  0.00  0.00    +0.048 A 
ATOM     31  C   UNL     1      -2.990  -1.748  25.018  0.00  0.00    +0.015 A 
ATOM     32  C   UNL     1      -3.489  -2.405  25.057  0.00  0.00    +0.001 A 
ATOM     33  C   UNL     1      -3.265  -3.114  24.700  0.00  0.00    +0.000 A 
ATOM     34  C   UNL     1      -2.543  -3.168  24.305  0.00  0.00    +0.001 A 
ATOM     35  C   UNL     1      -2.045  -2.512  24.266  0.00  0.00    +0.015 A 
ENDBRANCH  27  30
ENDBRANCH  21  22
ENDBRANCH  20  21
TORSDOF 7
ENDMDL
MODEL 5
REMARK VINA RESULT:     -11.8      1.982      3.252
REMARK  Name = 
REMARK  7 active torsions:
REMARK  status: ('A' for Active; 'I' for Inactive)
REMARK    1  A    between atoms: C_2  and  C_5
REMARK    2  A    between atoms: C_8  and  C_11
REMARK    3  A    between atoms: C_13  and  C_14
REMARK    4  A    between atoms: C_14  and  C_15
REMARK    5  A    between atoms: C_20  and  C_21
REMARK    6  A    between atoms: C_21  and  C_22
REMARK    7  A    between atoms: N_27  and  C_30
REMARK                            x       y       z     vdW  Elec       q    Type
REMARK                         _______ _______ _______ _____ _____    ______ ____
ROOT
ATOM     15  C   UNL     1      -5.621   1.623  25.233  0.00  0.00    +0.024 C 
ATOM     16  C   UNL     1      -6.185   1.104  25.537  0.00  0.00    +0.089 C 
ATOM     17  N   UNL     1      -6.636   1.321  26.193  0.00  0.00    -0.218 NA
ATOM     18  C   UNL     1      -6.521   2.059  26.546  0.00  0.00    +0.089 C 
ATOM     19  C   UNL     1      -5.957   2.578  26.241  0.00  0.00    +0.019 C 
ATOM     20  C   UNL     1      -5.507   2.361  25.585  0.00  0.00    +0.012 C 
ENDROOT
BRANCH  15  14
ATOM     14  C   UNL     1      -5.171   1.406  24.576  0.00  0.00    +0.051 C 
BRANCH  14  13
ATOM     11  C   UNL     1      -3.958  -0.350  24.584  0.00  0.00    +0.177 A 
ATOM     12  C   UNL     1      -4.048   0.464  24.686  0.00  0.00    +0.058 A 
ATOM     13  C   UNL     1      -4.836   0.653  24.538  0.00  0.00    +0.101 A 
ATOM     36  N   UNL     1      -5.234  -0.043  24.344  0.00  0.00    -0.081 NA
ATOM     37  O   UNL     1      -4.691  -0.663  24.373  0.00  0.00    -0.354 OA
BRANCH  11   8
ATOM      5  C   UNL     1      -1.856  -1.627  24.863  0.00  0.00    -0.023 A 
ATOM      6  C   UNL     1      -1.829  -0.833  24.639  0.00  0.00    -0.004 A 
ATOM      7  C   UNL     1      -2.530  -0.407  24.546  0.00  0.00    +0.003 A 
ATOM      8  C   UNL     1      -3.257  -0.776  24.677  0.00  0.00    +0.037 A 
ATOM      9  C   UNL     1      -3.282  -1.569  24.900  0.00  0.00    +0.003 A 
ATOM     10  C   UNL     1      -2.582  -1.995  24.993  0.00  0.00    -0.004 A 
BRANCH   5   2
ATOM      1  C   UNL     1      -0.455  -2.478  25.048  0.00  0.00    +0.004 C 
ATOM      2  C   UNL     1      -1.155  -2.053  24.955  0.00  0.00    +0.019 C 
ATOM      3  C   UNL     1      -0.829  -1.423  25.378  0.00  0.00    +0.004 C 
ATOM      4  C   UNL     1      -1.481  -2.682  24.533  0.00  0.00    +0.004 C 
ENDBRANCH   5   2
ENDBRANCH  11   8
ENDBRANCH  14  13
ENDBRANCH  15  14
BRANCH  20  21
ATOM     21  C   UNL     1      -4.943   2.881  25.281  0.00  0.00    +0.085 C 
BRANCH  21  22
ATOM     22  C   UNL     1      -4.568   3.420  25.780  0.00  0.00    +0.226 C 
ATOM     23  O   UNL     1      -4.945   3.678  26.468  0.00  0.00    -0.275 OA
ATOM     24  N   UNL     1      -3.815   3.701  25.593  0.00  0.00    -0.276 N 
ATOM     25  C   UNL     1      -3.440   4.240  26.092  0.00  0.00    +0.115 C 
ATOM     26  C   UNL     1      -2.687   4.521  25.904  0.00  0.00    +0.112 C 
ATOM     27  N   UNL     1      -2.310   4.263  25.218  0.00  0.00    -0.304 N 
ATOM     28  C   UNL     1      -2.686   3.723  24.719  0.00  0.00    +0.112 C 
ATOM     29  C   UNL     1      -3.438   3.443  24.906  0.00  0.00    +0.115 C 
BRANCH  27  30
ATOM     30  C   UNL     1      -1.557   4.544  25.030  0.00  0.00    +0.048 A 
ATOM     31  C   UNL     1      -1.427   5.355  24.955  0.00  0.00    +0.015 A 
ATOM     32  C   UNL     1      -0.674   5.636  24.767  0.00  0.00    +0.001 A 
ATOM     33  C   UNL     1      -0.052   5.106  24.654  0.00  0.00    +0.000 A 
ATOM     34  C   UNL     1      -0.182   4.295  24.729  0.00  0.00    +0.001 A 
ATOM     35  C   UNL     1      -0.936   4.014  24.917  0.00  0.00    +0.015 A 
ENDBRANCH  27  30
ENDBRANCH  21  22
ENDBRANCH  20  21
TORSDOF 7
ENDMDL
MODEL 6
REMARK VINA RESULT:     -11.8      1.742      5.957
REMARK  Name = 
REMARK  7 active torsions:
REMARK  status: ('A' for Active; 'I' for Inactive)
REMARK    1  A    between atoms: C_2  and  C_5
REMARK    2  A    between atoms: C_8  and  C_11
REMARK    3  A    between atoms: C_13  and  C_14
REMARK    4  A    between atoms: C_14  and  C_15
REMARK    5  A    between atoms: C_20  and  C_21
REMARK    6  A    between atoms: C_21  and  C_22
REMARK    7  A    between atoms: N_27  and  C_30
REMARK                            x       y       z     vdW  Elec       q    Type
REMARK                         _______ _______ _______ _____ _____    ______ ____
ROOT
ATOM     15  C   UNL     1      -0.710  -0.801  24.351  0.00  0.00    +0.024 C 
ATOM     16  C   UNL     1      -0.028  -1.132  24.674  0.00  0.00    +0.089 C 
ATOM     17  N   UNL     1      -0.086  -1.730  25.239  0.00  0.00    -0.218 NA
ATOM     18  C   UNL     1      -0.828  -1.997  25.482  0.00  0.00    +0.089 C 
ATOM     19  C   UNL     1      -1.512  -1.665  25.159  0.00  0.00    +0.019 C 
ATOM     20  C   UNL     1      -1.453  -1.068  24.594  0.00  0.00    +0.012 C 
ENDROOT
BRANCH  15  14
ATOM     14  C   UNL     1      -0.653  -0.203  23.785  0.00  0.00    +0.051 C 
BRANCH  14  13
ATOM     11  C   UNL     1      -0.288   1.829  24.326  0.00  0.00    +0.177 A 
ATOM     12  C   UNL     1      -0.806   1.219  24.123  0.00  0.00    +0.058 A 
ATOM     13  C   UNL     1      -0.359   0.538  23.998  0.00  0.00    +0.101 A 
ATOM     36  N   UNL     1       0.434   0.726  24.123  0.00  0.00    -0.081 NA
ATOM     37  O   UNL     1       0.478   1.524  24.326  0.00  0.00    -0.354 OA
BRANCH  11   8
ATOM      5  C   UNL     1      -0.925   4.164  24.844  0.00  0.00    -0.023 A 
ATOM      6  C   UNL     1      -0.790   3.628  25.457  0.00  0.00    -0.004 A 
ATOM      7  C   UNL     1      -0.578   2.850  25.284  0.00  0.00    +0.003 A 
ATOM      8  C   UNL     1      -0.500   2.608  24.499  0.00  0.00    +0.037 A 
ATOM      9  C   UNL     1      -0.635   3.144  23.887  0.00  0.00    +0.003 A 
ATOM     10  C   UNL     1      -0.847   3.922  24.060  0.00  0.00    -0.004 A 
BRANCH   5   2
ATOM      1  C   UNL     1      -1.349   5.721  25.189  0.00  0.00    +0.004 C 
ATOM      2  C   UNL     1      -1.137   4.943  25.016  0.00  0.00    +0.019 C 
ATOM      3  C   UNL     1      -1.847   4.677  25.341  0.00  0.00    +0.004 C 
ATOM      4  C   UNL     1      -0.426   5.208  24.692  0.00  0.00    +0.004 C 
ENDBRANCH   5   2
ENDBRANCH  11   8
ENDBRANCH  14  13
ENDBRANCH  15  14
BRANCH  20  21
ATOM     21  C   UNL     1      -2.137  -0.737  24.271  0.00  0.00    +0.085 C 
BRANCH  21  22
ATOM     22  C   UNL     1      -2.875  -0.928  24.585  0.00  0.00    +0.226 C 
ATOM     23  O   UNL     1      -3.056  -1.712  24.768  0.00  0.00    -0.275 OA
ATOM     24  N   UNL     1      -3.433  -0.335  24.716  0.00  0.00    -0.276 N 
ATOM     25  C   UNL     1      -4.171  -0.526  25.030  0.00  0.00    +0.115 C 
ATOM     26  C   UNL     1      -4.730   0.068  25.162  0.00  0.00    +0.112 C 
ATOM     27  N   UNL     1      -4.549   0.852  24.979  0.00  0.00    -0.304 N 
ATOM     28  C   UNL     1      -3.810   1.042  24.665  0.00  0.00    +0.112 C 
ATOM     29  C   UNL     1      -3.252   0.450  24.534  0.00  0.00    +0.115 C 
BRANCH  27  30
ATOM     30  C   UNL     1      -5.107   1.445  25.111  0.00  0.00    +0.048 A 
ATOM     31  C   UNL     1      -4.869   2.176  25.411  0.00  0.00    +0.015 A 
ATOM     32  C   UNL     1      -5.427   2.769  25.543  0.00  0.00    +0.001 A 
ATOM     33  C   UNL     1      -6.222   2.632  25.374  0.00  0.00    +0.000 A 
ATOM     34  C   UNL     1      -6.461   1.902  25.074  0.00  0.00    +0.001 A 
ATOM     35  C   UNL     1      -5.902   1.308  24.942  0.00  0.00    +0.015 A 
ENDBRANCH  27  30
ENDBRANCH  21  22
ENDBRANCH  20  21
TORSDOF 7
ENDMDL
MODEL 7
REMARK VINA RESULT:     -11.8      2.100      6.479
REMARK  Name = 
REMARK  7 active torsions:
REMARK  status: ('A' for Active; 'I' for Inactive)
REMARK    1  A    between atoms: C_2  and  C_5
REMARK    2  A    between atoms: C_8  and  C_11
REMARK    3  A    between atoms: C_13  and  C_14
REMARK    4  A    between atoms: C_14  and  C_15
REMARK    5  A    between atoms: C_20  and  C_21
REMARK    6  A    between atoms: C_21  and  C_22
REMARK    7  A    between atoms: N_27  and  C_30
REMARK                            x       y       z     vdW  Elec       q    Type
REMARK                         _______ _______ _______ _____ _____    ______ ____
ROOT
ATOM     15  C   UNL     1      -0.634  -0.487  24.274  0.00  0.00    +0.024 C 
ATOM     16  C   UNL     1      -0.158  -1.133  24.466  0.00  0.00    +0.089 C 
ATOM     17  N   UNL     1      -0.470  -1.760  24.901  0.00  0.00    -0.218 NA
ATOM     18  C   UNL     1      -1.258  -1.741  25.145  0.00  0.00    +0.089 C 
ATOM     19  C   UNL     1      -1.734  -1.094  24.953  0.00  0.00    +0.019 C 
ATOM     20  C   UNL     1      -1.422  -0.468  24.518  0.00  0.00    +0.012 C 
ENDROOT
BRANCH  15  14
ATOM     14  C   UNL     1      -0.322   0.141  23.837  0.00  0.00    +0.051 C 
BRANCH  14  13
ATOM     11  C   UNL     1       1.659  -0.006  23.056  0.00  0.00    +0.177 A 
ATOM     12  C   UNL     1       1.138   0.170  23.672  0.00  0.00    +0.058 A 
ATOM     13  C   UNL     1       0.371   0.035  23.402  0.00  0.00    +0.101 A 
ATOM     36  N   UNL     1       0.417  -0.224  22.620  0.00  0.00    -0.081 NA
ATOM     37  O   UNL     1       1.213  -0.249  22.407  0.00  0.00    -0.354 OA
BRANCH  11   8
ATOM      5  C   UNL     1       4.127   0.165  23.144  0.00  0.00    -0.023 A 
ATOM      6  C   UNL     1       3.759  -0.563  23.271  0.00  0.00    -0.004 A 
ATOM      7  C   UNL     1       2.937  -0.620  23.242  0.00  0.00    +0.003 A 
ATOM      8  C   UNL     1       2.482   0.051  23.085  0.00  0.00    +0.037 A 
ATOM      9  C   UNL     1       2.850   0.778  22.958  0.00  0.00    +0.003 A 
ATOM     10  C   UNL     1       3.672   0.835  22.987  0.00  0.00    -0.004 A 
BRANCH   5   2
ATOM      1  C   UNL     1       5.772   0.279  23.202  0.00  0.00    +0.004 C 
ATOM      2  C   UNL     1       4.949   0.222  23.173  0.00  0.00    +0.019 C 
ATOM      3  C   UNL     1       4.959   0.475  22.388  0.00  0.00    +0.004 C 
ATOM      4  C   UNL     1       4.939  -0.031  23.958  0.00  0.00    +0.004 C 
ENDBRANCH   5   2
ENDBRANCH  11   8
ENDBRANCH  14  13
ENDBRANCH  15  14
BRANCH  20  21
ATOM     21  C   UNL     1      -1.898   0.179  24.325  0.00  0.00    +0.085 C 
BRANCH  21  22
ATOM     22  C   UNL     1      -2.718   0.095  24.307  0.00  0.00    +0.226 C 
ATOM     23  O   UNL     1      -3.055  -0.621  24.074  0.00  0.00    -0.275 OA
ATOM     24  N   UNL     1      -3.203   0.728  24.520  0.00  0.00    -0.276 N 
ATOM     25  C   UNL     1      -4.023   0.644  24.501  0.00  0.00    +0.115 C 
ATOM     26  C   UNL     1      -4.507   1.278  24.715  0.00  0.00    +0.112 C 
ATOM     27  N   UNL     1      -4.170   1.994  24.948  0.00  0.00    -0.304 N 
ATOM     28  C   UNL     1      -3.349   2.077  24.967  0.00  0.00    +0.112 C 
ATOM     29  C   UNL     1      -2.865   1.445  24.753  0.00  0.00    +0.115 C 
BRANCH  27  30
ATOM     30  C   UNL     1      -4.654   2.627  25.162  0.00  0.00    +0.048 A 
ATOM     31  C   UNL     1      -5.386   2.486  25.516  0.00  0.00    +0.015 A 
ATOM     32  C   UNL     1      -5.869   3.119  25.730  0.00  0.00    +0.001 A 
ATOM     33  C   UNL     1      -5.622   3.893  25.590  0.00  0.00    +0.000 A 
ATOM     34  C   UNL     1      -4.890   4.035  25.236  0.00  0.00    +0.001 A 
ATOM     35  C   UNL     1      -4.406   3.401  25.022  0.00  0.00    +0.015 A 
ENDBRANCH  27  30
ENDBRANCH  21  22
ENDBRANCH  20  21
TORSDOF 7
ENDMDL
MODEL 8
REMARK VINA RESULT:     -11.5      1.830      4.178
REMARK  Name = 
REMARK  7 active torsions:
REMARK  status: ('A' for Active; 'I' for Inactive)
REMARK    1  A    between atoms: C_2  and  C_5
REMARK    2  A    between atoms: C_8  and  C_11
REMARK    3  A    between atoms: C_13  and  C_14
REMARK    4  A    between atoms: C_14  and  C_15
REMARK    5  A    between atoms: C_20  and  C_21
REMARK    6  A    between atoms: C_21  and  C_22
REMARK    7  A    between atoms: N_27  and  C_30
REMARK                            x       y       z     vdW  Elec       q    Type
REMARK                         _______ _______ _______ _____ _____    ______ ____
ROOT
ATOM     15  C   UNL     1      -1.710  -1.319  24.350  0.00  0.00    +0.024 C 
ATOM     16  C   UNL     1      -1.784  -2.039  24.746  0.00  0.00    +0.089 C 
ATOM     17  N   UNL     1      -1.205  -2.278  25.281  0.00  0.00    -0.218 NA
ATOM     18  C   UNL     1      -0.550  -1.797  25.421  0.00  0.00    +0.089 C 
ATOM     19  C   UNL     1      -0.475  -1.076  25.026  0.00  0.00    +0.019 C 
ATOM     20  C   UNL     1      -1.054  -0.837  24.490  0.00  0.00    +0.012 C 
ENDROOT
BRANCH  15  14
ATOM     14  C   UNL     1      -2.290  -1.080  23.814  0.00  0.00    +0.051 C 
BRANCH  14  13
ATOM     11  C   UNL     1      -4.060  -0.125  24.531  0.00  0.00    +0.177 A 
ATOM     12  C   UNL     1      -3.273  -0.093  24.284  0.00  0.00    +0.058 A 
ATOM     13  C   UNL     1      -3.036  -0.857  24.087  0.00  0.00    +0.101 A 
ATOM     36  N   UNL     1      -3.676  -1.363  24.212  0.00  0.00    -0.081 NA
ATOM     37  O   UNL     1      -4.309  -0.910  24.486  0.00  0.00    -0.354 OA
BRANCH  11   8
ATOM      5  C   UNL     1      -5.432   1.796  25.274  0.00  0.00    -0.023 A 
ATOM      6  C   UNL     1      -5.365   1.128  25.753  0.00  0.00    -0.004 A 
ATOM      7  C   UNL     1      -4.907   0.487  25.506  0.00  0.00    +0.003 A 
ATOM      8  C   UNL     1      -4.517   0.515  24.778  0.00  0.00    +0.037 A 
ATOM      9  C   UNL     1      -4.586   1.183  24.300  0.00  0.00    +0.003 A 
ATOM     10  C   UNL     1      -5.043   1.824  24.547  0.00  0.00    -0.004 A 
BRANCH   5   2
ATOM      1  C   UNL     1      -6.347   3.076  25.769  0.00  0.00    +0.004 C 
ATOM      2  C   UNL     1      -5.890   2.436  25.521  0.00  0.00    +0.019 C 
ATOM      3  C   UNL     1      -5.204   2.849  25.721  0.00  0.00    +0.004 C 
ATOM      4  C   UNL     1      -6.576   2.023  25.322  0.00  0.00    +0.004 C 
ENDBRANCH   5   2
ENDBRANCH  11   8
ENDBRANCH  14  13
ENDBRANCH  15  14
BRANCH  20  21
ATOM     21  C   UNL     1      -0.980  -0.117  24.094  0.00  0.00    +0.085 C 
BRANCH  21  22
ATOM     22  C   UNL     1      -0.337   0.375  24.253  0.00  0.00    +0.226 C 
ATOM     23  O   UNL     1       0.425   0.060  24.288  0.00  0.00    -0.275 OA
ATOM     24  N   UNL     1      -0.455   1.182  24.375  0.00  0.00    -0.276 N 
ATOM     25  C   UNL     1       0.187   1.674  24.534  0.00  0.00    +0.115 C 
ATOM     26  C   UNL     1       0.068   2.482  24.656  0.00  0.00    +0.112 C 
ATOM     27  N   UNL     1      -0.693   2.796  24.620  0.00  0.00    -0.304 N 
ATOM     28  C   UNL     1      -1.336   2.303  24.462  0.00  0.00    +0.112 C 
ATOM     29  C   UNL     1      -1.218   1.497  24.339  0.00  0.00    +0.115 C 
BRANCH  27  30
ATOM     30  C   UNL     1      -0.813   3.604  24.743  0.00  0.00    +0.048 A 
ATOM     31  C   UNL     1      -1.418   3.860  25.242  0.00  0.00    +0.015 A 
ATOM     32  C   UNL     1      -1.537   4.667  25.364  0.00  0.00    +0.001 A 
ATOM     33  C   UNL     1      -1.052   5.217  24.988  0.00  0.00    +0.000 A 
ATOM     34  C   UNL     1      -0.447   4.962  24.490  0.00  0.00    +0.001 A 
ATOM     35  C   UNL     1      -0.327   4.154  24.367  0.00  0.00    +0.015 A 
ENDBRANCH  27  30
ENDBRANCH  21  22
ENDBRANCH  20  21
TORSDOF 7
ENDMDL
MODEL 9
REMARK VINA RESULT:     -11.4      0.922      4.606
REMARK  Name = 
REMARK  7 active torsions:
REMARK  status: ('A' for Active; 'I' for Inactive)
REMARK    1  A    between atoms: C_2  and  C_5
REMARK    2  A    between atoms: C_8  and  C_11
REMARK    3  A    between atoms: C_13  and  C_14
REMARK    4  A    between atoms: C_14  and  C_15
REMARK    5  A    between atoms: C_20  and  C_21
REMARK    6  A    between atoms: C_21  and  C_22
REMARK    7  A    between atoms: N_27  and  C_30
REMARK                            x       y       z     vdW  Elec       q    Type
REMARK                         _______ _______ _______ _____ _____    ______ ____
ROOT
ATOM     15  C   UNL     1      -2.624   3.346  25.285  0.00  0.00    +0.024 C 
ATOM     16  C   UNL     1      -2.487   4.117  25.030  0.00  0.00    +0.089 C 
ATOM     17  N   UNL     1      -3.062   4.518  24.595  0.00  0.00    -0.218 NA
ATOM     18  C   UNL     1      -3.777   4.145  24.416  0.00  0.00    +0.089 C 
ATOM     19  C   UNL     1      -3.914   3.372  24.672  0.00  0.00    +0.019 C 
ATOM     20  C   UNL     1      -3.338   2.973  25.106  0.00  0.00    +0.012 C 
ENDROOT
BRANCH  15  14
ATOM     14  C   UNL     1      -2.048   2.945  25.720  0.00  0.00    +0.051 C 
BRANCH  14  13
ATOM     11  C   UNL     1      -0.261   2.299  24.747  0.00  0.00    +0.177 A 
ATOM     12  C   UNL     1      -1.052   2.184  24.952  0.00  0.00    +0.058 A 
ATOM     13  C   UNL     1      -1.296   2.831  25.400  0.00  0.00    +0.101 A 
ATOM     36  N   UNL     1      -0.656   3.347  25.472  0.00  0.00    -0.081 NA
ATOM     37  O   UNL     1      -0.017   3.018  25.068  0.00  0.00    -0.354 OA
BRANCH  11   8
ATOM      5  C   UNL     1       1.133   0.758  23.403  0.00  0.00    -0.023 A 
ATOM      6  C   UNL     1       1.404   1.519  23.569  0.00  0.00    -0.004 A 
ATOM      7  C   UNL     1       0.939   2.033  24.017  0.00  0.00    +0.003 A 
ATOM      8  C   UNL     1       0.204   1.785  24.299  0.00  0.00    +0.037 A 
ATOM      9  C   UNL     1      -0.066   1.024  24.132  0.00  0.00    +0.003 A 
ATOM     10  C   UNL     1       0.398   0.510  23.684  0.00  0.00    -0.004 A 
BRANCH   5   2
ATOM      1  C   UNL     1       2.062  -0.270  22.506  0.00  0.00    +0.004 C 
ATOM      2  C   UNL     1       1.597   0.244  22.954  0.00  0.00    +0.019 C 
ATOM      3  C   UNL     1       0.925  -0.190  22.755  0.00  0.00    +0.004 C 
ATOM      4  C   UNL     1       2.270   0.678  23.154  0.00  0.00    +0.004 C 
ENDBRANCH   5   2
ENDBRANCH  11   8
ENDBRANCH  14  13
ENDBRANCH  15  14
BRANCH  20  21
ATOM     21  C   UNL     1      -3.476   2.200  25.362  0.00  0.00    +0.085 C 
BRANCH  21  22
ATOM     22  C   UNL     1      -4.136   1.787  25.089  0.00  0.00    +0.226 C 
ATOM     23  O   UNL     1      -4.847   2.186  24.956  0.00  0.00    -0.275 OA
ATOM     24  N   UNL     1      -4.087   0.976  24.949  0.00  0.00    -0.276 N 
ATOM     25  C   UNL     1      -4.747   0.563  24.676  0.00  0.00    +0.115 C 
ATOM     26  C   UNL     1      -4.696  -0.249  24.536  0.00  0.00    +0.112 C 
ATOM     27  N   UNL     1      -3.987  -0.647  24.669  0.00  0.00    -0.304 N 
ATOM     28  C   UNL     1      -3.326  -0.233  24.942  0.00  0.00    +0.112 C 
ATOM     29  C   UNL     1      -3.376   0.577  25.082  0.00  0.00    +0.115 C 
BRANCH  27  30
ATOM     30  C   UNL     1      -3.936  -1.459  24.529  0.00  0.00    +0.048 A 
ATOM     31  C   UNL     1      -4.276  -1.781  23.850  0.00  0.00    +0.015 A 
ATOM     32  C   UNL     1      -4.226  -2.593  23.710  0.00  0.00    +0.001 A 
ATOM     33  C   UNL     1      -3.836  -3.081  24.249  0.00  0.00    +0.000 A 
ATOM     34  C   UNL     1      -3.496  -2.759  24.927  0.00  0.00    +0.001 A 
ATOM     35  C   UNL     1      -3.547  -1.947  25.067  0.00  0.00    +0.015 A 
ENDBRANCH  27  30
ENDBRANCH  21  22
ENDBRANCH  20  21
TORSDOF 7
ENDMDL
