MODEL 1
REMARK VINA RESULT:     -10.4      0.000      0.000
REMARK  Name = 
REMARK  6 active torsions:
REMARK  status: ('A' for Active; 'I' for Inactive)
REMARK    1  A    between atoms: C_3  and  C_4
REMARK    2  A    between atoms: C_4  and  N_5
REMARK    3  A    between atoms: N_5  and  S_6
REMARK    4  A    between atoms: S_6  and  C_9
REMARK    5  A    between atoms: C_17  and  N_18
REMARK    6  A    between atoms: N_18  and  C_19
REMARK                            x       y       z     vdW  Elec       q    Type
REMARK                         _______ _______ _______ _____ _____    ______ ____
ROOT
ATOM      1  O   UNL     1      -1.190   1.446  25.682  0.00  0.00    -0.219 OA
ATOM      2  C   UNL     1      -1.824   1.863  25.359  0.00  0.00    +0.199 C 
ATOM      3  C   UNL     1      -2.468   1.536  24.962  0.00  0.00    +0.166 C 
ATOM     15  O   UNL     1      -2.967   2.152  24.735  0.00  0.00    -0.350 OA
ATOM     16  C   UNL     1      -2.631   2.859  24.990  0.00  0.00    +0.162 C 
ATOM     17  C   UNL     1      -1.925   2.682  25.376  0.00  0.00    +0.135 C 
ENDROOT
BRANCH   3   4
ATOM      4  C   UNL     1      -2.592   0.733  24.819  0.00  0.00    +0.148 C 
BRANCH   4   5
ATOM      5  N   UNL     1      -3.357   0.449  24.692  0.00  0.00    -0.075 NA
BRANCH   5   6
ATOM      6  S   UNL     1      -3.487  -0.360  24.600  0.00  0.00    +0.077 S 
ATOM      7  O   UNL     1      -3.085  -0.342  23.879  0.00  0.00    -0.152 OA
ATOM      8  O   UNL     1      -3.889  -0.378  25.320  0.00  0.00    -0.152 OA
BRANCH   6   9
ATOM      9  C   UNL     1      -3.617  -1.169  24.507  0.00  0.00    +0.124 A 
ATOM     10  C   UNL     1      -3.223  -1.709  24.991  0.00  0.00    +0.020 A 
ATOM     11  C   UNL     1      -3.352  -2.518  24.898  0.00  0.00    +0.001 A 
ATOM     12  C   UNL     1      -3.877  -2.789  24.320  0.00  0.00    +0.000 A 
ATOM     13  C   UNL     1      -4.271  -2.249  23.836  0.00  0.00    +0.001 A 
ATOM     14  C   UNL     1      -4.140  -1.439  23.929  0.00  0.00    +0.020 A 
ENDBRANCH   6   9
ENDBRANCH   5   6
ENDBRANCH   4   5
ENDBRANCH   3   4
BRANCH  17  18
ATOM     18  N   UNL     1      -1.409   3.227  25.719  0.00  0.00    -0.216 NA
BRANCH  18  19
ATOM     19  C   UNL     1      -1.340   3.986  25.404  0.00  0.00    +0.073 C 
ATOM     20  C   UNL     1      -1.844   4.621  25.554  0.00  0.00    +0.017 C 
ATOM     21  C   UNL     1      -1.571   5.271  25.125  0.00  0.00    +0.001 C 
ATOM     22  C   UNL     1      -0.897   5.037  24.710  0.00  0.00    +0.001 C 
ATOM     23  C   UNL     1      -0.755   4.243  24.882  0.00  0.00    +0.017 C 
ENDBRANCH  18  19
ENDBRANCH  17  18
TORSDOF 6
ENDMDL
MODEL 2
REMARK VINA RESULT:     -10.4      1.189      5.464
REMARK  Name = 
REMARK  6 active torsions:
REMARK  status: ('A' for Active; 'I' for Inactive)
REMARK    1  A    between atoms: C_3  and  C_4
REMARK    2  A    between atoms: C_4  and  N_5
REMARK    3  A    between atoms: N_5  and  S_6
REMARK    4  A    between atoms: S_6  and  C_9
REMARK    5  A    between atoms: C_17  and  N_18
REMARK    6  A    between atoms: N_18  and  C_19
REMARK                            x       y       z     vdW  Elec       q    Type
REMARK                         _______ _______ _______ _____ _____    ______ ____
ROOT
ATOM      1  O   UNL     1      -4.218   1.033  25.016  0.00  0.00    -0.219 OA
ATOM      2  C   UNL     1      -3.499   0.630  24.970  0.00  0.00    +0.199 C 
ATOM      3  C   UNL     1      -2.753   0.976  24.910  0.00  0.00    +0.166 C 
ATOM     15  O   UNL     1      -2.194   0.371  24.879  0.00  0.00    -0.350 OA
ATOM     16  C   UNL     1      -2.594  -0.349  24.921  0.00  0.00    +0.162 C 
ATOM     17  C   UNL     1      -3.400  -0.188  24.978  0.00  0.00    +0.135 C 
ENDROOT
BRANCH   3   4
ATOM      4  C   UNL     1      -2.594   1.785  24.883  0.00  0.00    +0.148 C 
BRANCH   4   5
ATOM      5  N   UNL     1      -1.826   2.059  25.010  0.00  0.00    -0.075 NA
BRANCH   5   6
ATOM      6  S   UNL     1      -1.673   2.870  25.022  0.00  0.00    +0.077 S 
ATOM      7  O   UNL     1      -1.658   2.855  25.847  0.00  0.00    -0.152 OA
ATOM      8  O   UNL     1      -1.689   2.885  24.197  0.00  0.00    -0.152 OA
BRANCH   6   9
ATOM      9  C   UNL     1      -1.521   3.680  25.034  0.00  0.00    +0.124 A 
ATOM     10  C   UNL     1      -2.098   4.205  25.306  0.00  0.00    +0.020 A 
ATOM     11  C   UNL     1      -1.946   5.015  25.318  0.00  0.00    +0.001 A 
ATOM     12  C   UNL     1      -1.216   5.302  25.059  0.00  0.00    +0.000 A 
ATOM     13  C   UNL     1      -0.640   4.778  24.788  0.00  0.00    +0.001 A 
ATOM     14  C   UNL     1      -0.793   3.967  24.775  0.00  0.00    +0.020 A 
ENDBRANCH   6   9
ENDBRANCH   5   6
ENDBRANCH   4   5
ENDBRANCH   3   4
BRANCH  17  18
ATOM     18  N   UNL     1      -4.004  -0.749  25.032  0.00  0.00    -0.216 NA
BRANCH  18  19
ATOM     19  C   UNL     1      -3.906  -1.495  24.694  0.00  0.00    +0.073 C 
ATOM     20  C   UNL     1      -3.531  -2.140  25.045  0.00  0.00    +0.017 C 
ATOM     21  C   UNL     1      -3.559  -2.771  24.513  0.00  0.00    +0.001 C 
ATOM     22  C   UNL     1      -3.951  -2.516  23.834  0.00  0.00    +0.001 C 
ATOM     23  C   UNL     1      -4.166  -1.727  23.947  0.00  0.00    +0.017 C 
ENDBRANCH  18  19
ENDBRANCH  17  18
TORSDOF 6
ENDMDL
