MODEL 1
REMARK VINA RESULT:     -15.2      0.000      0.000
REMARK  Name = 
REMARK  5 active torsions:
REMARK  status: ('A' for Active; 'I' for Inactive)
REMARK    1  A    between atoms: C_2  and  C_3
REMARK    2  A    between atoms: C_11  and  C_12
REMARK    3  A    between atoms: C_12  and  C_13
REMARK    4  A    between atoms: N_15  and  C_16
REMARK    5  A    between atoms: C_29  and  C_31
REMARK                            x       y       z     vdW  Elec       q    Type
REMARK                         _______ _______ _______ _____ _____    ______ ____
ROOT
ATOM      1  C   UNL     1      -2.420  -2.723  24.691  0.00  0.00    +0.005 C 
ATOM      2  C   UNL     1      -2.654  -1.941  24.572  0.00  0.00    +0.059 C 
ATOM      5  C   UNL     1      -3.354  -2.331  24.379  0.00  0.00    +0.154 C 
ATOM      6  O   UNL     1      -3.392  -3.155  24.416  0.00  0.00    -0.223 OA
ATOM      7  C   UNL     1      -4.018  -1.898  24.147  0.00  0.00    +0.033 C 
ATOM      8  C   UNL     1      -3.980  -1.075  24.110  0.00  0.00    +0.003 C 
ATOM      9  C   UNL     1      -3.280  -0.685  24.304  0.00  0.00    +0.006 C 
ATOM     10  C   UNL     1      -3.942  -0.252  24.073  0.00  0.00    +0.000 C 
ATOM     11  C   UNL     1      -3.242   0.138  24.266  0.00  0.00    +0.050 C 
ATOM     22  C   UNL     1      -2.542   0.528  24.460  0.00  0.00    +0.063 A 
ATOM     23  C   UNL     1      -1.878   0.095  24.691  0.00  0.00    +0.023 A 
ATOM     24  C   UNL     1      -1.916  -0.728  24.728  0.00  0.00    +0.034 C 
ATOM     25  C   UNL     1      -2.616  -1.119  24.535  0.00  0.00    +0.010 C 
ATOM     26  S   UNL     1      -1.268   0.628  24.848  0.00  0.00    -0.054 S 
ATOM     27  C   UNL     1      -1.554   1.390  24.714  0.00  0.00    +0.185 A 
ATOM     28  N   UNL     1      -1.127   2.091  24.805  0.00  0.00    -0.154 NA
ATOM     29  C   UNL     1      -1.488   2.815  24.650  0.00  0.00    +0.247 C 
ATOM     30  O   UNL     1      -2.276   2.841  24.405  0.00  0.00    -0.273 OA
ATOM     35  N   UNL     1      -2.340   1.328  24.475  0.00  0.00    -0.227 NA
ENDROOT
BRANCH  29  31
ATOM     31  C   UNL     1      -1.062   3.516  24.740  0.00  0.00    +0.079 C 
ATOM     32  C   UNL     1      -0.361   3.818  24.424  0.00  0.00    +0.009 C 
ATOM     33  C   UNL     1      -0.459   4.507  24.868  0.00  0.00    +0.001 C 
ATOM     34  C   UNL     1      -1.159   4.206  25.183  0.00  0.00    +0.009 C 
ENDBRANCH  29  31
BRANCH   2   3
ATOM      3  C   UNL     1      -1.872  -1.823  24.807  0.00  0.00    +0.184 C 
ATOM      4  O   UNL     1      -1.386  -2.471  24.966  0.00  0.00    -0.220 OA
ENDBRANCH   2   3
BRANCH  11  12
ATOM     12  C   UNL     1      -3.905   0.572  24.035  0.00  0.00    +0.093 C 
BRANCH  12  13
ATOM     13  C   UNL     1      -4.344   0.987  24.598  0.00  0.00    +0.242 C 
ATOM     14  O   UNL     1      -4.281   0.789  25.397  0.00  0.00    -0.273 OA
ATOM     15  N   UNL     1      -4.843   1.598  24.363  0.00  0.00    -0.207 NA
BRANCH  15  16
ATOM     16  C   UNL     1      -5.282   2.013  24.925  0.00  0.00    +0.095 C 
ATOM     17  C   UNL     1      -5.075   2.788  25.118  0.00  0.00    +0.022 C 
ATOM     18  C   UNL     1      -5.514   3.204  25.680  0.00  0.00    +0.002 C 
ATOM     19  C   UNL     1      -6.158   2.844  26.049  0.00  0.00    +0.000 C 
ATOM     20  C   UNL     1      -6.364   2.069  25.855  0.00  0.00    +0.002 C 
ATOM     21  C   UNL     1      -5.926   1.654  25.294  0.00  0.00    +0.022 C 
ENDBRANCH  15  16
ENDBRANCH  12  13
ENDBRANCH  11  12
TORSDOF 5
ENDMDL
MODEL 2
REMARK VINA RESULT:     -14.1      1.593      5.165
REMARK  Name = 
REMARK  5 active torsions:
REMARK  status: ('A' for Active; 'I' for Inactive)
REMARK    1  A    between atoms: C_2  and  C_3
REMARK    2  A    between atoms: C_11  and  C_12
REMARK    3  A    between atoms: C_12  and  C_13
REMARK    4  A    between atoms: N_15  and  C_16
REMARK    5  A    between atoms: C_29  and  C_31
REMARK                            x       y       z     vdW  Elec       q    Type
REMARK                         _______ _______ _______ _____ _____    ______ ____
ROOT
ATOM      1  C   UNL     1      -5.683   3.640  25.755  0.00  0.00    +0.005 C 
ATOM      2  C   UNL     1      -5.152   3.154  25.352  0.00  0.00    +0.059 C 
ATOM      5  C   UNL     1      -4.896   3.893  25.091  0.00  0.00    +0.154 C 
ATOM      6  O   UNL     1      -5.274   4.578  25.355  0.00  0.00    -0.223 OA
ATOM      7  C   UNL     1      -4.261   3.949  24.566  0.00  0.00    +0.033 C 
ATOM      8  C   UNL     1      -3.884   3.265  24.302  0.00  0.00    +0.003 C 
ATOM      9  C   UNL     1      -4.140   2.526  24.563  0.00  0.00    +0.006 C 
ATOM     10  C   UNL     1      -3.506   2.581  24.038  0.00  0.00    +0.000 C 
ATOM     11  C   UNL     1      -3.762   1.841  24.299  0.00  0.00    +0.050 C 
ATOM     22  C   UNL     1      -4.018   1.102  24.559  0.00  0.00    +0.063 A 
ATOM     23  C   UNL     1      -4.653   1.046  25.085  0.00  0.00    +0.023 A 
ATOM     24  C   UNL     1      -5.030   1.730  25.348  0.00  0.00    +0.034 C 
ATOM     25  C   UNL     1      -4.775   2.470  25.088  0.00  0.00    +0.010 C 
ATOM     26  S   UNL     1      -4.781   0.247  25.244  0.00  0.00    -0.054 S 
ATOM     27  C   UNL     1      -4.227  -0.191  24.819  0.00  0.00    +0.185 A 
ATOM     28  N   UNL     1      -4.157  -1.013  24.817  0.00  0.00    -0.154 NA
ATOM     29  C   UNL     1      -3.573  -1.376  24.362  0.00  0.00    +0.247 C 
ATOM     30  O   UNL     1      -3.059  -0.917  23.908  0.00  0.00    -0.273 OA
ATOM     35  N   UNL     1      -3.756   0.337  24.396  0.00  0.00    -0.227 NA
ENDROOT
BRANCH  29  31
ATOM     31  C   UNL     1      -3.503  -2.198  24.360  0.00  0.00    +0.079 C 
ATOM     32  C   UNL     1      -3.006  -2.742  24.732  0.00  0.00    +0.009 C 
ATOM     33  C   UNL     1      -3.403  -3.360  24.357  0.00  0.00    +0.001 C 
ATOM     34  C   UNL     1      -3.899  -2.817  23.985  0.00  0.00    +0.009 C 
ENDBRANCH  29  31
BRANCH   2   3
ATOM      3  C   UNL     1      -5.593   2.583  25.752  0.00  0.00    +0.184 C 
ATOM      4  O   UNL     1      -6.139   2.812  26.327  0.00  0.00    -0.220 OA
ENDBRANCH   2   3
BRANCH  11  12
ATOM     12  C   UNL     1      -3.128   1.896  23.774  0.00  0.00    +0.093 C 
BRANCH  12  13
ATOM     13  C   UNL     1      -2.354   1.816  24.051  0.00  0.00    +0.242 C 
ATOM     14  O   UNL     1      -2.209   1.784  24.862  0.00  0.00    -0.273 OA
ATOM     15  N   UNL     1      -1.728   1.767  23.517  0.00  0.00    -0.207 NA
BRANCH  15  16
ATOM     16  C   UNL     1      -0.955   1.687  23.794  0.00  0.00    +0.095 C 
ATOM     17  C   UNL     1      -0.588   0.948  23.779  0.00  0.00    +0.022 C 
ATOM     18  C   UNL     1       0.186   0.867  24.055  0.00  0.00    +0.002 C 
ATOM     19  C   UNL     1       0.591   1.524  24.346  0.00  0.00    +0.000 C 
ATOM     20  C   UNL     1       0.223   2.262  24.361  0.00  0.00    +0.002 C 
ATOM     21  C   UNL     1      -0.550   2.344  24.085  0.00  0.00    +0.022 C 
ENDBRANCH  15  16
ENDBRANCH  12  13
ENDBRANCH  11  12
TORSDOF 5
ENDMDL
MODEL 3
REMARK VINA RESULT:     -13.9      1.203      4.193
REMARK  Name = 
REMARK  5 active torsions:
REMARK  status: ('A' for Active; 'I' for Inactive)
REMARK    1  A    between atoms: C_2  and  C_3
REMARK    2  A    between atoms: C_11  and  C_12
REMARK    3  A    between atoms: C_12  and  C_13
REMARK    4  A    between atoms: N_15  and  C_16
REMARK    5  A    between atoms: C_29  and  C_31
REMARK                            x       y       z     vdW  Elec       q    Type
REMARK                         _______ _______ _______ _____ _____    ______ ____
ROOT
ATOM      1  C   UNL     1       0.175   3.254  25.599  0.00  0.00    +0.005 C 
ATOM      2  C   UNL     1      -0.524   2.916  25.322  0.00  0.00    +0.059 C 
ATOM      5  C   UNL     1      -0.687   3.712  25.186  0.00  0.00    +0.154 C 
ATOM      6  O   UNL     1      -0.129   4.288  25.382  0.00  0.00    -0.223 OA
ATOM      7  C   UNL     1      -1.409   3.935  24.852  0.00  0.00    +0.033 C 
ATOM      8  C   UNL     1      -1.967   3.360  24.656  0.00  0.00    +0.003 C 
ATOM      9  C   UNL     1      -1.804   2.564  24.792  0.00  0.00    +0.006 C 
ATOM     10  C   UNL     1      -2.525   2.786  24.460  0.00  0.00    +0.000 C 
ATOM     11  C   UNL     1      -2.362   1.989  24.596  0.00  0.00    +0.050 C 
ATOM     22  C   UNL     1      -2.200   1.192  24.732  0.00  0.00    +0.063 A 
ATOM     23  C   UNL     1      -1.477   0.969  25.066  0.00  0.00    +0.023 A 
ATOM     24  C   UNL     1      -0.920   1.544  25.262  0.00  0.00    +0.034 C 
ATOM     25  C   UNL     1      -1.082   2.341  25.126  0.00  0.00    +0.010 C 
ATOM     26  S   UNL     1      -1.473   0.147  25.135  0.00  0.00    -0.054 S 
ATOM     27  C   UNL     1      -2.190  -0.139  24.846  0.00  0.00    +0.185 A 
ATOM     28  N   UNL     1      -2.418  -0.931  24.811  0.00  0.00    -0.154 NA
ATOM     29  C   UNL     1      -3.156  -1.134  24.506  0.00  0.00    +0.247 C 
ATOM     30  O   UNL     1      -3.668  -0.545  24.234  0.00  0.00    -0.273 OA
ATOM     35  N   UNL     1      -2.639   0.507  24.597  0.00  0.00    -0.227 NA
ENDROOT
BRANCH  29  31
ATOM     31  C   UNL     1      -3.385  -1.926  24.471  0.00  0.00    +0.079 C 
ATOM     32  C   UNL     1      -3.180  -2.611  24.884  0.00  0.00    +0.009 C 
ATOM     33  C   UNL     1      -3.707  -3.046  24.422  0.00  0.00    +0.001 C 
ATOM     34  C   UNL     1      -3.912  -2.362  24.010  0.00  0.00    +0.009 C 
ENDBRANCH  29  31
BRANCH   2   3
ATOM      3  C   UNL     1      -0.118   2.236  25.555  0.00  0.00    +0.184 C 
ATOM      4  O   UNL     1       0.613   2.302  25.932  0.00  0.00    -0.220 OA
ENDBRANCH   2   3
BRANCH  11  12
ATOM     12  C   UNL     1      -3.084   2.211  24.263  0.00  0.00    +0.093 C 
BRANCH  12  13
ATOM     13  C   UNL     1      -3.767   2.221  24.727  0.00  0.00    +0.242 C 
ATOM     14  O   UNL     1      -3.711   2.126  25.544  0.00  0.00    -0.273 OA
ATOM     15  N   UNL     1      -4.504   2.326  24.373  0.00  0.00    -0.207 NA
BRANCH  15  16
ATOM     16  C   UNL     1      -5.186   2.336  24.836  0.00  0.00    +0.095 C 
ATOM     17  C   UNL     1      -5.688   1.682  24.844  0.00  0.00    +0.022 C 
ATOM     18  C   UNL     1      -6.371   1.691  25.307  0.00  0.00    +0.002 C 
ATOM     19  C   UNL     1      -6.552   2.356  25.761  0.00  0.00    +0.000 C 
ATOM     20  C   UNL     1      -6.050   3.010  25.752  0.00  0.00    +0.002 C 
ATOM     21  C   UNL     1      -5.367   3.001  25.290  0.00  0.00    +0.022 C 
ENDBRANCH  15  16
ENDBRANCH  12  13
ENDBRANCH  11  12
TORSDOF 5
ENDMDL
MODEL 4
REMARK VINA RESULT:     -13.8      1.174      3.443
REMARK  Name = 
REMARK  5 active torsions:
REMARK  status: ('A' for Active; 'I' for Inactive)
REMARK    1  A    between atoms: C_2  and  C_3
REMARK    2  A    between atoms: C_11  and  C_12
REMARK    3  A    between atoms: C_12  and  C_13
REMARK    4  A    between atoms: N_15  and  C_16
REMARK    5  A    between atoms: C_29  and  C_31
REMARK                            x       y       z     vdW  Elec       q    Type
REMARK                         _______ _______ _______ _____ _____    ______ ____
ROOT
ATOM      1  C   UNL     1      -3.657  -2.904  23.977  0.00  0.00    +0.005 C 
ATOM      2  C   UNL     1      -3.432  -2.182  24.305  0.00  0.00    +0.059 C 
ATOM      5  C   UNL     1      -2.751  -2.624  24.451  0.00  0.00    +0.154 C 
ATOM      6  O   UNL     1      -2.712  -3.413  24.213  0.00  0.00    -0.223 OA
ATOM      7  C   UNL     1      -2.108  -2.277  24.835  0.00  0.00    +0.033 C 
ATOM      8  C   UNL     1      -2.147  -1.488  25.073  0.00  0.00    +0.003 C 
ATOM      9  C   UNL     1      -2.827  -1.046  24.928  0.00  0.00    +0.006 C 
ATOM     10  C   UNL     1      -2.185  -0.700  25.311  0.00  0.00    +0.000 C 
ATOM     11  C   UNL     1      -2.866  -0.257  25.166  0.00  0.00    +0.050 C 
ATOM     22  C   UNL     1      -3.547   0.185  25.021  0.00  0.00    +0.063 A 
ATOM     23  C   UNL     1      -4.190  -0.163  24.636  0.00  0.00    +0.023 A 
ATOM     24  C   UNL     1      -4.152  -0.951  24.398  0.00  0.00    +0.034 C 
ATOM     25  C   UNL     1      -3.471  -1.394  24.543  0.00  0.00    +0.010 C 
ATOM     26  S   UNL     1      -4.784   0.407  24.569  0.00  0.00    -0.054 S 
ATOM     27  C   UNL     1      -4.508   1.105  24.911  0.00  0.00    +0.185 A 
ATOM     28  N   UNL     1      -4.924   1.816  24.964  0.00  0.00    -0.154 NA
ATOM     29  C   UNL     1      -4.575   2.471  25.323  0.00  0.00    +0.247 C 
ATOM     30  O   UNL     1      -3.811   2.416  25.629  0.00  0.00    -0.273 OA
ATOM     35  N   UNL     1      -3.745   0.968  25.190  0.00  0.00    -0.227 NA
ENDROOT
BRANCH  29  31
ATOM     31  C   UNL     1      -4.991   3.181  25.377  0.00  0.00    +0.079 C 
ATOM     32  C   UNL     1      -4.881   3.946  25.083  0.00  0.00    +0.009 C 
ATOM     33  C   UNL     1      -5.579   4.187  25.452  0.00  0.00    +0.001 C 
ATOM     34  C   UNL     1      -5.688   3.424  25.745  0.00  0.00    +0.009 C 
ENDBRANCH  29  31
BRANCH   2   3
ATOM      3  C   UNL     1      -4.191  -1.991  24.046  0.00  0.00    +0.184 C 
ATOM      4  O   UNL     1      -4.640  -2.550  23.636  0.00  0.00    -0.220 OA
ENDBRANCH   2   3
BRANCH  11  12
ATOM     12  C   UNL     1      -2.224   0.090  25.550  0.00  0.00    +0.093 C 
BRANCH  12  13
ATOM     13  C   UNL     1      -1.742   0.625  25.147  0.00  0.00    +0.242 C 
ATOM     14  O   UNL     1      -1.795   0.690  24.326  0.00  0.00    -0.273 OA
ATOM     15  N   UNL     1      -1.207   1.093  25.564  0.00  0.00    -0.207 NA
BRANCH  15  16
ATOM     16  C   UNL     1      -0.725   1.628  25.161  0.00  0.00    +0.095 C 
ATOM     17  C   UNL     1      -0.890   2.436  25.194  0.00  0.00    +0.022 C 
ATOM     18  C   UNL     1      -0.408   2.971  24.791  0.00  0.00    +0.002 C 
ATOM     19  C   UNL     1       0.238   2.699  24.357  0.00  0.00    +0.000 C 
ATOM     20  C   UNL     1       0.402   1.891  24.325  0.00  0.00    +0.002 C 
ATOM     21  C   UNL     1      -0.079   1.356  24.727  0.00  0.00    +0.022 C 
ENDBRANCH  15  16
ENDBRANCH  12  13
ENDBRANCH  11  12
TORSDOF 5
ENDMDL
MODEL 5
REMARK VINA RESULT:     -13.8      1.693      4.132
REMARK  Name = 
REMARK  5 active torsions:
REMARK  status: ('A' for Active; 'I' for Inactive)
REMARK    1  A    between atoms: C_2  and  C_3
REMARK    2  A    between atoms: C_11  and  C_12
REMARK    3  A    between atoms: C_12  and  C_13
REMARK    4  A    between atoms: N_15  and  C_16
REMARK    5  A    between atoms: C_29  and  C_31
REMARK                            x       y       z     vdW  Elec       q    Type
REMARK                         _______ _______ _______ _____ _____    ______ ____
ROOT
ATOM      1  C   UNL     1      -4.327   3.846  25.885  0.00  0.00    +0.005 C 
ATOM      2  C   UNL     1      -4.052   3.209  25.439  0.00  0.00    +0.059 C 
ATOM      5  C   UNL     1      -4.865   3.082  25.383  0.00  0.00    +0.154 C 
ATOM      6  O   UNL     1      -5.390   3.598  25.756  0.00  0.00    -0.223 OA
ATOM      7  C   UNL     1      -5.153   2.439  24.954  0.00  0.00    +0.033 C 
ATOM      8  C   UNL     1      -4.629   1.923  24.581  0.00  0.00    +0.003 C 
ATOM      9  C   UNL     1      -3.816   2.050  24.636  0.00  0.00    +0.006 C 
ATOM     10  C   UNL     1      -4.105   1.408  24.208  0.00  0.00    +0.000 C 
ATOM     11  C   UNL     1      -3.291   1.535  24.263  0.00  0.00    +0.050 C 
ATOM     22  C   UNL     1      -2.478   1.662  24.319  0.00  0.00    +0.063 A 
ATOM     23  C   UNL     1      -2.190   2.305  24.748  0.00  0.00    +0.023 A 
ATOM     24  C   UNL     1      -2.714   2.821  25.121  0.00  0.00    +0.034 C 
ATOM     25  C   UNL     1      -3.528   2.694  25.066  0.00  0.00    +0.010 C 
ATOM     26  S   UNL     1      -1.366   2.290  24.705  0.00  0.00    -0.054 S 
ATOM     27  C   UNL     1      -1.145   1.638  24.251  0.00  0.00    +0.185 A 
ATOM     28  N   UNL     1      -0.372   1.414  24.068  0.00  0.00    -0.154 NA
ATOM     29  C   UNL     1      -0.237   0.745  23.605  0.00  0.00    +0.247 C 
ATOM     30  O   UNL     1      -0.872   0.300  23.325  0.00  0.00    -0.273 OA
ATOM     35  N   UNL     1      -1.832   1.250  24.012  0.00  0.00    -0.227 NA
ENDROOT
BRANCH  29  31
ATOM     31  C   UNL     1       0.536   0.521  23.421  0.00  0.00    +0.079 C 
ATOM     32  C   UNL     1       0.888  -0.157  23.108  0.00  0.00    +0.009 C 
ATOM     33  C   UNL     1       1.629   0.204  23.162  0.00  0.00    +0.001 C 
ATOM     34  C   UNL     1       1.277   0.880  23.475  0.00  0.00    +0.009 C 
ENDBRANCH  29  31
BRANCH   2   3
ATOM      3  C   UNL     1      -3.335   3.558  25.649  0.00  0.00    +0.184 C 
ATOM      4  O   UNL     1      -3.327   4.230  26.129  0.00  0.00    -0.220 OA
ENDBRANCH   2   3
BRANCH  11  12
ATOM     12  C   UNL     1      -3.580   0.892  23.834  0.00  0.00    +0.093 C 
BRANCH  12  13
ATOM     13  C   UNL     1      -3.571   0.136  24.167  0.00  0.00    +0.242 C 
ATOM     14  O   UNL     1      -3.533   0.047  24.986  0.00  0.00    -0.273 OA
ATOM     15  N   UNL     1      -3.600  -0.529  23.681  0.00  0.00    -0.207 NA
BRANCH  15  16
ATOM     16  C   UNL     1      -3.592  -1.284  24.013  0.00  0.00    +0.095 C 
ATOM     17  C   UNL     1      -4.252  -1.773  23.939  0.00  0.00    +0.022 C 
ATOM     18  C   UNL     1      -4.243  -2.529  24.271  0.00  0.00    +0.002 C 
ATOM     19  C   UNL     1      -3.575  -2.794  24.676  0.00  0.00    +0.000 C 
ATOM     20  C   UNL     1      -2.916  -2.304  24.749  0.00  0.00    +0.002 C 
ATOM     21  C   UNL     1      -2.924  -1.549  24.418  0.00  0.00    +0.022 C 
ENDBRANCH  15  16
ENDBRANCH  12  13
ENDBRANCH  11  12
TORSDOF 5
ENDMDL
MODEL 6
REMARK VINA RESULT:     -13.2      1.798      5.527
REMARK  Name = 
REMARK  5 active torsions:
REMARK  status: ('A' for Active; 'I' for Inactive)
REMARK    1  A    between atoms: C_2  and  C_3
REMARK    2  A    between atoms: C_11  and  C_12
REMARK    3  A    between atoms: C_12  and  C_13
REMARK    4  A    between atoms: N_15  and  C_16
REMARK    5  A    between atoms: C_29  and  C_31
REMARK                            x       y       z     vdW  Elec       q    Type
REMARK                         _______ _______ _______ _____ _____    ______ ____
ROOT
ATOM      1  C   UNL     1      -3.060   4.545  25.253  0.00  0.00    +0.005 C 
ATOM      2  C   UNL     1      -2.724   3.792  25.220  0.00  0.00    +0.059 C 
ATOM      5  C   UNL     1      -2.059   4.238  25.418  0.00  0.00    +0.154 C 
ATOM      6  O   UNL     1      -2.122   5.055  25.515  0.00  0.00    -0.223 OA
ATOM      7  C   UNL     1      -1.328   3.866  25.519  0.00  0.00    +0.033 C 
ATOM      8  C   UNL     1      -1.264   3.050  25.422  0.00  0.00    +0.003 C 
ATOM      9  C   UNL     1      -1.929   2.604  25.224  0.00  0.00    +0.006 C 
ATOM     10  C   UNL     1      -1.200   2.234  25.325  0.00  0.00    +0.000 C 
ATOM     11  C   UNL     1      -1.866   1.787  25.127  0.00  0.00    +0.050 C 
ATOM     22  C   UNL     1      -2.531   1.342  24.930  0.00  0.00    +0.063 A 
ATOM     23  C   UNL     1      -3.261   1.714  24.829  0.00  0.00    +0.023 A 
ATOM     24  C   UNL     1      -3.325   2.530  24.926  0.00  0.00    +0.034 C 
ATOM     25  C   UNL     1      -2.660   2.976  25.124  0.00  0.00    +0.010 C 
ATOM     26  S   UNL     1      -3.817   1.135  24.637  0.00  0.00    -0.054 S 
ATOM     27  C   UNL     1      -3.431   0.406  24.618  0.00  0.00    +0.185 A 
ATOM     28  N   UNL     1      -3.778  -0.323  24.448  0.00  0.00    -0.154 NA
ATOM     29  C   UNL     1      -3.320  -1.008  24.450  0.00  0.00    +0.247 C 
ATOM     30  O   UNL     1      -2.514  -0.966  24.622  0.00  0.00    -0.273 OA
ATOM     35  N   UNL     1      -2.636   0.534  24.799  0.00  0.00    -0.227 NA
ENDROOT
BRANCH  29  31
ATOM     31  C   UNL     1      -3.667  -1.737  24.280  0.00  0.00    +0.079 C 
ATOM     32  C   UNL     1      -4.288  -1.990  23.798  0.00  0.00    +0.009 C 
ATOM     33  C   UNL     1      -4.158  -2.768  24.040  0.00  0.00    +0.001 C 
ATOM     34  C   UNL     1      -3.538  -2.515  24.522  0.00  0.00    +0.009 C 
ENDBRANCH  29  31
BRANCH   2   3
ATOM      3  C   UNL     1      -3.506   3.608  25.034  0.00  0.00    +0.184 C 
ATOM      4  O   UNL     1      -4.075   4.206  25.004  0.00  0.00    -0.220 OA
ENDBRANCH   2   3
BRANCH  11  12
ATOM     12  C   UNL     1      -1.136   1.416  25.228  0.00  0.00    +0.093 C 
BRANCH  12  13
ATOM     13  C   UNL     1      -0.690   1.197  24.569  0.00  0.00    +0.242 C 
ATOM     14  O   UNL     1      -0.879   1.498  23.825  0.00  0.00    -0.273 OA
ATOM     15  N   UNL     1      -0.056   0.677  24.655  0.00  0.00    -0.207 NA
BRANCH  15  16
ATOM     16  C   UNL     1       0.390   0.457  23.996  0.00  0.00    +0.095 C 
ATOM     17  C   UNL     1       1.029   0.921  23.759  0.00  0.00    +0.022 C 
ATOM     18  C   UNL     1       1.476   0.702  23.100  0.00  0.00    +0.002 C 
ATOM     19  C   UNL     1       1.283   0.019  22.680  0.00  0.00    +0.000 C 
ATOM     20  C   UNL     1       0.643  -0.444  22.918  0.00  0.00    +0.002 C 
ATOM     21  C   UNL     1       0.196  -0.225  23.575  0.00  0.00    +0.022 C 
ENDBRANCH  15  16
ENDBRANCH  12  13
ENDBRANCH  11  12
TORSDOF 5
ENDMDL
MODEL 7
REMARK VINA RESULT:     -12.5      1.210      3.626
REMARK  Name = 
REMARK  5 active torsions:
REMARK  status: ('A' for Active; 'I' for Inactive)
REMARK    1  A    between atoms: C_2  and  C_3
REMARK    2  A    between atoms: C_11  and  C_12
REMARK    3  A    between atoms: C_12  and  C_13
REMARK    4  A    between atoms: N_15  and  C_16
REMARK    5  A    between atoms: C_29  and  C_31
REMARK                            x       y       z     vdW  Elec       q    Type
REMARK                         _______ _______ _______ _____ _____    ______ ____
ROOT
ATOM      1  C   UNL     1      -0.360  -1.704  24.760  0.00  0.00    +0.005 C 
ATOM      2  C   UNL     1      -0.762  -1.001  24.602  0.00  0.00    +0.059 C 
ATOM      5  C   UNL     1      -0.031  -0.827  24.263  0.00  0.00    +0.154 C 
ATOM      6  O   UNL     1       0.577  -1.384  24.284  0.00  0.00    -0.223 OA
ATOM      7  C   UNL     1       0.093  -0.094  23.903  0.00  0.00    +0.033 C 
ATOM      8  C   UNL     1      -0.515   0.463  23.882  0.00  0.00    +0.003 C 
ATOM      9  C   UNL     1      -1.246   0.289  24.220  0.00  0.00    +0.006 C 
ATOM     10  C   UNL     1      -1.122   1.020  23.861  0.00  0.00    +0.000 C 
ATOM     11  C   UNL     1      -1.854   0.846  24.199  0.00  0.00    +0.050 C 
ATOM     22  C   UNL     1      -2.585   0.672  24.538  0.00  0.00    +0.063 A 
ATOM     23  C   UNL     1      -2.709  -0.061  24.898  0.00  0.00    +0.023 A 
ATOM     24  C   UNL     1      -2.102  -0.618  24.919  0.00  0.00    +0.034 C 
ATOM     25  C   UNL     1      -1.370  -0.444  24.581  0.00  0.00    +0.010 C 
ATOM     26  S   UNL     1      -3.483  -0.076  25.184  0.00  0.00    -0.054 S 
ATOM     27  C   UNL     1      -3.838   0.645  25.000  0.00  0.00    +0.185 A 
ATOM     28  N   UNL     1      -4.611   0.866  25.184  0.00  0.00    -0.154 NA
ATOM     29  C   UNL     1      -4.890   1.610  24.964  0.00  0.00    +0.247 C 
ATOM     30  O   UNL     1      -4.397   2.134  24.560  0.00  0.00    -0.273 OA
ATOM     35  N   UNL     1      -3.283   1.107  24.601  0.00  0.00    -0.227 NA
ENDROOT
BRANCH  29  31
ATOM     31  C   UNL     1      -5.664   1.831  25.147  0.00  0.00    +0.079 C 
ATOM     32  C   UNL     1      -6.412   1.625  24.866  0.00  0.00    +0.009 C 
ATOM     33  C   UNL     1      -6.758   2.144  25.406  0.00  0.00    +0.001 C 
ATOM     34  C   UNL     1      -6.010   2.350  25.687  0.00  0.00    +0.009 C 
ENDBRANCH  29  31
BRANCH   2   3
ATOM      3  C   UNL     1      -1.354  -1.420  24.995  0.00  0.00    +0.184 C 
ATOM      4  O   UNL     1      -1.227  -2.205  25.216  0.00  0.00    -0.220 OA
ENDBRANCH   2   3
BRANCH  11  12
ATOM     12  C   UNL     1      -1.730   1.578  23.839  0.00  0.00    +0.093 C 
BRANCH  12  13
ATOM     13  C   UNL     1      -1.597   2.248  24.302  0.00  0.00    +0.242 C 
ATOM     14  O   UNL     1      -1.373   2.165  25.092  0.00  0.00    -0.273 OA
ATOM     15  N   UNL     1      -1.686   2.999  23.975  0.00  0.00    -0.207 NA
BRANCH  15  16
ATOM     16  C   UNL     1      -1.553   3.669  24.437  0.00  0.00    +0.095 C 
ATOM     17  C   UNL     1      -2.175   4.008  24.860  0.00  0.00    +0.022 C 
ATOM     18  C   UNL     1      -2.042   4.679  25.323  0.00  0.00    +0.002 C 
ATOM     19  C   UNL     1      -1.287   5.010  25.362  0.00  0.00    +0.000 C 
ATOM     20  C   UNL     1      -0.666   4.670  24.938  0.00  0.00    +0.002 C 
ATOM     21  C   UNL     1      -0.798   4.001  24.476  0.00  0.00    +0.022 C 
ENDBRANCH  15  16
ENDBRANCH  12  13
ENDBRANCH  11  12
TORSDOF 5
ENDMDL
MODEL 8
REMARK VINA RESULT:     -12.4      1.774      3.797
REMARK  Name = 
REMARK  5 active torsions:
REMARK  status: ('A' for Active; 'I' for Inactive)
REMARK    1  A    between atoms: C_2  and  C_3
REMARK    2  A    between atoms: C_11  and  C_12
REMARK    3  A    between atoms: C_12  and  C_13
REMARK    4  A    between atoms: N_15  and  C_16
REMARK    5  A    between atoms: C_29  and  C_31
REMARK                            x       y       z     vdW  Elec       q    Type
REMARK                         _______ _______ _______ _____ _____    ______ ____
ROOT
ATOM      1  C   UNL     1      -4.352  -1.959  24.173  0.00  0.00    +0.005 C 
ATOM      2  C   UNL     1      -3.688  -1.495  24.330  0.00  0.00    +0.059 C 
ATOM      5  C   UNL     1      -3.340  -2.242  24.312  0.00  0.00    +0.154 C 
ATOM      6  O   UNL     1      -3.802  -2.910  24.168  0.00  0.00    -0.223 OA
ATOM      7  C   UNL     1      -2.528  -2.322  24.439  0.00  0.00    +0.033 C 
ATOM      8  C   UNL     1      -2.066  -1.654  24.583  0.00  0.00    +0.003 C 
ATOM      9  C   UNL     1      -2.414  -0.907  24.601  0.00  0.00    +0.006 C 
ATOM     10  C   UNL     1      -1.604  -0.987  24.727  0.00  0.00    +0.000 C 
ATOM     11  C   UNL     1      -1.952  -0.239  24.745  0.00  0.00    +0.050 C 
ATOM     22  C   UNL     1      -2.301   0.508  24.762  0.00  0.00    +0.063 A 
ATOM     23  C   UNL     1      -3.113   0.588  24.636  0.00  0.00    +0.023 A 
ATOM     24  C   UNL     1      -3.575  -0.080  24.492  0.00  0.00    +0.034 C 
ATOM     25  C   UNL     1      -3.226  -0.828  24.474  0.00  0.00    +0.010 C 
ATOM     26  S   UNL     1      -3.300   1.389  24.686  0.00  0.00    -0.054 S 
ATOM     27  C   UNL     1      -2.606   1.806  24.843  0.00  0.00    +0.185 A 
ATOM     28  N   UNL     1      -2.540   2.623  24.936  0.00  0.00    -0.154 NA
ATOM     29  C   UNL     1      -1.806   2.962  25.092  0.00  0.00    +0.247 C 
ATOM     30  O   UNL     1      -1.135   2.485  25.155  0.00  0.00    -0.273 OA
ATOM     35  N   UNL     1      -1.989   1.261  24.890  0.00  0.00    -0.227 NA
ENDROOT
BRANCH  29  31
ATOM     31  C   UNL     1      -1.740   3.779  25.186  0.00  0.00    +0.079 C 
ATOM     32  C   UNL     1      -2.188   4.361  25.563  0.00  0.00    +0.009 C 
ATOM     33  C   UNL     1      -1.647   4.935  25.318  0.00  0.00    +0.001 C 
ATOM     34  C   UNL     1      -1.201   4.353  24.941  0.00  0.00    +0.009 C 
ENDBRANCH  29  31
BRANCH   2   3
ATOM      3  C   UNL     1      -4.268  -0.909  24.293  0.00  0.00    +0.184 C 
ATOM      4  O   UNL     1      -5.050  -1.112  24.124  0.00  0.00    -0.220 OA
ENDBRANCH   2   3
BRANCH  11  12
ATOM     12  C   UNL     1      -1.141  -0.318  24.871  0.00  0.00    +0.093 C 
BRANCH  12  13
ATOM     13  C   UNL     1      -0.609  -0.133  24.268  0.00  0.00    +0.242 C 
ATOM     14  O   UNL     1      -0.889   0.053  23.515  0.00  0.00    -0.273 OA
ATOM     15  N   UNL     1       0.202  -0.135  24.418  0.00  0.00    -0.207 NA
BRANCH  15  16
ATOM     16  C   UNL     1       0.734   0.050  23.815  0.00  0.00    +0.095 C 
ATOM     17  C   UNL     1       0.888  -0.500  23.220  0.00  0.00    +0.022 C 
ATOM     18  C   UNL     1       1.421  -0.315  22.617  0.00  0.00    +0.002 C 
ATOM     19  C   UNL     1       1.798   0.418  22.609  0.00  0.00    +0.000 C 
ATOM     20  C   UNL     1       1.642   0.968  23.205  0.00  0.00    +0.002 C 
ATOM     21  C   UNL     1       1.110   0.784  23.807  0.00  0.00    +0.022 C 
ENDBRANCH  15  16
ENDBRANCH  12  13
ENDBRANCH  11  12
TORSDOF 5
ENDMDL
