MODEL 1
REMARK VINA RESULT:     -14.8      0.000      0.000
REMARK  Name = 
REMARK  2 active torsions:
REMARK  status: ('A' for Active; 'I' for Inactive)
REMARK    1  A    between atoms: C_7  and  C_8
REMARK    2  A    between atoms: N_16  and  S_18
REMARK                            x       y       z     vdW  Elec       q    Type
REMARK                         _______ _______ _______ _____ _____    ______ ____
ROOT
ATOM      8  C   UNL     1      -4.156   0.061  24.717  0.00  0.00    +0.056 A 
ATOM      9  C   UNL     1      -4.791   0.294  25.189  0.00  0.00    +0.006 A 
ATOM     10  C   UNL     1      -4.962   1.096  25.285  0.00  0.00    +0.013 A 
ATOM     11  C   UNL     1      -4.498   1.664  24.909  0.00  0.00    +0.041 A 
ATOM     12  C   UNL     1      -4.423   2.575  24.813  0.00  0.00    +0.056 C 
ATOM     13  C   UNL     1      -4.724   3.176  25.016  0.00  0.00    +0.011 C 
ATOM     14  C   UNL     1      -4.097   2.943  24.550  0.00  0.00    +0.041 C 
ATOM     15  C   UNL     1      -3.311   2.862  23.957  0.00  0.00    +0.097 C 
ATOM     16  N   UNL     1      -3.237   2.031  23.935  0.00  0.00    -0.159 NA
ATOM     17  C   UNL     1      -3.663   2.514  24.238  0.00  0.00    +0.101 C 
ATOM     22  C   UNL     1      -4.168   1.990  24.644  0.00  0.00    +0.110 C 
ATOM     23  N   UNL     1      -3.863   1.431  24.436  0.00  0.00    -0.299 N 
ATOM     24  C   UNL     1      -3.692   0.630  24.340  0.00  0.00    +0.261 A 
ATOM     25  O   UNL     1      -3.057   0.397  23.868  0.00  0.00    -0.267 OA
ENDROOT
BRANCH   8   7
ATOM      1  C   UNL     1      -3.556  -0.809  25.982  0.00  0.00    +0.031 C 
ATOM      2  C   UNL     1      -3.686  -1.175  25.254  0.00  0.00    -0.022 A 
ATOM      3  C   UNL     1      -3.515  -1.977  25.160  0.00  0.00    -0.004 A 
ATOM      4  C   UNL     1      -3.645  -2.343  24.432  0.00  0.00    -0.000 A 
ATOM      5  C   UNL     1      -3.945  -1.908  23.798  0.00  0.00    -0.000 A 
ATOM      6  C   UNL     1      -4.116  -1.106  23.893  0.00  0.00    -0.000 A 
ATOM      7  C   UNL     1      -3.986  -0.740  24.621  0.00  0.00    +0.001 A 
ENDBRANCH   8   7
BRANCH  16  18
ATOM     18  S   UNL     1      -2.932   1.290  23.735  0.00  0.00    +0.046 S 
ATOM     19  C   UNL     1      -2.361   1.365  24.326  0.00  0.00    +0.196 C 
ATOM     20  O   UNL     1      -3.503   1.215  23.144  0.00  0.00    -0.157 OA
ATOM     21  O   UNL     1      -2.627   0.549  23.535  0.00  0.00    -0.157 OA
ENDBRANCH  16  18
TORSDOF 2
ENDMDL
MODEL 2
REMARK VINA RESULT:     -14.2      1.295      3.515
REMARK  Name = 
REMARK  2 active torsions:
REMARK  status: ('A' for Active; 'I' for Inactive)
REMARK    1  A    between atoms: C_7  and  C_8
REMARK    2  A    between atoms: N_16  and  S_18
REMARK                            x       y       z     vdW  Elec       q    Type
REMARK                         _______ _______ _______ _____ _____    ______ ____
ROOT
ATOM      8  C   UNL     1      -3.749   0.147  24.245  0.00  0.00    +0.056 A 
ATOM      9  C   UNL     1      -4.409  -0.305  24.043  0.00  0.00    +0.006 A 
ATOM     10  C   UNL     1      -4.378  -1.127  24.094  0.00  0.00    +0.013 A 
ATOM     11  C   UNL     1      -3.686  -1.498  24.347  0.00  0.00    +0.041 A 
ATOM     12  C   UNL     1      -3.342  -2.335  24.505  0.00  0.00    +0.056 C 
ATOM     13  C   UNL     1      -3.514  -3.015  24.480  0.00  0.00    +0.011 C 
ATOM     14  C   UNL     1      -2.865  -2.566  24.679  0.00  0.00    +0.041 C 
ATOM     15  C   UNL     1      -1.989  -2.204  24.959  0.00  0.00    +0.097 C 
ATOM     16  N   UNL     1      -2.140  -1.387  24.868  0.00  0.00    -0.159 NA
ATOM     17  C   UNL     1      -2.490  -2.001  24.779  0.00  0.00    +0.101 C 
ATOM     22  C   UNL     1      -3.215  -1.687  24.517  0.00  0.00    +0.110 C 
ATOM     23  N   UNL     1      -3.026  -1.046  24.550  0.00  0.00    -0.299 N 
ATOM     24  C   UNL     1      -3.058  -0.223  24.499  0.00  0.00    +0.261 A 
ATOM     25  O   UNL     1      -2.398   0.229  24.701  0.00  0.00    -0.267 OA
ENDROOT
BRANCH   8   7
ATOM      1  C   UNL     1      -4.800   0.991  25.196  0.00  0.00    +0.031 C 
ATOM      2  C   UNL     1      -4.308   1.392  24.670  0.00  0.00    -0.022 A 
ATOM      3  C   UNL     1      -4.341   2.215  24.619  0.00  0.00    -0.004 A 
ATOM      4  C   UNL     1      -3.849   2.615  24.092  0.00  0.00    -0.000 A 
ATOM      5  C   UNL     1      -3.323   2.194  23.616  0.00  0.00    -0.000 A 
ATOM      6  C   UNL     1      -3.290   1.371  23.667  0.00  0.00    -0.000 A 
ATOM      7  C   UNL     1      -3.782   0.970  24.194  0.00  0.00    +0.001 A 
ENDBRANCH   8   7
BRANCH  16  18
ATOM     18  S   UNL     1      -2.002  -0.573  24.875  0.00  0.00    +0.046 S 
ATOM     19  C   UNL     1      -2.164  -0.553  25.684  0.00  0.00    +0.196 C 
ATOM     20  O   UNL     1      -1.839  -0.594  24.066  0.00  0.00    -0.157 OA
ATOM     21  O   UNL     1      -1.864   0.241  24.882  0.00  0.00    -0.157 OA
ENDBRANCH  16  18
TORSDOF 2
ENDMDL
MODEL 3
REMARK VINA RESULT:     -13.8      2.070      3.798
REMARK  Name = 
REMARK  2 active torsions:
REMARK  status: ('A' for Active; 'I' for Inactive)
REMARK    1  A    between atoms: C_7  and  C_8
REMARK    2  A    between atoms: N_16  and  S_18
REMARK                            x       y       z     vdW  Elec       q    Type
REMARK                         _______ _______ _______ _____ _____    ______ ____
ROOT
ATOM      8  C   UNL     1      -2.680   3.644  25.457  0.00  0.00    +0.056 A 
ATOM      9  C   UNL     1      -3.081   4.026  26.068  0.00  0.00    +0.006 A 
ATOM     10  C   UNL     1      -3.886   3.888  26.183  0.00  0.00    +0.013 A 
ATOM     11  C   UNL     1      -4.290   3.368  25.686  0.00  0.00    +0.041 A 
ATOM     12  C   UNL     1      -5.129   3.018  25.550  0.00  0.00    +0.056 C 
ATOM     13  C   UNL     1      -5.782   3.039  25.805  0.00  0.00    +0.011 C 
ATOM     14  C   UNL     1      -5.383   2.663  25.203  0.00  0.00    +0.041 C 
ATOM     15  C   UNL     1      -5.082   2.123  24.432  0.00  0.00    +0.097 C 
ATOM     16  N   UNL     1      -4.276   2.340  24.415  0.00  0.00    -0.159 NA
ATOM     17  C   UNL     1      -4.854   2.490  24.803  0.00  0.00    +0.101 C 
ATOM     22  C   UNL     1      -4.503   3.024  25.337  0.00  0.00    +0.110 C 
ATOM     23  N   UNL     1      -3.889   2.986  25.074  0.00  0.00    -0.299 N 
ATOM     24  C   UNL     1      -3.084   3.124  24.960  0.00  0.00    +0.261 A 
ATOM     25  O   UNL     1      -2.683   2.742  24.348  0.00  0.00    -0.267 OA
ENDROOT
BRANCH   8   7
ATOM      1  C   UNL     1      -2.151   5.154  25.057  0.00  0.00    +0.031 C 
ATOM      2  C   UNL     1      -1.610   4.537  25.143  0.00  0.00    -0.022 A 
ATOM      3  C   UNL     1      -0.805   4.676  25.029  0.00  0.00    -0.004 A 
ATOM      4  C   UNL     1      -0.264   4.060  25.115  0.00  0.00    -0.000 A 
ATOM      5  C   UNL     1      -0.528   3.304  25.314  0.00  0.00    -0.000 A 
ATOM      6  C   UNL     1      -1.334   3.165  25.428  0.00  0.00    -0.000 A 
ATOM      7  C   UNL     1      -1.875   3.782  25.343  0.00  0.00    +0.001 A 
ENDBRANCH   8   7
BRANCH  16  18
ATOM     18  S   UNL     1      -3.490   2.361  24.164  0.00  0.00    +0.046 S 
ATOM     19  C   UNL     1      -3.326   1.694  24.622  0.00  0.00    +0.196 C 
ATOM     20  O   UNL     1      -3.654   3.028  23.706  0.00  0.00    -0.157 OA
ATOM     21  O   UNL     1      -2.704   2.383  23.914  0.00  0.00    -0.157 OA
ENDBRANCH  16  18
TORSDOF 2
ENDMDL
MODEL 4
REMARK VINA RESULT:     -13.7      1.194      1.705
REMARK  Name = 
REMARK  2 active torsions:
REMARK  status: ('A' for Active; 'I' for Inactive)
REMARK    1  A    between atoms: C_7  and  C_8
REMARK    2  A    between atoms: N_16  and  S_18
REMARK                            x       y       z     vdW  Elec       q    Type
REMARK                         _______ _______ _______ _____ _____    ______ ____
ROOT
ATOM      8  C   UNL     1      -3.619   0.464  24.090  0.00  0.00    +0.056 A 
ATOM      9  C   UNL     1      -3.083   0.790  23.554  0.00  0.00    +0.006 A 
ATOM     10  C   UNL     1      -3.057   1.607  23.443  0.00  0.00    +0.013 A 
ATOM     11  C   UNL     1      -3.566   2.098  23.868  0.00  0.00    +0.041 A 
ATOM     12  C   UNL     1      -3.779   2.985  23.974  0.00  0.00    +0.056 C 
ATOM     13  C   UNL     1      -3.604   3.625  23.743  0.00  0.00    +0.011 C 
ATOM     14  C   UNL     1      -4.132   3.299  24.271  0.00  0.00    +0.041 C 
ATOM     15  C   UNL     1      -4.828   3.099  24.943  0.00  0.00    +0.097 C 
ATOM     16  N   UNL     1      -4.763   2.267  24.969  0.00  0.00    -0.159 NA
ATOM     17  C   UNL     1      -4.455   2.809  24.625  0.00  0.00    +0.101 C 
ATOM     22  C   UNL     1      -3.916   2.369  24.167  0.00  0.00    +0.110 C 
ATOM     23  N   UNL     1      -4.102   1.771  24.404  0.00  0.00    -0.299 N 
ATOM     24  C   UNL     1      -4.129   0.954  24.514  0.00  0.00    +0.261 A 
ATOM     25  O   UNL     1      -4.665   0.627  25.050  0.00  0.00    -0.267 OA
ENDROOT
BRANCH   8   7
ATOM      1  C   UNL     1      -2.344  -0.314  24.788  0.00  0.00    +0.031 C 
ATOM      2  C   UNL     1      -3.007  -0.742  24.549  0.00  0.00    -0.022 A 
ATOM      3  C   UNL     1      -3.032  -1.559  24.660  0.00  0.00    -0.004 A 
ATOM      4  C   UNL     1      -3.696  -1.987  24.421  0.00  0.00    -0.000 A 
ATOM      5  C   UNL     1      -4.334  -1.599  24.072  0.00  0.00    -0.000 A 
ATOM      6  C   UNL     1      -4.309  -0.781  23.961  0.00  0.00    -0.000 A 
ATOM      7  C   UNL     1      -3.645  -0.353  24.200  0.00  0.00    +0.001 A 
ENDBRANCH   8   7
BRANCH  16  18
ATOM     18  S   UNL     1      -4.920   1.489  25.198  0.00  0.00    +0.046 S 
ATOM     19  C   UNL     1      -5.554   1.462  24.670  0.00  0.00    +0.196 C 
ATOM     20  O   UNL     1      -4.286   1.517  25.726  0.00  0.00    -0.157 OA
ATOM     21  O   UNL     1      -5.077   0.712  25.426  0.00  0.00    -0.157 OA
ENDBRANCH  16  18
TORSDOF 2
ENDMDL
MODEL 5
REMARK VINA RESULT:     -13.0      1.883      2.747
REMARK  Name = 
REMARK  2 active torsions:
REMARK  status: ('A' for Active; 'I' for Inactive)
REMARK    1  A    between atoms: C_7  and  C_8
REMARK    2  A    between atoms: N_16  and  S_18
REMARK                            x       y       z     vdW  Elec       q    Type
REMARK                         _______ _______ _______ _____ _____    ______ ____
ROOT
ATOM      8  C   UNL     1      -3.207   2.343  24.599  0.00  0.00    +0.056 A 
ATOM      9  C   UNL     1      -3.651   3.031  24.499  0.00  0.00    +0.006 A 
ATOM     10  C   UNL     1      -3.305   3.768  24.634  0.00  0.00    +0.013 A 
ATOM     11  C   UNL     1      -2.516   3.817  24.867  0.00  0.00    +0.041 A 
ATOM     12  C   UNL     1      -1.872   4.436  25.083  0.00  0.00    +0.056 C 
ATOM     13  C   UNL     1      -1.772   5.128  25.143  0.00  0.00    +0.011 C 
ATOM     14  C   UNL     1      -1.337   4.447  25.240  0.00  0.00    +0.041 C 
ATOM     15  C   UNL     1      -0.657   3.750  25.408  0.00  0.00    +0.097 C 
ATOM     16  N   UNL     1      -1.112   3.068  25.245  0.00  0.00    -0.159 NA
ATOM     17  C   UNL     1      -1.204   3.774  25.249  0.00  0.00    +0.101 C 
ATOM     22  C   UNL     1      -2.003   3.792  25.016  0.00  0.00    +0.110 C 
ATOM     23  N   UNL     1      -2.072   3.128  24.966  0.00  0.00    -0.299 N 
ATOM     24  C   UNL     1      -2.417   2.391  24.832  0.00  0.00    +0.261 A 
ATOM     25  O   UNL     1      -1.974   1.703  24.931  0.00  0.00    -0.267 OA
ENDROOT
BRANCH   8   7
ATOM      1  C   UNL     1      -4.541   1.891  25.457  0.00  0.00    +0.031 C 
ATOM      2  C   UNL     1      -4.221   1.381  24.894  0.00  0.00    -0.022 A 
ATOM      3  C   UNL     1      -4.568   0.645  24.760  0.00  0.00    -0.004 A 
ATOM      4  C   UNL     1      -4.248   0.134  24.197  0.00  0.00    -0.000 A 
ATOM      5  C   UNL     1      -3.580   0.359  23.767  0.00  0.00    -0.000 A 
ATOM      6  C   UNL     1      -3.233   1.096  23.901  0.00  0.00    -0.000 A 
ATOM      7  C   UNL     1      -3.553   1.607  24.464  0.00  0.00    +0.001 A 
ENDBRANCH   8   7
BRANCH  16  18
ATOM     18  S   UNL     1      -1.295   2.268  25.155  0.00  0.00    +0.046 S 
ATOM     19  C   UNL     1      -1.000   2.287  24.385  0.00  0.00    +0.196 C 
ATOM     20  O   UNL     1      -1.590   2.250  25.926  0.00  0.00    -0.157 OA
ATOM     21  O   UNL     1      -1.478   1.469  25.066  0.00  0.00    -0.157 OA
ENDBRANCH  16  18
TORSDOF 2
ENDMDL
