MODEL 1
REMARK VINA RESULT:      -8.7      0.000      0.000
REMARK  Name = 
REMARK  6 active torsions:
REMARK  status: ('A' for Active; 'I' for Inactive)
REMARK    1  A    between atoms: C_2  and  C_4
REMARK    2  A    between atoms: C_6  and  C_7
REMARK    3  A    between atoms: C_7  and  C_8
REMARK    4  A    between atoms: C_11  and  C_13
REMARK    5  A    between atoms: C_23  and  C_24
REMARK    6  A    between atoms: C_24  and  N_25
REMARK                            x       y       z     vdW  Elec       q    Type
REMARK                         _______ _______ _______ _____ _____    ______ ____
ROOT
ATOM      4  C   UNL     1      -0.426   1.895  24.263  0.00  0.00    +0.006 C 
ATOM      5  C   UNL     1       0.037   1.229  24.117  0.00  0.00    +0.005 C 
ATOM      6  C   UNL     1      -0.321   0.516  23.903  0.00  0.00    +0.027 C 
ATOM     20  C   UNL     1      -1.141   0.471  23.834  0.00  0.00    -0.048 C 
ATOM     21  C   UNL     1      -1.500  -0.240  23.620  0.00  0.00    +0.026 C 
ATOM     22  C   UNL     1      -1.605   1.138  23.980  0.00  0.00    -0.034 C 
ATOM     23  C   UNL     1      -1.247   1.850  24.194  0.00  0.00    +0.037 C 
ENDROOT
BRANCH   4   2
ATOM      1  C   UNL     1       0.054   3.194  23.911  0.00  0.00    +0.000 C 
ATOM      2  C   UNL     1      -0.069   2.606  24.477  0.00  0.00    +0.000 C 
ATOM      3  C   UNL     1       0.166   2.731  25.259  0.00  0.00    +0.000 C 
ENDBRANCH   4   2
BRANCH   6   7
ATOM      7  C   UNL     1       0.142  -0.150  23.757  0.00  0.00    +0.091 C 
BRANCH   7   8
ATOM      8  C   UNL     1       0.831  -0.084  23.306  0.00  0.00    +0.227 A 
ATOM      9  N   UNL     1       0.872  -0.081  22.482  0.00  0.00    -0.111 NA
ATOM     10  N   UNL     1       1.665  -0.004  22.268  0.00  0.00    -0.107 NA
ATOM     11  C   UNL     1       2.113   0.040  22.959  0.00  0.00    +0.250 A 
ATOM     12  O   UNL     1       1.597  -0.009  23.601  0.00  0.00    -0.420 OA
BRANCH  11  13
ATOM     13  C   UNL     1       2.933   0.120  23.001  0.00  0.00    +0.055 A 
ATOM     14  C   UNL     1       3.394  -0.502  23.288  0.00  0.00    +0.004 A 
ATOM     15  C   UNL     1       4.214  -0.423  23.331  0.00  0.00    -0.004 A 
ATOM     16  C   UNL     1       4.574   0.278  23.087  0.00  0.00    -0.022 A 
ATOM     17  C   UNL     1       5.394   0.358  23.129  0.00  0.00    +0.031 C 
ATOM     18  C   UNL     1       4.114   0.900  22.800  0.00  0.00    -0.004 A 
ATOM     19  C   UNL     1       3.293   0.820  22.757  0.00  0.00    +0.004 A 
ENDBRANCH  11  13
ENDBRANCH   7   8
ENDBRANCH   6   7
BRANCH  23  24
ATOM     24  C   UNL     1      -1.711   2.516  24.340  0.00  0.00    +0.076 C 
BRANCH  24  25
ATOM     25  N   UNL     1      -2.509   2.431  24.527  0.00  0.00    -0.269 NA
ATOM     26  C   UNL     1      -3.072   2.381  23.925  0.00  0.00    +0.094 C 
ATOM     27  C   UNL     1      -3.870   2.295  24.113  0.00  0.00    +0.111 C 
ATOM     28  N   UNL     1      -4.106   2.260  24.903  0.00  0.00    -0.275 N 
ATOM     29  C   UNL     1      -3.545   2.309  25.505  0.00  0.00    +0.111 C 
ATOM     30  C   UNL     1      -2.746   2.395  25.317  0.00  0.00    +0.094 C 
ATOM     31  C   UNL     1      -4.906   2.174  25.091  0.00  0.00    +0.220 A 
ATOM     32  N   UNL     1      -5.468   2.124  24.489  0.00  0.00    -0.212 NA
ATOM     33  C   UNL     1      -6.267   2.038  24.677  0.00  0.00    +0.103 A 
ATOM     34  C   UNL     1      -6.503   2.002  25.467  0.00  0.00    +0.041 A 
ATOM     35  C   UNL     1      -5.941   2.052  26.068  0.00  0.00    +0.103 A 
ATOM     36  N   UNL     1      -5.142   2.138  25.880  0.00  0.00    -0.212 NA
ENDBRANCH  24  25
ENDBRANCH  23  24
TORSDOF 6
ENDMDL
MODEL 2
REMARK VINA RESULT:      -8.6      1.591      7.012
REMARK  Name = 
REMARK  6 active torsions:
REMARK  status: ('A' for Active; 'I' for Inactive)
REMARK    1  A    between atoms: C_2  and  C_4
REMARK    2  A    between atoms: C_6  and  C_7
REMARK    3  A    between atoms: C_7  and  C_8
REMARK    4  A    between atoms: C_11  and  C_13
REMARK    5  A    between atoms: C_23  and  C_24
REMARK    6  A    between atoms: C_24  and  N_25
REMARK                            x       y       z     vdW  Elec       q    Type
REMARK                         _______ _______ _______ _____ _____    ______ ____
ROOT
ATOM      4  C   UNL     1      -1.996   0.462  24.179  0.00  0.00    +0.006 C 
ATOM      5  C   UNL     1      -2.630   0.897  23.883  0.00  0.00    +0.005 C 
ATOM      6  C   UNL     1      -2.496   1.505  23.341  0.00  0.00    +0.027 C 
ATOM     20  C   UNL     1      -1.728   1.677  23.096  0.00  0.00    -0.048 C 
ATOM     21  C   UNL     1      -1.593   2.284  22.554  0.00  0.00    +0.026 C 
ATOM     22  C   UNL     1      -1.092   1.240  23.392  0.00  0.00    -0.034 C 
ATOM     23  C   UNL     1      -1.227   0.633  23.934  0.00  0.00    +0.037 C 
ENDROOT
BRANCH   4   2
ATOM      1  C   UNL     1      -2.020  -0.011  25.527  0.00  0.00    +0.000 C 
ATOM      2  C   UNL     1      -2.129  -0.145  24.721  0.00  0.00    +0.000 C 
ATOM      3  C   UNL     1      -2.373  -0.889  24.456  0.00  0.00    +0.000 C 
ENDBRANCH   4   2
BRANCH   6   7
ATOM      7  C   UNL     1      -3.130   1.941  23.045  0.00  0.00    +0.091 C 
BRANCH   7   8
ATOM      8  C   UNL     1      -3.658   2.307  23.565  0.00  0.00    +0.227 A 
ATOM      9  N   UNL     1      -3.765   3.120  23.653  0.00  0.00    -0.111 NA
ATOM     10  N   UNL     1      -4.344   3.239  24.229  0.00  0.00    -0.107 NA
ATOM     11  C   UNL     1      -4.594   2.499  24.496  0.00  0.00    +0.250 A 
ATOM     12  O   UNL     1      -4.170   1.923  24.085  0.00  0.00    -0.420 OA
BRANCH  11  13
ATOM     13  C   UNL     1      -5.167   2.360  25.072  0.00  0.00    +0.055 A 
ATOM     14  C   UNL     1      -5.722   1.759  24.965  0.00  0.00    +0.004 A 
ATOM     15  C   UNL     1      -6.296   1.618  25.541  0.00  0.00    -0.004 A 
ATOM     16  C   UNL     1      -6.315   2.081  26.225  0.00  0.00    -0.022 A 
ATOM     17  C   UNL     1      -6.889   1.941  26.801  0.00  0.00    +0.031 C 
ATOM     18  C   UNL     1      -5.760   2.681  26.333  0.00  0.00    -0.004 A 
ATOM     19  C   UNL     1      -5.186   2.821  25.755  0.00  0.00    +0.004 A 
ENDBRANCH  11  13
ENDBRANCH   7   8
ENDBRANCH   6   7
BRANCH  23  24
ATOM     24  C   UNL     1      -0.592   0.198  24.229  0.00  0.00    +0.076 C 
BRANCH  24  25
ATOM     25  N   UNL     1       0.155   0.275  23.890  0.00  0.00    -0.269 NA
ATOM     26  C   UNL     1       0.390  -0.237  23.286  0.00  0.00    +0.094 C 
ATOM     27  C   UNL     1       1.138  -0.159  22.947  0.00  0.00    +0.111 C 
ATOM     28  N   UNL     1       1.651   0.431  23.212  0.00  0.00    -0.275 N 
ATOM     29  C   UNL     1       1.417   0.942  23.814  0.00  0.00    +0.111 C 
ATOM     30  C   UNL     1       0.669   0.864  24.154  0.00  0.00    +0.094 C 
ATOM     31  C   UNL     1       2.400   0.508  22.872  0.00  0.00    +0.220 A 
ATOM     32  N   UNL     1       2.634  -0.004  22.268  0.00  0.00    -0.212 NA
ATOM     33  C   UNL     1       3.381   0.074  21.929  0.00  0.00    +0.103 A 
ATOM     34  C   UNL     1       3.896   0.664  22.193  0.00  0.00    +0.041 A 
ATOM     35  C   UNL     1       3.661   1.175  22.796  0.00  0.00    +0.103 A 
ATOM     36  N   UNL     1       2.913   1.097  23.136  0.00  0.00    -0.212 NA
ENDBRANCH  24  25
ENDBRANCH  23  24
TORSDOF 6
ENDMDL
MODEL 3
REMARK VINA RESULT:      -8.3      2.008      6.079
REMARK  Name = 
REMARK  6 active torsions:
REMARK  status: ('A' for Active; 'I' for Inactive)
REMARK    1  A    between atoms: C_2  and  C_4
REMARK    2  A    between atoms: C_6  and  C_7
REMARK    3  A    between atoms: C_7  and  C_8
REMARK    4  A    between atoms: C_11  and  C_13
REMARK    5  A    between atoms: C_23  and  C_24
REMARK    6  A    between atoms: C_24  and  N_25
REMARK                            x       y       z     vdW  Elec       q    Type
REMARK                         _______ _______ _______ _____ _____    ______ ____
ROOT
ATOM      4  C   UNL     1      -1.789   2.485  25.008  0.00  0.00    +0.006 C 
ATOM      5  C   UNL     1      -2.574   2.308  24.832  0.00  0.00    +0.005 C 
ATOM      6  C   UNL     1      -2.788   2.097  24.063  0.00  0.00    +0.027 C 
ATOM     20  C   UNL     1      -2.215   2.064  23.471  0.00  0.00    -0.048 C 
ATOM     21  C   UNL     1      -2.428   1.853  22.702  0.00  0.00    +0.026 C 
ATOM     22  C   UNL     1      -1.428   2.242  23.647  0.00  0.00    -0.034 C 
ATOM     23  C   UNL     1      -1.216   2.452  24.415  0.00  0.00    +0.037 C 
ENDROOT
BRANCH   4   2
ATOM      1  C   UNL     1      -1.342   2.115  26.314  0.00  0.00    +0.000 C 
ATOM      2  C   UNL     1      -1.576   2.696  25.776  0.00  0.00    +0.000 C 
ATOM      3  C   UNL     1      -1.595   3.489  26.007  0.00  0.00    +0.000 C 
ENDBRANCH   4   2
BRANCH   6   7
ATOM      7  C   UNL     1      -3.574   1.919  23.887  0.00  0.00    +0.091 C 
BRANCH   7   8
ATOM      8  C   UNL     1      -3.909   1.216  24.160  0.00  0.00    +0.227 A 
ATOM      9  N   UNL     1      -4.625   1.145  24.565  0.00  0.00    -0.111 NA
ATOM     10  N   UNL     1      -4.745   0.346  24.731  0.00  0.00    -0.107 NA
ATOM     11  C   UNL     1      -4.104  -0.077  24.429  0.00  0.00    +0.250 A 
ATOM     12  O   UNL     1      -3.587   0.462  24.076  0.00  0.00    -0.420 OA
BRANCH  11  13
ATOM     13  C   UNL     1      -3.998  -0.893  24.472  0.00  0.00    +0.055 A 
ATOM     14  C   UNL     1      -3.624  -1.227  25.127  0.00  0.00    +0.004 A 
ATOM     15  C   UNL     1      -3.518  -2.044  25.172  0.00  0.00    -0.004 A 
ATOM     16  C   UNL     1      -3.785  -2.528  24.558  0.00  0.00    -0.022 A 
ATOM     17  C   UNL     1      -3.679  -3.345  24.602  0.00  0.00    +0.031 C 
ATOM     18  C   UNL     1      -4.159  -2.195  23.903  0.00  0.00    -0.004 A 
ATOM     19  C   UNL     1      -4.265  -1.377  23.860  0.00  0.00    +0.004 A 
ENDBRANCH  11  13
ENDBRANCH   7   8
ENDBRANCH   6   7
BRANCH  23  24
ATOM     24  C   UNL     1      -0.430   2.630  24.591  0.00  0.00    +0.076 C 
BRANCH  24  25
ATOM     25  N   UNL     1       0.178   2.190  24.249  0.00  0.00    -0.269 NA
ATOM     26  C   UNL     1       0.851   2.572  23.960  0.00  0.00    +0.094 C 
ATOM     27  C   UNL     1       1.460   2.132  23.618  0.00  0.00    +0.111 C 
ATOM     28  N   UNL     1       1.396   1.311  23.566  0.00  0.00    -0.275 N 
ATOM     29  C   UNL     1       0.725   0.930  23.856  0.00  0.00    +0.111 C 
ATOM     30  C   UNL     1       0.116   1.370  24.197  0.00  0.00    +0.094 C 
ATOM     31  C   UNL     1       2.005   0.871  23.224  0.00  0.00    +0.220 A 
ATOM     32  N   UNL     1       2.677   1.253  22.935  0.00  0.00    -0.212 NA
ATOM     33  C   UNL     1       3.286   0.813  22.594  0.00  0.00    +0.103 A 
ATOM     34  C   UNL     1       3.223  -0.009  22.541  0.00  0.00    +0.041 A 
ATOM     35  C   UNL     1       2.551  -0.389  22.831  0.00  0.00    +0.103 A 
ATOM     36  N   UNL     1       1.942   0.050  23.173  0.00  0.00    -0.212 NA
ENDBRANCH  24  25
ENDBRANCH  23  24
TORSDOF 6
ENDMDL
MODEL 4
REMARK VINA RESULT:      -8.2      2.078      6.417
REMARK  Name = 
REMARK  6 active torsions:
REMARK  status: ('A' for Active; 'I' for Inactive)
REMARK    1  A    between atoms: C_2  and  C_4
REMARK    2  A    between atoms: C_6  and  C_7
REMARK    3  A    between atoms: C_7  and  C_8
REMARK    4  A    between atoms: C_11  and  C_13
REMARK    5  A    between atoms: C_23  and  C_24
REMARK    6  A    between atoms: C_24  and  N_25
REMARK                            x       y       z     vdW  Elec       q    Type
REMARK                         _______ _______ _______ _____ _____    ______ ____
ROOT
ATOM      4  C   UNL     1      -3.259  -0.831  25.220  0.00  0.00    +0.006 C 
ATOM      5  C   UNL     1      -3.943  -0.373  25.169  0.00  0.00    +0.005 C 
ATOM      6  C   UNL     1      -4.064   0.116  24.515  0.00  0.00    +0.027 C 
ATOM     20  C   UNL     1      -3.500   0.146  23.913  0.00  0.00    -0.048 C 
ATOM     21  C   UNL     1      -3.620   0.635  23.259  0.00  0.00    +0.026 C 
ATOM     22  C   UNL     1      -2.816  -0.313  23.965  0.00  0.00    -0.034 C 
ATOM     23  C   UNL     1      -2.696  -0.801  24.618  0.00  0.00    +0.037 C 
ENDROOT
BRANCH   4   2
ATOM      1  C   UNL     1      -2.832  -1.007  26.573  0.00  0.00    +0.000 C 
ATOM      2  C   UNL     1      -3.139  -1.320  25.873  0.00  0.00    +0.000 C 
ATOM      3  C   UNL     1      -3.325  -2.123  25.828  0.00  0.00    +0.000 C 
ENDBRANCH   4   2
BRANCH   6   7
ATOM      7  C   UNL     1      -4.747   0.575  24.463  0.00  0.00    +0.091 C 
BRANCH   7   8
ATOM      8  C   UNL     1      -4.774   1.317  24.825  0.00  0.00    +0.227 A 
ATOM      9  N   UNL     1      -5.413   1.628  25.244  0.00  0.00    -0.111 NA
ATOM     10  N   UNL     1      -5.201   2.380  25.509  0.00  0.00    -0.107 NA
ATOM     11  C   UNL     1      -4.432   2.534  25.253  0.00  0.00    +0.250 A 
ATOM     12  O   UNL     1      -4.168   1.876  24.830  0.00  0.00    -0.420 OA
BRANCH  11  13
ATOM     13  C   UNL     1      -4.002   3.223  25.394  0.00  0.00    +0.055 A 
ATOM     14  C   UNL     1      -3.623   3.331  26.119  0.00  0.00    +0.004 A 
ATOM     15  C   UNL     1      -3.192   4.020  26.262  0.00  0.00    -0.004 A 
ATOM     16  C   UNL     1      -3.142   4.602  25.678  0.00  0.00    -0.022 A 
ATOM     17  C   UNL     1      -2.711   5.292  25.820  0.00  0.00    +0.031 C 
ATOM     18  C   UNL     1      -3.520   4.495  24.954  0.00  0.00    -0.004 A 
ATOM     19  C   UNL     1      -3.951   3.804  24.812  0.00  0.00    +0.004 A 
ENDBRANCH  11  13
ENDBRANCH   7   8
ENDBRANCH   6   7
BRANCH  23  24
ATOM     24  C   UNL     1      -2.012  -1.260  24.669  0.00  0.00    +0.076 C 
BRANCH  24  25
ATOM     25  N   UNL     1      -1.309  -0.990  24.336  0.00  0.00    -0.269 NA
ATOM     26  C   UNL     1      -1.000  -1.361  23.666  0.00  0.00    +0.094 C 
ATOM     27  C   UNL     1      -0.296  -1.091  23.332  0.00  0.00    +0.111 C 
ATOM     28  N   UNL     1       0.100  -0.450  23.669  0.00  0.00    -0.275 N 
ATOM     29  C   UNL     1      -0.208  -0.079  24.338  0.00  0.00    +0.111 C 
ATOM     30  C   UNL     1      -0.912  -0.349  24.671  0.00  0.00    +0.094 C 
ATOM     31  C   UNL     1       0.805  -0.179  23.335  0.00  0.00    +0.220 A 
ATOM     32  N   UNL     1       1.113  -0.550  22.665  0.00  0.00    -0.212 NA
ATOM     33  C   UNL     1       1.817  -0.280  22.331  0.00  0.00    +0.103 A 
ATOM     34  C   UNL     1       2.214   0.361  22.667  0.00  0.00    +0.041 A 
ATOM     35  C   UNL     1       1.906   0.732  23.336  0.00  0.00    +0.103 A 
ATOM     36  N   UNL     1       1.201   0.461  23.670  0.00  0.00    -0.212 NA
ENDBRANCH  24  25
ENDBRANCH  23  24
TORSDOF 6
ENDMDL
MODEL 5
REMARK VINA RESULT:      -8.2      2.286      3.640
REMARK  Name = 
REMARK  6 active torsions:
REMARK  status: ('A' for Active; 'I' for Inactive)
REMARK    1  A    between atoms: C_2  and  C_4
REMARK    2  A    between atoms: C_6  and  C_7
REMARK    3  A    between atoms: C_7  and  C_8
REMARK    4  A    between atoms: C_11  and  C_13
REMARK    5  A    between atoms: C_23  and  C_24
REMARK    6  A    between atoms: C_24  and  N_25
REMARK                            x       y       z     vdW  Elec       q    Type
REMARK                         _______ _______ _______ _____ _____    ______ ____
ROOT
ATOM      4  C   UNL     1      -0.415   2.215  25.318  0.00  0.00    +0.006 C 
ATOM      5  C   UNL     1      -0.108   1.559  24.923  0.00  0.00    +0.005 C 
ATOM      6  C   UNL     1      -0.410   1.342  24.186  0.00  0.00    +0.027 C 
ATOM     20  C   UNL     1      -1.019   1.782  23.844  0.00  0.00    -0.048 C 
ATOM     21  C   UNL     1      -1.321   1.565  23.108  0.00  0.00    +0.026 C 
ATOM     22  C   UNL     1      -1.326   2.438  24.240  0.00  0.00    -0.034 C 
ATOM     23  C   UNL     1      -1.024   2.654  24.976  0.00  0.00    +0.037 C 
ENDROOT
BRANCH   4   2
ATOM      1  C   UNL     1       0.368   3.098  26.123  0.00  0.00    +0.000 C 
ATOM      2  C   UNL     1      -0.113   2.432  26.054  0.00  0.00    +0.000 C 
ATOM      3  C   UNL     1      -0.293   1.981  26.722  0.00  0.00    +0.000 C 
ENDBRANCH   4   2
BRANCH   6   7
ATOM      7  C   UNL     1      -0.103   0.687  23.791  0.00  0.00    +0.091 C 
BRANCH   7   8
ATOM      8  C   UNL     1      -0.306  -0.075  24.037  0.00  0.00    +0.227 A 
ATOM      9  N   UNL     1       0.223  -0.671  24.251  0.00  0.00    -0.111 NA
ATOM     10  N   UNL     1      -0.216  -1.339  24.458  0.00  0.00    -0.107 NA
ATOM     11  C   UNL     1      -1.016  -1.154  24.372  0.00  0.00    +0.250 A 
ATOM     12  O   UNL     1      -1.071  -0.373  24.112  0.00  0.00    -0.420 OA
BRANCH  11  13
ATOM     13  C   UNL     1      -1.649  -1.661  24.521  0.00  0.00    +0.055 A 
ATOM     14  C   UNL     1      -2.267  -1.417  25.011  0.00  0.00    +0.004 A 
ATOM     15  C   UNL     1      -2.901  -1.923  25.160  0.00  0.00    -0.004 A 
ATOM     16  C   UNL     1      -2.917  -2.674  24.818  0.00  0.00    -0.022 A 
ATOM     17  C   UNL     1      -3.551  -3.181  24.966  0.00  0.00    +0.031 C 
ATOM     18  C   UNL     1      -2.301  -2.919  24.327  0.00  0.00    -0.004 A 
ATOM     19  C   UNL     1      -1.666  -2.411  24.179  0.00  0.00    +0.004 A 
ENDBRANCH  11  13
ENDBRANCH   7   8
ENDBRANCH   6   7
BRANCH  23  24
ATOM     24  C   UNL     1      -1.332   3.310  25.370  0.00  0.00    +0.076 C 
BRANCH  24  25
ATOM     25  N   UNL     1      -2.147   3.425  25.407  0.00  0.00    -0.269 NA
ATOM     26  C   UNL     1      -2.473   4.145  25.169  0.00  0.00    +0.094 C 
ATOM     27  C   UNL     1      -3.290   4.260  25.206  0.00  0.00    +0.111 C 
ATOM     28  N   UNL     1      -3.779   3.655  25.480  0.00  0.00    -0.275 N 
ATOM     29  C   UNL     1      -3.453   2.936  25.717  0.00  0.00    +0.111 C 
ATOM     30  C   UNL     1      -2.637   2.821  25.681  0.00  0.00    +0.094 C 
ATOM     31  C   UNL     1      -4.596   3.770  25.517  0.00  0.00    +0.220 A 
ATOM     32  N   UNL     1      -4.922   4.490  25.279  0.00  0.00    -0.212 NA
ATOM     33  C   UNL     1      -5.738   4.605  25.315  0.00  0.00    +0.103 A 
ATOM     34  C   UNL     1      -6.228   4.000  25.590  0.00  0.00    +0.041 A 
ATOM     35  C   UNL     1      -5.902   3.280  25.827  0.00  0.00    +0.103 A 
ATOM     36  N   UNL     1      -5.085   3.166  25.791  0.00  0.00    -0.212 NA
ENDBRANCH  24  25
ENDBRANCH  23  24
TORSDOF 6
ENDMDL
MODEL 6
REMARK VINA RESULT:      -8.0      3.463      5.082
REMARK  Name = 
REMARK  6 active torsions:
REMARK  status: ('A' for Active; 'I' for Inactive)
REMARK    1  A    between atoms: C_2  and  C_4
REMARK    2  A    between atoms: C_6  and  C_7
REMARK    3  A    between atoms: C_7  and  C_8
REMARK    4  A    between atoms: C_11  and  C_13
REMARK    5  A    between atoms: C_23  and  C_24
REMARK    6  A    between atoms: C_24  and  N_25
REMARK                            x       y       z     vdW  Elec       q    Type
REMARK                         _______ _______ _______ _____ _____    ______ ____
ROOT
ATOM      4  C   UNL     1      -4.934   2.503  25.023  0.00  0.00    +0.006 C 
ATOM      5  C   UNL     1      -4.492   3.177  24.854  0.00  0.00    +0.005 C 
ATOM      6  C   UNL     1      -3.931   3.163  24.249  0.00  0.00    +0.027 C 
ATOM     20  C   UNL     1      -3.813   2.473  23.813  0.00  0.00    -0.048 C 
ATOM     21  C   UNL     1      -3.252   2.457  23.208  0.00  0.00    +0.026 C 
ATOM     22  C   UNL     1      -4.256   1.797  23.982  0.00  0.00    -0.034 C 
ATOM     23  C   UNL     1      -4.816   1.812  24.587  0.00  0.00    +0.037 C 
ENDROOT
BRANCH   4   2
ATOM      1  C   UNL     1      -5.252   2.561  26.415  0.00  0.00    +0.000 C 
ATOM      2  C   UNL     1      -5.495   2.517  25.627  0.00  0.00    +0.000 C 
ATOM      3  C   UNL     1      -6.300   2.488  25.444  0.00  0.00    +0.000 C 
ENDBRANCH   4   2
BRANCH   6   7
ATOM      7  C   UNL     1      -3.489   3.838  24.080  0.00  0.00    +0.091 C 
BRANCH   7   8
ATOM      8  C   UNL     1      -2.805   4.003  24.513  0.00  0.00    +0.227 A 
ATOM      9  N   UNL     1      -2.522   4.754  24.704  0.00  0.00    -0.111 NA
ATOM     10  N   UNL     1      -1.828   4.660  25.140  0.00  0.00    -0.107 NA
ATOM     11  C   UNL     1      -1.682   3.852  25.218  0.00  0.00    +0.250 A 
ATOM     12  O   UNL     1      -2.287   3.446  24.830  0.00  0.00    -0.420 OA
BRANCH  11  13
ATOM     13  C   UNL     1      -1.045   3.510  25.614  0.00  0.00    +0.055 A 
ATOM     14  C   UNL     1      -1.157   3.161  26.353  0.00  0.00    +0.004 A 
ATOM     15  C   UNL     1      -0.520   2.818  26.750  0.00  0.00    -0.004 A 
ATOM     16  C   UNL     1       0.230   2.825  26.406  0.00  0.00    -0.022 A 
ATOM     17  C   UNL     1       0.868   2.482  26.803  0.00  0.00    +0.031 C 
ATOM     18  C   UNL     1       0.344   3.173  25.668  0.00  0.00    -0.004 A 
ATOM     19  C   UNL     1      -0.295   3.516  25.271  0.00  0.00    +0.004 A 
ENDBRANCH  11  13
ENDBRANCH   7   8
ENDBRANCH   6   7
BRANCH  23  24
ATOM     24  C   UNL     1      -5.258   1.137  24.755  0.00  0.00    +0.076 C 
BRANCH  24  25
ATOM     25  N   UNL     1      -4.903   0.394  24.730  0.00  0.00    -0.269 NA
ATOM     26  C   UNL     1      -4.420   0.145  25.352  0.00  0.00    +0.094 C 
ATOM     27  C   UNL     1      -4.064  -0.598  25.327  0.00  0.00    +0.111 C 
ATOM     28  N   UNL     1      -4.190  -1.094  24.679  0.00  0.00    -0.275 N 
ATOM     29  C   UNL     1      -4.672  -0.846  24.057  0.00  0.00    +0.111 C 
ATOM     30  C   UNL     1      -5.028  -0.102  24.083  0.00  0.00    +0.094 C 
ATOM     31  C   UNL     1      -3.834  -1.838  24.653  0.00  0.00    +0.220 A 
ATOM     32  N   UNL     1      -3.352  -2.086  25.276  0.00  0.00    -0.212 NA
ATOM     33  C   UNL     1      -2.996  -2.830  25.250  0.00  0.00    +0.103 A 
ATOM     34  C   UNL     1      -3.121  -3.326  24.602  0.00  0.00    +0.041 A 
ATOM     35  C   UNL     1      -3.603  -3.077  23.981  0.00  0.00    +0.103 A 
ATOM     36  N   UNL     1      -3.960  -2.333  24.006  0.00  0.00    -0.212 NA
ENDBRANCH  24  25
ENDBRANCH  23  24
TORSDOF 6
ENDMDL
MODEL 7
REMARK VINA RESULT:      -6.3     16.469     18.271
REMARK  Name = 
REMARK  6 active torsions:
REMARK  status: ('A' for Active; 'I' for Inactive)
REMARK    1  A    between atoms: C_2  and  C_4
REMARK    2  A    between atoms: C_6  and  C_7
REMARK    3  A    between atoms: C_7  and  C_8
REMARK    4  A    between atoms: C_11  and  C_13
REMARK    5  A    between atoms: C_23  and  C_24
REMARK    6  A    between atoms: C_24  and  N_25
REMARK                            x       y       z     vdW  Elec       q    Type
REMARK                         _______ _______ _______ _____ _____    ______ ____
ROOT
ATOM      4  C   UNL     1      -5.409  -9.936  10.631  0.00  0.00    +0.006 C 
ATOM      5  C   UNL     1      -6.028  -9.987  10.089  0.00  0.00    +0.005 C 
ATOM      6  C   UNL     1      -6.766 -10.269  10.329  0.00  0.00    +0.027 C 
ATOM     20  C   UNL     1      -6.883 -10.499  11.112  0.00  0.00    -0.048 C 
ATOM     21  C   UNL     1      -7.620 -10.781  11.354  0.00  0.00    +0.026 C 
ATOM     22  C   UNL     1      -6.264 -10.448  11.656  0.00  0.00    -0.034 C 
ATOM     23  C   UNL     1      -5.527 -10.167  11.415  0.00  0.00    +0.037 C 
ENDROOT
BRANCH   4   2
ATOM      1  C   UNL     1      -4.100 -10.179  10.111  0.00  0.00    +0.000 C 
ATOM      2  C   UNL     1      -4.672  -9.654  10.391  0.00  0.00    +0.000 C 
ATOM      3  C   UNL     1      -4.506  -8.846  10.431  0.00  0.00    +0.000 C 
ENDBRANCH   4   2
BRANCH   6   7
ATOM      7  C   UNL     1      -7.384 -10.320   9.787  0.00  0.00    +0.091 C 
BRANCH   7   8
ATOM      8  C   UNL     1      -7.514  -9.706   9.249  0.00  0.00    +0.227 A 
ATOM      9  N   UNL     1      -7.312  -9.713   8.450  0.00  0.00    -0.111 NA
ATOM     10  N   UNL     1      -7.541  -8.990   8.124  0.00  0.00    -0.107 NA
ATOM     11  C   UNL     1      -7.884  -8.538   8.722  0.00  0.00    +0.250 A 
ATOM     12  O   UNL     1      -7.867  -8.981   9.418  0.00  0.00    -0.420 OA
BRANCH  11  13
ATOM     13  C   UNL     1      -8.191  -7.777   8.640  0.00  0.00    +0.055 A 
ATOM     14  C   UNL     1      -8.961  -7.613   8.887  0.00  0.00    +0.004 A 
ATOM     15  C   UNL     1      -9.269  -6.852   8.805  0.00  0.00    -0.004 A 
ATOM     16  C   UNL     1      -8.805  -6.254   8.475  0.00  0.00    -0.022 A 
ATOM     17  C   UNL     1      -9.112  -5.492   8.393  0.00  0.00    +0.031 C 
ATOM     18  C   UNL     1      -8.035  -6.416   8.228  0.00  0.00    -0.004 A 
ATOM     19  C   UNL     1      -7.728  -7.179   8.311  0.00  0.00    +0.004 A 
ENDBRANCH  11  13
ENDBRANCH   7   8
ENDBRANCH   6   7
BRANCH  23  24
ATOM     24  C   UNL     1      -4.908 -10.116  11.958  0.00  0.00    +0.076 C 
BRANCH  24  25
ATOM     25  N   UNL     1      -5.066 -10.132  12.766  0.00  0.00    -0.269 NA
ATOM     26  C   UNL     1      -5.574  -9.573  13.099  0.00  0.00    +0.094 C 
ATOM     27  C   UNL     1      -5.733  -9.590  13.908  0.00  0.00    +0.111 C 
ATOM     28  N   UNL     1      -5.383 -10.166  14.385  0.00  0.00    -0.275 N 
ATOM     29  C   UNL     1      -4.876 -10.724  14.053  0.00  0.00    +0.111 C 
ATOM     30  C   UNL     1      -4.717 -10.708  13.244  0.00  0.00    +0.094 C 
ATOM     31  C   UNL     1      -5.542 -10.182  15.195  0.00  0.00    +0.220 A 
ATOM     32  N   UNL     1      -6.050  -9.623  15.527  0.00  0.00    -0.212 NA
ATOM     33  C   UNL     1      -6.208  -9.639  16.337  0.00  0.00    +0.103 A 
ATOM     34  C   UNL     1      -5.859 -10.215  16.814  0.00  0.00    +0.041 A 
ATOM     35  C   UNL     1      -5.351 -10.774  16.481  0.00  0.00    +0.103 A 
ATOM     36  N   UNL     1      -5.193 -10.757  15.672  0.00  0.00    -0.212 NA
ENDBRANCH  24  25
ENDBRANCH  23  24
TORSDOF 6
ENDMDL
MODEL 8
REMARK VINA RESULT:      -5.4     15.274     17.572
REMARK  Name = 
REMARK  6 active torsions:
REMARK  status: ('A' for Active; 'I' for Inactive)
REMARK    1  A    between atoms: C_2  and  C_4
REMARK    2  A    between atoms: C_6  and  C_7
REMARK    3  A    between atoms: C_7  and  C_8
REMARK    4  A    between atoms: C_11  and  C_13
REMARK    5  A    between atoms: C_23  and  C_24
REMARK    6  A    between atoms: C_24  and  N_25
REMARK                            x       y       z     vdW  Elec       q    Type
REMARK                         _______ _______ _______ _____ _____    ______ ____
ROOT
ATOM      4  C   UNL     1      -6.800 -10.059  14.607  0.00  0.00    +0.006 C 
ATOM      5  C   UNL     1      -7.571 -10.203  14.860  0.00  0.00    +0.005 C 
ATOM      6  C   UNL     1      -8.194 -10.183  14.319  0.00  0.00    +0.027 C 
ATOM     20  C   UNL     1      -8.045 -10.018  13.524  0.00  0.00    -0.048 C 
ATOM     21  C   UNL     1      -8.667  -9.997  12.983  0.00  0.00    +0.026 C 
ATOM     22  C   UNL     1      -7.273  -9.873  13.271  0.00  0.00    -0.034 C 
ATOM     23  C   UNL     1      -6.651  -9.894  13.812  0.00  0.00    +0.037 C 
ENDROOT
BRANCH   4   2
ATOM      1  C   UNL     1      -5.751 -10.777  15.260  0.00  0.00    +0.000 C 
ATOM      2  C   UNL     1      -6.178 -10.079  15.147  0.00  0.00    +0.000 C 
ATOM      3  C   UNL     1      -5.981  -9.401  15.576  0.00  0.00    +0.000 C 
ENDBRANCH   4   2
BRANCH   6   7
ATOM      7  C   UNL     1      -8.966 -10.327  14.572  0.00  0.00    +0.091 C 
BRANCH   7   8
ATOM      8  C   UNL     1      -9.240  -9.988  15.273  0.00  0.00    +0.227 A 
ATOM      9  N   UNL     1      -9.477  -9.204  15.371  0.00  0.00    -0.111 NA
ATOM     10  N   UNL     1      -9.709  -9.105  16.157  0.00  0.00    -0.107 NA
ATOM     11  C   UNL     1      -9.616  -9.828  16.543  0.00  0.00    +0.250 A 
ATOM     12  O   UNL     1      -9.326 -10.374  15.996  0.00  0.00    -0.420 OA
BRANCH  11  13
ATOM     13  C   UNL     1      -9.782  -9.979  17.337  0.00  0.00    +0.055 A 
ATOM     14  C   UNL     1      -9.185 -10.241  17.842  0.00  0.00    +0.004 A 
ATOM     15  C   UNL     1      -9.350 -10.393  18.635  0.00  0.00    -0.004 A 
ATOM     16  C   UNL     1     -10.116 -10.282  18.924  0.00  0.00    -0.022 A 
ATOM     17  C   UNL     1     -10.282 -10.434  19.718  0.00  0.00    +0.031 C 
ATOM     18  C   UNL     1     -10.714 -10.020  18.421  0.00  0.00    -0.004 A 
ATOM     19  C   UNL     1     -10.547  -9.869  17.626  0.00  0.00    +0.004 A 
ENDBRANCH  11  13
ENDBRANCH   7   8
ENDBRANCH   6   7
BRANCH  23  24
ATOM     24  C   UNL     1      -5.879  -9.750  13.558  0.00  0.00    +0.076 C 
BRANCH  24  25
ATOM     25  N   UNL     1      -5.711  -9.711  12.753  0.00  0.00    -0.269 NA
ATOM     26  C   UNL     1      -5.485 -10.392  12.344  0.00  0.00    +0.094 C 
ATOM     27  C   UNL     1      -5.316 -10.353  11.538  0.00  0.00    +0.111 C 
ATOM     28  N   UNL     1      -5.373  -9.632  11.140  0.00  0.00    -0.275 N 
ATOM     29  C   UNL     1      -5.598  -8.952  11.547  0.00  0.00    +0.111 C 
ATOM     30  C   UNL     1      -5.767  -8.991  12.353  0.00  0.00    +0.094 C 
ATOM     31  C   UNL     1      -5.204  -9.593  10.332  0.00  0.00    +0.220 A 
ATOM     32  N   UNL     1      -4.978 -10.274   9.925  0.00  0.00    -0.212 NA
ATOM     33  C   UNL     1      -4.810 -10.235   9.118  0.00  0.00    +0.103 A 
ATOM     34  C   UNL     1      -4.866  -9.515   8.719  0.00  0.00    +0.041 A 
ATOM     35  C   UNL     1      -5.091  -8.834   9.127  0.00  0.00    +0.103 A 
ATOM     36  N   UNL     1      -5.260  -8.874   9.934  0.00  0.00    -0.212 NA
ENDBRANCH  24  25
ENDBRANCH  23  24
TORSDOF 6
ENDMDL
MODEL 9
REMARK VINA RESULT:      -5.0     15.126     17.483
REMARK  Name = 
REMARK  6 active torsions:
REMARK  status: ('A' for Active; 'I' for Inactive)
REMARK    1  A    between atoms: C_2  and  C_4
REMARK    2  A    between atoms: C_6  and  C_7
REMARK    3  A    between atoms: C_7  and  C_8
REMARK    4  A    between atoms: C_11  and  C_13
REMARK    5  A    between atoms: C_23  and  C_24
REMARK    6  A    between atoms: C_24  and  N_25
REMARK                            x       y       z     vdW  Elec       q    Type
REMARK                         _______ _______ _______ _____ _____    ______ ____
ROOT
ATOM      4  C   UNL     1      -6.777 -10.209  14.824  0.00  0.00    +0.006 C 
ATOM      5  C   UNL     1      -7.538 -10.427  15.052  0.00  0.00    +0.005 C 
ATOM      6  C   UNL     1      -8.119 -10.557  14.481  0.00  0.00    +0.027 C 
ATOM     20  C   UNL     1      -7.938 -10.468  13.681  0.00  0.00    -0.048 C 
ATOM     21  C   UNL     1      -8.518 -10.597  13.109  0.00  0.00    +0.026 C 
ATOM     22  C   UNL     1      -7.175 -10.249  13.452  0.00  0.00    -0.034 C 
ATOM     23  C   UNL     1      -6.595 -10.120  14.024  0.00  0.00    +0.037 C 
ENDROOT
BRANCH   4   2
ATOM      1  C   UNL     1      -5.944 -10.700  15.876  0.00  0.00    +0.000 C 
ATOM      2  C   UNL     1      -6.196 -10.079  15.395  0.00  0.00    +0.000 C 
ATOM      3  C   UNL     1      -5.867  -9.327  15.486  0.00  0.00    +0.000 C 
ENDBRANCH   4   2
BRANCH   6   7
ATOM      7  C   UNL     1      -8.881 -10.775  14.709  0.00  0.00    +0.091 C 
BRANCH   7   8
ATOM      8  C   UNL     1      -9.283 -10.334  15.279  0.00  0.00    +0.227 A 
ATOM      9  N   UNL     1      -9.661 -10.636  15.948  0.00  0.00    -0.111 NA
ATOM     10  N   UNL     1      -9.989 -10.002  16.362  0.00  0.00    -0.107 NA
ATOM     11  C   UNL     1      -9.815  -9.310  15.950  0.00  0.00    +0.250 A 
ATOM     12  O   UNL     1      -9.378  -9.515  15.280  0.00  0.00    -0.420 OA
BRANCH  11  13
ATOM     13  C   UNL     1     -10.037  -8.546  16.168  0.00  0.00    +0.055 A 
ATOM     14  C   UNL     1     -10.233  -7.992  15.589  0.00  0.00    +0.004 A 
ATOM     15  C   UNL     1     -10.456  -7.228  15.806  0.00  0.00    -0.004 A 
ATOM     16  C   UNL     1     -10.482  -7.018  16.604  0.00  0.00    -0.022 A 
ATOM     17  C   UNL     1     -10.705  -6.254  16.822  0.00  0.00    +0.031 C 
ATOM     18  C   UNL     1     -10.286  -7.571  17.183  0.00  0.00    -0.004 A 
ATOM     19  C   UNL     1     -10.064  -8.336  16.965  0.00  0.00    +0.004 A 
ENDBRANCH  11  13
ENDBRANCH   7   8
ENDBRANCH   6   7
BRANCH  23  24
ATOM     24  C   UNL     1      -5.833  -9.902  13.795  0.00  0.00    +0.076 C 
BRANCH  24  25
ATOM     25  N   UNL     1      -5.642  -9.849  12.995  0.00  0.00    -0.269 NA
ATOM     26  C   UNL     1      -5.753  -9.138  12.590  0.00  0.00    +0.094 C 
ATOM     27  C   UNL     1      -5.562  -9.085  11.789  0.00  0.00    +0.111 C 
ATOM     28  N   UNL     1      -5.259  -9.743  11.394  0.00  0.00    -0.275 N 
ATOM     29  C   UNL     1      -5.148 -10.453  11.798  0.00  0.00    +0.111 C 
ATOM     30  C   UNL     1      -5.340 -10.506  12.599  0.00  0.00    +0.094 C 
ATOM     31  C   UNL     1      -5.068  -9.690  10.592  0.00  0.00    +0.220 A 
ATOM     32  N   UNL     1      -5.179  -8.979  10.188  0.00  0.00    -0.212 NA
ATOM     33  C   UNL     1      -4.987  -8.926   9.387  0.00  0.00    +0.103 A 
ATOM     34  C   UNL     1      -4.685  -9.584   8.991  0.00  0.00    +0.041 A 
ATOM     35  C   UNL     1      -4.574 -10.294   9.396  0.00  0.00    +0.103 A 
ATOM     36  N   UNL     1      -4.765 -10.347  10.196  0.00  0.00    -0.212 NA
ENDBRANCH  24  25
ENDBRANCH  23  24
TORSDOF 6
ENDMDL
MODEL 10
REMARK VINA RESULT:      -4.8     16.068     18.409
REMARK  Name = 
REMARK  6 active torsions:
REMARK  status: ('A' for Active; 'I' for Inactive)
REMARK    1  A    between atoms: C_2  and  C_4
REMARK    2  A    between atoms: C_6  and  C_7
REMARK    3  A    between atoms: C_7  and  C_8
REMARK    4  A    between atoms: C_11  and  C_13
REMARK    5  A    between atoms: C_23  and  C_24
REMARK    6  A    between atoms: C_24  and  N_25
REMARK                            x       y       z     vdW  Elec       q    Type
REMARK                         _______ _______ _______ _____ _____    ______ ____
ROOT
ATOM      4  C   UNL     1      -9.101 -10.106  12.107  0.00  0.00    +0.006 C 
ATOM      5  C   UNL     1      -9.331 -10.351  12.860  0.00  0.00    +0.005 C 
ATOM      6  C   UNL     1      -8.760 -10.534  13.427  0.00  0.00    +0.027 C 
ATOM     20  C   UNL     1      -7.959 -10.471  13.241  0.00  0.00    -0.048 C 
ATOM     21  C   UNL     1      -7.387 -10.653  13.807  0.00  0.00    +0.026 C 
ATOM     22  C   UNL     1      -7.728 -10.226  12.487  0.00  0.00    -0.034 C 
ATOM     23  C   UNL     1      -8.300 -10.043  11.920  0.00  0.00    +0.037 C 
ENDROOT
BRANCH   4   2
ATOM      1  C   UNL     1     -10.129 -10.524  11.207  0.00  0.00    +0.000 C 
ATOM      2  C   UNL     1      -9.671  -9.924  11.541  0.00  0.00    +0.000 C 
ATOM      3  C   UNL     1      -9.785  -9.140  11.307  0.00  0.00    +0.000 C 
ENDBRANCH   4   2
BRANCH   6   7
ATOM      7  C   UNL     1      -8.990 -10.778  14.180  0.00  0.00    +0.091 C 
BRANCH   7   8
ATOM      8  C   UNL     1      -9.560 -10.351  14.597  0.00  0.00    +0.227 A 
ATOM      9  N   UNL     1     -10.352 -10.563  14.690  0.00  0.00    -0.111 NA
ATOM     10  N   UNL     1     -10.720  -9.980  15.144  0.00  0.00    -0.107 NA
ATOM     11  C   UNL     1     -10.155  -9.409  15.331  0.00  0.00    +0.250 A 
ATOM     12  O   UNL     1      -9.438  -9.638  14.992  0.00  0.00    -0.420 OA
BRANCH  11  13
ATOM     13  C   UNL     1     -10.283  -8.727  15.778  0.00  0.00    +0.055 A 
ATOM     14  C   UNL     1     -10.590  -8.051  15.419  0.00  0.00    +0.004 A 
ATOM     15  C   UNL     1     -10.719  -7.368  15.864  0.00  0.00    -0.004 A 
ATOM     16  C   UNL     1     -10.541  -7.364  16.671  0.00  0.00    -0.022 A 
ATOM     17  C   UNL     1     -10.670  -6.682  17.117  0.00  0.00    +0.031 C 
ATOM     18  C   UNL     1     -10.235  -8.040  17.030  0.00  0.00    -0.004 A 
ATOM     19  C   UNL     1     -10.106  -8.722  16.583  0.00  0.00    +0.004 A 
ENDBRANCH  11  13
ENDBRANCH   7   8
ENDBRANCH   6   7
BRANCH  23  24
ATOM     24  C   UNL     1      -8.069  -9.798  11.167  0.00  0.00    +0.076 C 
BRANCH  24  25
ATOM     25  N   UNL     1      -7.270  -9.769  10.970  0.00  0.00    -0.269 NA
ATOM     26  C   UNL     1      -6.817  -9.110  11.174  0.00  0.00    +0.094 C 
ATOM     27  C   UNL     1      -6.017  -9.081  10.976  0.00  0.00    +0.111 C 
ATOM     28  N   UNL     1      -5.669  -9.712  10.574  0.00  0.00    -0.275 N 
ATOM     29  C   UNL     1      -6.120 -10.371  10.370  0.00  0.00    +0.111 C 
ATOM     30  C   UNL     1      -6.921 -10.400  10.568  0.00  0.00    +0.094 C 
ATOM     31  C   UNL     1      -4.867  -9.683  10.376  0.00  0.00    +0.220 A 
ATOM     32  N   UNL     1      -4.416  -9.023  10.580  0.00  0.00    -0.212 NA
ATOM     33  C   UNL     1      -3.616  -8.994  10.382  0.00  0.00    +0.103 A 
ATOM     34  C   UNL     1      -3.267  -9.625   9.980  0.00  0.00    +0.041 A 
ATOM     35  C   UNL     1      -3.719 -10.285   9.777  0.00  0.00    +0.103 A 
ATOM     36  N   UNL     1      -4.519 -10.313   9.974  0.00  0.00    -0.212 NA
ENDBRANCH  24  25
ENDBRANCH  23  24
TORSDOF 6
ENDMDL
