MODEL 1
REMARK VINA RESULT:      -9.8      0.000      0.000
REMARK  Name = 
REMARK  6 active torsions:
REMARK  status: ('A' for Active; 'I' for Inactive)
REMARK    1  A    between atoms: C_2  and  N_4
REMARK    2  A    between atoms: C_13  and  N_15
REMARK    3  A    between atoms: C_16  and  C_18
REMARK    4  A    between atoms: C_21  and  O_22
REMARK    5  A    between atoms: O_22  and  C_23
REMARK    6  A    between atoms: C_23  and  C_24
REMARK                            x       y       z     vdW  Elec       q    Type
REMARK                         _______ _______ _______ _____ _____    ______ ____
ROOT
ATOM      4  N   UNL     1      -2.352   4.585  25.221  0.00  0.00    -0.190 NA
ATOM      5  C   UNL     1      -2.580   3.792  25.219  0.00  0.00    +0.323 C 
ATOM      6  O   UNL     1      -2.010   3.199  25.158  0.00  0.00    -0.251 OA
ATOM      7  N   UNL     1      -3.378   3.593  25.278  0.00  0.00    -0.261 N 
ATOM      8  C   UNL     1      -3.903   4.227  25.337  0.00  0.00    +0.095 C 
ATOM      9  C   UNL     1      -4.725   4.210  25.403  0.00  0.00    +0.024 C 
ATOM     10  C   UNL     1      -5.226   3.555  25.426  0.00  0.00    +0.037 C 
ATOM     11  C   UNL     1      -5.029   2.755  25.389  0.00  0.00    +0.174 C 
ATOM     12  O   UNL     1      -5.663   2.228  25.427  0.00  0.00    -0.221 OA
ATOM     13  C   UNL     1      -4.281   2.412  25.320  0.00  0.00    +0.146 C 
ATOM     14  C   UNL     1      -3.547   2.784  25.271  0.00  0.00    +0.119 C 
ENDROOT
BRANCH   4   2
ATOM      1  C   UNL     1      -1.335   5.549  24.941  0.00  0.00    +0.023 C 
ATOM      2  C   UNL     1      -1.554   4.784  25.162  0.00  0.00    +0.097 C 
ATOM      3  C   UNL     1      -0.974   4.220  25.323  0.00  0.00    +0.023 C 
ENDBRANCH   4   2
BRANCH  13  15
ATOM     15  N   UNL     1      -4.266   1.587  25.298  0.00  0.00    -0.199 NA
ATOM     16  C   UNL     1      -4.035   1.198  24.608  0.00  0.00    +0.265 C 
ATOM     17  O   UNL     1      -3.818   1.632  23.942  0.00  0.00    -0.268 OA
BRANCH  16  18
ATOM     18  C   UNL     1      -4.020   0.373  24.586  0.00  0.00    +0.055 A 
ATOM     19  C   UNL     1      -3.834  -0.054  25.266  0.00  0.00    +0.008 A 
ATOM     20  C   UNL     1      -3.819  -0.879  25.243  0.00  0.00    +0.037 A 
ATOM     21  C   UNL     1      -3.990  -1.276  24.541  0.00  0.00    +0.139 A 
ATOM     27  C   UNL     1      -4.176  -0.847  23.860  0.00  0.00    +0.037 A 
ATOM     28  C   UNL     1      -4.191  -0.023  23.882  0.00  0.00    +0.008 A 
BRANCH  21  22
ATOM     22  O   UNL     1      -3.975  -2.100  24.518  0.00  0.00    -0.466 OA
BRANCH  22  23
ATOM     23  C   UNL     1      -3.307  -2.508  24.776  0.00  0.00    +0.293 C 
BRANCH  23  24
ATOM     24  C   UNL     1      -3.095  -3.221  24.420  0.00  0.00    +0.305 C 
ATOM     25  N   UNL     1      -2.312  -3.354  24.196  0.00  0.00    -0.085 NA
ATOM     26  O   UNL     1      -3.666  -3.802  24.287  0.00  0.00    -0.268 OA
ENDBRANCH  23  24
ENDBRANCH  22  23
ENDBRANCH  21  22
ENDBRANCH  16  18
ENDBRANCH  13  15
TORSDOF 6
ENDMDL
MODEL 2
REMARK VINA RESULT:      -9.7      3.056      4.163
REMARK  Name = 
REMARK  6 active torsions:
REMARK  status: ('A' for Active; 'I' for Inactive)
REMARK    1  A    between atoms: C_2  and  N_4
REMARK    2  A    between atoms: C_13  and  N_15
REMARK    3  A    between atoms: C_16  and  C_18
REMARK    4  A    between atoms: C_21  and  O_22
REMARK    5  A    between atoms: O_22  and  C_23
REMARK    6  A    between atoms: C_23  and  C_24
REMARK                            x       y       z     vdW  Elec       q    Type
REMARK                         _______ _______ _______ _____ _____    ______ ____
ROOT
ATOM      4  N   UNL     1      -5.131   2.615  25.560  0.00  0.00    -0.190 NA
ATOM      5  C   UNL     1      -4.418   2.373  25.222  0.00  0.00    +0.323 C 
ATOM      6  O   UNL     1      -4.371   1.647  24.835  0.00  0.00    -0.251 OA
ATOM      7  N   UNL     1      -3.753   2.859  25.272  0.00  0.00    -0.261 N 
ATOM      8  C   UNL     1      -3.860   3.574  25.671  0.00  0.00    +0.095 C 
ATOM      9  C   UNL     1      -3.309   4.171  25.813  0.00  0.00    +0.024 C 
ATOM     10  C   UNL     1      -2.515   4.202  25.590  0.00  0.00    +0.037 C 
ATOM     11  C   UNL     1      -2.075   3.643  25.171  0.00  0.00    +0.174 C 
ATOM     12  O   UNL     1      -1.286   3.838  25.034  0.00  0.00    -0.221 OA
ATOM     13  C   UNL     1      -2.322   2.915  24.871  0.00  0.00    +0.146 C 
ATOM     14  C   UNL     1      -3.068   2.566  24.916  0.00  0.00    +0.119 C 
ENDROOT
BRANCH   4   2
ATOM      1  C   UNL     1      -6.078   1.746  26.185  0.00  0.00    +0.023 C 
ATOM      2  C   UNL     1      -5.796   2.130  25.510  0.00  0.00    +0.097 C 
ATOM      3  C   UNL     1      -6.179   2.026  24.787  0.00  0.00    +0.023 C 
ENDBRANCH   4   2
BRANCH  13  15
ATOM     15  N   UNL     1      -1.746   2.478  24.474  0.00  0.00    -0.199 NA
ATOM     16  C   UNL     1      -1.415   1.811  24.830  0.00  0.00    +0.265 C 
ATOM     17  O   UNL     1      -1.660   1.581  25.583  0.00  0.00    -0.268 OA
BRANCH  16  18
ATOM     18  C   UNL     1      -0.839   1.374  24.433  0.00  0.00    +0.055 A 
ATOM     19  C   UNL     1      -0.041   1.514  24.582  0.00  0.00    +0.008 A 
ATOM     20  C   UNL     1       0.535   1.078  24.184  0.00  0.00    +0.037 A 
ATOM     21  C   UNL     1       0.313   0.501  23.638  0.00  0.00    +0.139 A 
ATOM     27  C   UNL     1      -0.487   0.361  23.490  0.00  0.00    +0.037 A 
ATOM     28  C   UNL     1      -1.063   0.797  23.887  0.00  0.00    +0.008 A 
BRANCH  21  22
ATOM     22  O   UNL     1       0.889   0.064  23.241  0.00  0.00    -0.466 OA
BRANCH  22  23
ATOM     23  C   UNL     1       1.469   0.451  22.801  0.00  0.00    +0.293 C 
BRANCH  23  24
ATOM     24  C   UNL     1       2.002   0.014  22.347  0.00  0.00    +0.305 C 
ATOM     25  N   UNL     1       2.789  -0.055  22.588  0.00  0.00    -0.085 NA
ATOM     26  O   UNL     1       1.750  -0.353  21.653  0.00  0.00    -0.268 OA
ENDBRANCH  23  24
ENDBRANCH  22  23
ENDBRANCH  21  22
ENDBRANCH  16  18
ENDBRANCH  13  15
TORSDOF 6
ENDMDL
MODEL 3
REMARK VINA RESULT:      -9.7      3.277      4.115
REMARK  Name = 
REMARK  6 active torsions:
REMARK  status: ('A' for Active; 'I' for Inactive)
REMARK    1  A    between atoms: C_2  and  N_4
REMARK    2  A    between atoms: C_13  and  N_15
REMARK    3  A    between atoms: C_16  and  C_18
REMARK    4  A    between atoms: C_21  and  O_22
REMARK    5  A    between atoms: O_22  and  C_23
REMARK    6  A    between atoms: C_23  and  C_24
REMARK                            x       y       z     vdW  Elec       q    Type
REMARK                         _______ _______ _______ _____ _____    ______ ____
ROOT
ATOM      4  N   UNL     1      -4.571   2.712  25.386  0.00  0.00    -0.190 NA
ATOM      5  C   UNL     1      -3.915   2.340  25.049  0.00  0.00    +0.323 C 
ATOM      6  O   UNL     1      -3.245   2.781  24.858  0.00  0.00    -0.251 OA
ATOM      7  N   UNL     1      -3.931   1.529  24.904  0.00  0.00    -0.261 N 
ATOM      8  C   UNL     1      -4.628   1.140  25.115  0.00  0.00    +0.095 C 
ATOM      9  C   UNL     1      -4.813   0.339  25.041  0.00  0.00    +0.024 C 
ATOM     10  C   UNL     1      -4.348  -0.270  24.737  0.00  0.00    +0.037 C 
ATOM     11  C   UNL     1      -3.582  -0.231  24.432  0.00  0.00    +0.174 C 
ATOM     12  O   UNL     1      -3.264  -0.945  24.169  0.00  0.00    -0.221 OA
ATOM     13  C   UNL     1      -3.092   0.429  24.356  0.00  0.00    +0.146 C 
ATOM     14  C   UNL     1      -3.248   1.212  24.566  0.00  0.00    +0.119 C 
ENDROOT
BRANCH   4   2
ATOM      1  C   UNL     1      -5.025   4.032  25.081  0.00  0.00    +0.023 C 
ATOM      2  C   UNL     1      -4.555   3.523  25.531  0.00  0.00    +0.097 C 
ATOM      3  C   UNL     1      -4.070   3.828  26.125  0.00  0.00    +0.023 C 
ENDBRANCH   4   2
BRANCH  13  15
ATOM     15  N   UNL     1      -2.349   0.288  24.027  0.00  0.00    -0.199 NA
ATOM     16  C   UNL     1      -1.679   0.288  24.507  0.00  0.00    +0.265 C 
ATOM     17  O   UNL     1      -1.750   0.429  25.316  0.00  0.00    -0.268 OA
BRANCH  16  18
ATOM     18  C   UNL     1      -0.936   0.146  24.178  0.00  0.00    +0.055 A 
ATOM     19  C   UNL     1      -0.535   0.753  23.790  0.00  0.00    +0.008 A 
ATOM     20  C   UNL     1       0.208   0.611  23.460  0.00  0.00    +0.037 A 
ATOM     21  C   UNL     1       0.550  -0.138  23.519  0.00  0.00    +0.139 A 
ATOM     27  C   UNL     1       0.148  -0.745  23.908  0.00  0.00    +0.037 A 
ATOM     28  C   UNL     1      -0.595  -0.603  24.238  0.00  0.00    +0.008 A 
BRANCH  21  22
ATOM     22  O   UNL     1       1.293  -0.279  23.190  0.00  0.00    -0.466 OA
BRANCH  22  23
ATOM     23  C   UNL     1       1.682   0.319  22.777  0.00  0.00    +0.293 C 
BRANCH  23  24
ATOM     24  C   UNL     1       2.395   0.160  22.394  0.00  0.00    +0.305 C 
ATOM     25  N   UNL     1       3.112   0.307  22.777  0.00  0.00    -0.085 NA
ATOM     26  O   UNL     1       2.392  -0.146  21.628  0.00  0.00    -0.268 OA
ENDBRANCH  23  24
ENDBRANCH  22  23
ENDBRANCH  21  22
ENDBRANCH  16  18
ENDBRANCH  13  15
TORSDOF 6
ENDMDL
MODEL 4
REMARK VINA RESULT:      -9.4      2.890      5.126
REMARK  Name = 
REMARK  6 active torsions:
REMARK  status: ('A' for Active; 'I' for Inactive)
REMARK    1  A    between atoms: C_2  and  N_4
REMARK    2  A    between atoms: C_13  and  N_15
REMARK    3  A    between atoms: C_16  and  C_18
REMARK    4  A    between atoms: C_21  and  O_22
REMARK    5  A    between atoms: O_22  and  C_23
REMARK    6  A    between atoms: C_23  and  C_24
REMARK                            x       y       z     vdW  Elec       q    Type
REMARK                         _______ _______ _______ _____ _____    ______ ____
ROOT
ATOM      4  N   UNL     1       0.860  -0.441  23.379  0.00  0.00    -0.190 NA
ATOM      5  C   UNL     1       0.179  -0.054  23.640  0.00  0.00    +0.323 C 
ATOM      6  O   UNL     1      -0.018   0.686  23.335  0.00  0.00    -0.251 OA
ATOM      7  N   UNL     1      -0.305  -0.409  24.206  0.00  0.00    -0.261 N 
ATOM      8  C   UNL     1      -0.059  -1.149  24.475  0.00  0.00    +0.095 C 
ATOM      9  C   UNL     1      -0.418  -1.640  25.032  0.00  0.00    +0.024 C 
ATOM     10  C   UNL     1      -1.112  -1.511  25.459  0.00  0.00    +0.037 C 
ATOM     11  C   UNL     1      -1.619  -0.860  25.434  0.00  0.00    +0.174 C 
ATOM     12  O   UNL     1      -2.275  -0.898  25.933  0.00  0.00    -0.221 OA
ATOM     13  C   UNL     1      -1.557  -0.177  24.975  0.00  0.00    +0.146 C 
ATOM     14  C   UNL     1      -0.972   0.024  24.429  0.00  0.00    +0.119 C 
ENDROOT
BRANCH   4   2
ATOM      1  C   UNL     1       1.269  -0.296  22.018  0.00  0.00    +0.023 C 
ATOM      2  C   UNL     1       1.343  -0.086  22.813  0.00  0.00    +0.097 C 
ATOM      3  C   UNL     1       1.900   0.479  23.040  0.00  0.00    +0.023 C 
ENDBRANCH   4   2
BRANCH  13  15
ATOM     15  N   UNL     1      -2.158   0.378  25.076  0.00  0.00    -0.199 NA
ATOM     16  C   UNL     1      -2.742   0.464  24.499  0.00  0.00    +0.265 C 
ATOM     17  O   UNL     1      -2.724  -0.006  23.821  0.00  0.00    -0.268 OA
BRANCH  16  18
ATOM     18  C   UNL     1      -3.343   1.019  24.600  0.00  0.00    +0.055 A 
ATOM     19  C   UNL     1      -4.103   0.771  24.803  0.00  0.00    +0.008 A 
ATOM     20  C   UNL     1      -4.704   1.327  24.904  0.00  0.00    +0.037 A 
ATOM     21  C   UNL     1      -4.546   2.130  24.802  0.00  0.00    +0.139 A 
ATOM     27  C   UNL     1      -3.785   2.378  24.598  0.00  0.00    +0.037 A 
ATOM     28  C   UNL     1      -3.184   1.822  24.497  0.00  0.00    +0.008 A 
BRANCH  21  22
ATOM     22  O   UNL     1      -5.148   2.685  24.903  0.00  0.00    -0.466 OA
BRANCH  22  23
ATOM     23  C   UNL     1      -5.107   3.229  25.522  0.00  0.00    +0.293 C 
BRANCH  23  24
ATOM     24  C   UNL     1      -5.774   3.669  25.728  0.00  0.00    +0.305 C 
ATOM     25  N   UNL     1      -5.804   4.477  25.557  0.00  0.00    -0.085 NA
ATOM     26  O   UNL     1      -6.410   3.305  26.105  0.00  0.00    -0.268 OA
ENDBRANCH  23  24
ENDBRANCH  22  23
ENDBRANCH  21  22
ENDBRANCH  16  18
ENDBRANCH  13  15
TORSDOF 6
ENDMDL
MODEL 5
REMARK VINA RESULT:      -8.4      2.282      6.319
REMARK  Name = 
REMARK  6 active torsions:
REMARK  status: ('A' for Active; 'I' for Inactive)
REMARK    1  A    between atoms: C_2  and  N_4
REMARK    2  A    between atoms: C_13  and  N_15
REMARK    3  A    between atoms: C_16  and  C_18
REMARK    4  A    between atoms: C_21  and  O_22
REMARK    5  A    between atoms: O_22  and  C_23
REMARK    6  A    between atoms: C_23  and  C_24
REMARK                            x       y       z     vdW  Elec       q    Type
REMARK                         _______ _______ _______ _____ _____    ______ ____
ROOT
ATOM      4  N   UNL     1      -2.892  -2.501  24.391  0.00  0.00    -0.190 NA
ATOM      5  C   UNL     1      -2.674  -1.708  24.455  0.00  0.00    +0.323 C 
ATOM      6  O   UNL     1      -3.252  -1.127  24.539  0.00  0.00    -0.251 OA
ATOM      7  N   UNL     1      -1.877  -1.497  24.436  0.00  0.00    -0.261 N 
ATOM      8  C   UNL     1      -1.343  -2.121  24.351  0.00  0.00    +0.095 C 
ATOM      9  C   UNL     1      -0.519  -2.092  24.314  0.00  0.00    +0.024 C 
ATOM     10  C   UNL     1      -0.026  -1.432  24.352  0.00  0.00    +0.037 C 
ATOM     11  C   UNL     1      -0.233  -0.638  24.438  0.00  0.00    +0.174 C 
ATOM     12  O   UNL     1       0.395  -0.104  24.458  0.00  0.00    -0.221 OA
ATOM     13  C   UNL     1      -0.987  -0.308  24.506  0.00  0.00    +0.146 C 
ATOM     14  C   UNL     1      -1.718  -0.690  24.506  0.00  0.00    +0.119 C 
ENDROOT
BRANCH   4   2
ATOM      1  C   UNL     1      -4.208  -2.411  23.842  0.00  0.00    +0.023 C 
ATOM      2  C   UNL     1      -3.689  -2.712  24.409  0.00  0.00    +0.097 C 
ATOM      3  C   UNL     1      -3.969  -3.222  24.994  0.00  0.00    +0.023 C 
ENDBRANCH   4   2
BRANCH  13  15
ATOM     15  N   UNL     1      -1.012   0.513  24.586  0.00  0.00    -0.199 NA
ATOM     16  C   UNL     1      -1.197   0.851  25.315  0.00  0.00    +0.265 C 
ATOM     17  O   UNL     1      -1.357   0.369  25.965  0.00  0.00    -0.268 OA
BRANCH  16  18
ATOM     18  C   UNL     1      -1.223   1.672  25.395  0.00  0.00    +0.055 A 
ATOM     19  C   UNL     1      -1.838   2.100  25.052  0.00  0.00    +0.008 A 
ATOM     20  C   UNL     1      -1.864   2.921  25.131  0.00  0.00    +0.037 A 
ATOM     21  C   UNL     1      -1.273   3.313  25.553  0.00  0.00    +0.139 A 
ATOM     27  C   UNL     1      -0.657   2.884  25.896  0.00  0.00    +0.037 A 
ATOM     28  C   UNL     1      -0.632   2.063  25.817  0.00  0.00    +0.008 A 
BRANCH  21  22
ATOM     22  O   UNL     1      -1.299   4.134  25.633  0.00  0.00    -0.466 OA
BRANCH  22  23
ATOM     23  C   UNL     1      -1.407   4.609  24.968  0.00  0.00    +0.293 C 
BRANCH  23  24
ATOM     24  C   UNL     1      -1.324   5.428  25.028  0.00  0.00    +0.305 C 
ATOM     25  N   UNL     1      -0.646   5.797  24.734  0.00  0.00    -0.085 NA
ATOM     26  O   UNL     1      -1.918   5.878  25.381  0.00  0.00    -0.268 OA
ENDBRANCH  23  24
ENDBRANCH  22  23
ENDBRANCH  21  22
ENDBRANCH  16  18
ENDBRANCH  13  15
TORSDOF 6
ENDMDL
MODEL 6
REMARK VINA RESULT:      -7.7      1.939      2.928
REMARK  Name = 
REMARK  6 active torsions:
REMARK  status: ('A' for Active; 'I' for Inactive)
REMARK    1  A    between atoms: C_2  and  N_4
REMARK    2  A    between atoms: C_13  and  N_15
REMARK    3  A    between atoms: C_16  and  C_18
REMARK    4  A    between atoms: C_21  and  O_22
REMARK    5  A    between atoms: O_22  and  C_23
REMARK    6  A    between atoms: C_23  and  C_24
REMARK                            x       y       z     vdW  Elec       q    Type
REMARK                         _______ _______ _______ _____ _____    ______ ____
ROOT
ATOM      4  N   UNL     1      -1.165   4.363  25.063  0.00  0.00    -0.190 NA
ATOM      5  C   UNL     1      -1.431   3.591  24.939  0.00  0.00    +0.323 C 
ATOM      6  O   UNL     1      -2.226   3.406  25.052  0.00  0.00    -0.251 OA
ATOM      7  N   UNL     1      -0.901   3.006  24.701  0.00  0.00    -0.261 N 
ATOM      8  C   UNL     1      -0.118   3.249  24.603  0.00  0.00    +0.095 C 
ATOM      9  C   UNL     1       0.535   2.801  24.373  0.00  0.00    +0.024 C 
ATOM     10  C   UNL     1       0.567   1.999  24.184  0.00  0.00    +0.037 C 
ATOM     11  C   UNL     1      -0.045   1.446  24.177  0.00  0.00    +0.174 C 
ATOM     12  O   UNL     1       0.167   0.679  23.961  0.00  0.00    -0.221 OA
ATOM     13  C   UNL     1      -0.843   1.560  24.359  0.00  0.00    +0.146 C 
ATOM     14  C   UNL     1      -1.223   2.253  24.592  0.00  0.00    +0.119 C 
ENDROOT
BRANCH   4   2
ATOM      1  C   UNL     1      -1.622   5.715  25.004  0.00  0.00    +0.023 C 
ATOM      2  C   UNL     1      -1.695   4.948  25.300  0.00  0.00    +0.097 C 
ATOM      3  C   UNL     1      -2.298   4.768  25.834  0.00  0.00    +0.023 C 
ENDBRANCH   4   2
BRANCH  13  15
ATOM     15  N   UNL     1      -1.322   0.891  24.300  0.00  0.00    -0.199 NA
ATOM     16  C   UNL     1      -1.597   0.519  24.984  0.00  0.00    +0.265 C 
ATOM     17  O   UNL     1      -1.392   0.815  25.726  0.00  0.00    -0.268 OA
BRANCH  16  18
ATOM     18  C   UNL     1      -2.076  -0.150  24.925  0.00  0.00    +0.055 A 
ATOM     19  C   UNL     1      -2.858  -0.075  24.676  0.00  0.00    +0.008 A 
ATOM     20  C   UNL     1      -3.338  -0.744  24.618  0.00  0.00    +0.037 A 
ATOM     21  C   UNL     1      -3.035  -1.487  24.807  0.00  0.00    +0.139 A 
ATOM     27  C   UNL     1      -2.251  -1.561  25.057  0.00  0.00    +0.037 A 
ATOM     28  C   UNL     1      -1.772  -0.893  25.116  0.00  0.00    +0.008 A 
BRANCH  21  22
ATOM     22  O   UNL     1      -3.515  -2.156  24.749  0.00  0.00    -0.466 OA
BRANCH  22  23
ATOM     23  C   UNL     1      -3.854  -2.357  24.025  0.00  0.00    +0.293 C 
BRANCH  23  24
ATOM     24  C   UNL     1      -4.223  -3.089  23.932  0.00  0.00    +0.305 C 
ATOM     25  N   UNL     1      -4.927  -3.145  23.505  0.00  0.00    -0.085 NA
ATOM     26  O   UNL     1      -3.888  -3.766  24.265  0.00  0.00    -0.268 OA
ENDBRANCH  23  24
ENDBRANCH  22  23
ENDBRANCH  21  22
ENDBRANCH  16  18
ENDBRANCH  13  15
TORSDOF 6
ENDMDL
MODEL 7
REMARK VINA RESULT:      -5.9     16.460     19.364
REMARK  Name = 
REMARK  6 active torsions:
REMARK  status: ('A' for Active; 'I' for Inactive)
REMARK    1  A    between atoms: C_2  and  N_4
REMARK    2  A    between atoms: C_13  and  N_15
REMARK    3  A    between atoms: C_16  and  C_18
REMARK    4  A    between atoms: C_21  and  O_22
REMARK    5  A    between atoms: O_22  and  C_23
REMARK    6  A    between atoms: C_23  and  C_24
REMARK                            x       y       z     vdW  Elec       q    Type
REMARK                         _______ _______ _______ _____ _____    ______ ____
ROOT
ATOM      4  N   UNL     1      16.509   6.262  18.594  0.00  0.00    -0.190 NA
ATOM      5  C   UNL     1      15.839   6.603  18.934  0.00  0.00    +0.323 C 
ATOM      6  O   UNL     1      15.744   6.597  19.753  0.00  0.00    -0.251 OA
ATOM      7  N   UNL     1      15.265   6.951  18.455  0.00  0.00    -0.261 N 
ATOM      8  C   UNL     1      15.414   6.927  17.643  0.00  0.00    +0.095 C 
ATOM      9  C   UNL     1      14.953   7.223  17.026  0.00  0.00    +0.024 C 
ATOM     10  C   UNL     1      14.229   7.616  17.069  0.00  0.00    +0.037 C 
ATOM     11  C   UNL     1      13.786   7.810  17.738  0.00  0.00    +0.174 C 
ATOM     12  O   UNL     1      13.077   8.208  17.596  0.00  0.00    -0.221 OA
ATOM     13  C   UNL     1      13.960   7.659  18.531  0.00  0.00    +0.146 C 
ATOM     14  C   UNL     1      14.617   7.277  18.849  0.00  0.00    +0.119 C 
ENDROOT
BRANCH   4   2
ATOM      1  C   UNL     1      17.404   6.339  19.705  0.00  0.00    +0.023 C 
ATOM      2  C   UNL     1      17.082   5.914  19.074  0.00  0.00    +0.097 C 
ATOM      3  C   UNL     1      17.335   5.143  18.925  0.00  0.00    +0.023 C 
ENDBRANCH   4   2
BRANCH  13  15
ATOM     15  N   UNL     1      13.401   7.925  19.077  0.00  0.00    -0.199 NA
ATOM     16  C   UNL     1      12.916   7.384  19.467  0.00  0.00    +0.265 C 
ATOM     17  O   UNL     1      12.988   6.578  19.312  0.00  0.00    -0.268 OA
BRANCH  16  18
ATOM     18  C   UNL     1      12.357   7.650  20.012  0.00  0.00    +0.055 A 
ATOM     19  C   UNL     1      12.430   7.449  20.808  0.00  0.00    +0.008 A 
ATOM     20  C   UNL     1      11.872   7.715  21.354  0.00  0.00    +0.037 A 
ATOM     21  C   UNL     1      11.240   8.183  21.104  0.00  0.00    +0.139 A 
ATOM     27  C   UNL     1      11.167   8.384  20.306  0.00  0.00    +0.037 A 
ATOM     28  C   UNL     1      11.725   8.118  19.761  0.00  0.00    +0.008 A 
BRANCH  21  22
ATOM     22  O   UNL     1      10.681   8.449  21.649  0.00  0.00    -0.466 OA
BRANCH  22  23
ATOM     23  C   UNL     1      10.927   8.762  22.371  0.00  0.00    +0.293 C 
BRANCH  23  24
ATOM     24  C   UNL     1      10.386   8.852  22.987  0.00  0.00    +0.305 C 
ATOM     25  N   UNL     1       9.585   8.701  22.858  0.00  0.00    -0.085 NA
ATOM     26  O   UNL     1      10.645   9.094  23.732  0.00  0.00    -0.268 OA
ENDBRANCH  23  24
ENDBRANCH  22  23
ENDBRANCH  21  22
ENDBRANCH  16  18
ENDBRANCH  13  15
TORSDOF 6
ENDMDL
