MODEL 1
REMARK VINA RESULT:     -10.5      0.000      0.000
REMARK  Name = 
REMARK  5 active torsions:
REMARK  status: ('A' for Active; 'I' for Inactive)
REMARK    1  A    between atoms: O_2  and  C_3
REMARK    2  A    between atoms: C_6  and  O_7
REMARK    3  A    between atoms: O_7  and  C_8
REMARK    4  A    between atoms: C_15  and  C_17
REMARK    5  A    between atoms: C_17  and  C_18
REMARK                            x       y       z     vdW  Elec       q    Type
REMARK                         _______ _______ _______ _____ _____    ______ ____
ROOT
ATOM      8  C   UNL     1      -4.261   1.567  24.643  0.00  0.00    +0.215 C 
ATOM      9  C   UNL     1      -5.055   1.406  24.799  0.00  0.00    +0.187 C 
ATOM     10  O   UNL     1      -5.595   1.854  25.232  0.00  0.00    -0.348 OA
ATOM     11  C   UNL     1      -5.476   2.574  25.616  0.00  0.00    +0.164 C 
ATOM     12  C   UNL     1      -4.785   3.024  25.661  0.00  0.00    +0.126 C 
ATOM     13  N   UNL     1      -4.045   2.864  25.334  0.00  0.00    -0.273 N 
ATOM     14  C   UNL     1      -3.812   2.216  24.882  0.00  0.00    +0.139 C 
ATOM     15  C   UNL     1      -3.460   3.428  25.481  0.00  0.00    +0.226 C 
ATOM     16  O   UNL     1      -3.636   4.098  25.928  0.00  0.00    -0.275 OA
ENDROOT
BRANCH   8   7
ATOM      7  O   UNL     1      -3.864   1.004  24.189  0.00  0.00    -0.475 OA
BRANCH   7   6
ATOM      3  C   UNL     1      -3.690  -1.333  24.986  0.00  0.00    +0.139 A 
ATOM      4  C   UNL     1      -3.219  -0.745  25.322  0.00  0.00    +0.040 A 
ATOM      5  C   UNL     1      -3.277   0.033  25.057  0.00  0.00    +0.040 A 
ATOM      6  C   UNL     1      -3.806   0.225  24.454  0.00  0.00    +0.139 A 
ATOM     22  C   UNL     1      -4.278  -0.363  24.117  0.00  0.00    +0.040 A 
ATOM     23  C   UNL     1      -4.220  -1.141  24.383  0.00  0.00    +0.040 A 
BRANCH   3   2
ATOM      1  C   UNL     1      -3.240  -2.676  24.794  0.00  0.00    +0.252 C 
ATOM      2  O   UNL     1      -3.632  -2.112  25.251  0.00  0.00    -0.471 OA
ENDBRANCH   3   2
ENDBRANCH   7   6
ENDBRANCH   8   7
BRANCH  15  17
ATOM     17  C   UNL     1      -2.700   3.321  25.179  0.00  0.00    +0.085 C 
BRANCH  17  18
ATOM     18  C   UNL     1      -2.122   3.898  25.303  0.00  0.00    +0.009 C 
ATOM     19  C   UNL     1      -1.545   4.473  25.427  0.00  0.00    +0.000 C 
ATOM     20  C   UNL     1      -1.842   3.476  25.955  0.00  0.00    +0.000 C 
ATOM     21  C   UNL     1      -2.402   4.319  24.651  0.00  0.00    +0.000 C 
ENDBRANCH  17  18
ENDBRANCH  15  17
TORSDOF 5
ENDMDL
MODEL 2
REMARK VINA RESULT:     -10.2      1.664      4.653
REMARK  Name = 
REMARK  5 active torsions:
REMARK  status: ('A' for Active; 'I' for Inactive)
REMARK    1  A    between atoms: O_2  and  C_3
REMARK    2  A    between atoms: C_6  and  O_7
REMARK    3  A    between atoms: O_7  and  C_8
REMARK    4  A    between atoms: C_15  and  C_17
REMARK    5  A    between atoms: C_17  and  C_18
REMARK                            x       y       z     vdW  Elec       q    Type
REMARK                         _______ _______ _______ _____ _____    ______ ____
ROOT
ATOM      8  C   UNL     1      -2.563   1.065  23.815  0.00  0.00    +0.215 C 
ATOM      9  C   UNL     1      -1.898   1.548  23.739  0.00  0.00    +0.187 C 
ATOM     10  O   UNL     1      -1.121   1.393  23.970  0.00  0.00    -0.348 OA
ATOM     11  C   UNL     1      -0.817   0.718  24.334  0.00  0.00    +0.164 C 
ATOM     12  C   UNL     1      -1.215   0.031  24.556  0.00  0.00    +0.126 C 
ATOM     13  N   UNL     1      -2.015  -0.151  24.470  0.00  0.00    -0.273 N 
ATOM     14  C   UNL     1      -2.614   0.309  24.140  0.00  0.00    +0.139 C 
ATOM     15  C   UNL     1      -2.246  -0.892  24.752  0.00  0.00    +0.226 C 
ATOM     16  O   UNL     1      -1.689  -1.395  25.092  0.00  0.00    -0.275 OA
ENDROOT
BRANCH   8   7
ATOM      7  O   UNL     1      -3.268   1.380  23.527  0.00  0.00    -0.475 OA
BRANCH   7   6
ATOM      3  C   UNL     1      -4.411   3.194  24.764  0.00  0.00    +0.139 A 
ATOM      4  C   UNL     1      -4.599   2.406  24.920  0.00  0.00    +0.040 A 
ATOM      5  C   UNL     1      -4.218   1.802  24.508  0.00  0.00    +0.040 A 
ATOM      6  C   UNL     1      -3.649   1.985  23.939  0.00  0.00    +0.139 A 
ATOM     22  C   UNL     1      -3.461   2.774  23.784  0.00  0.00    +0.040 A 
ATOM     23  C   UNL     1      -3.841   3.377  24.196  0.00  0.00    +0.040 A 
BRANCH   3   2
ATOM      1  C   UNL     1      -5.455   3.630  25.638  0.00  0.00    +0.252 C 
ATOM      2  O   UNL     1      -4.791   3.799  25.177  0.00  0.00    -0.471 OA
ENDBRANCH   3   2
ENDBRANCH   7   6
ENDBRANCH   8   7
BRANCH  15  17
ATOM     17  C   UNL     1      -3.034  -1.128  24.692  0.00  0.00    +0.085 C 
BRANCH  17  18
ATOM     18  C   UNL     1      -3.265  -1.867  24.979  0.00  0.00    +0.009 C 
ATOM     19  C   UNL     1      -3.496  -2.605  25.264  0.00  0.00    +0.000 C 
ATOM     20  C   UNL     1      -3.149  -2.194  24.230  0.00  0.00    +0.000 C 
ATOM     21  C   UNL     1      -3.381  -1.541  25.727  0.00  0.00    +0.000 C 
ENDBRANCH  17  18
ENDBRANCH  15  17
TORSDOF 5
ENDMDL
MODEL 3
REMARK VINA RESULT:     -10.2      1.578      2.423
REMARK  Name = 
REMARK  5 active torsions:
REMARK  status: ('A' for Active; 'I' for Inactive)
REMARK    1  A    between atoms: O_2  and  C_3
REMARK    2  A    between atoms: C_6  and  O_7
REMARK    3  A    between atoms: O_7  and  C_8
REMARK    4  A    between atoms: C_15  and  C_17
REMARK    5  A    between atoms: C_17  and  C_18
REMARK                            x       y       z     vdW  Elec       q    Type
REMARK                         _______ _______ _______ _____ _____    ______ ____
ROOT
ATOM      8  C   UNL     1      -2.448   0.944  24.648  0.00  0.00    +0.215 C 
ATOM      9  C   UNL     1      -1.909   0.826  24.034  0.00  0.00    +0.187 C 
ATOM     10  O   UNL     1      -1.835   1.243  23.327  0.00  0.00    -0.348 OA
ATOM     11  C   UNL     1      -2.281   1.883  23.058  0.00  0.00    +0.164 C 
ATOM     12  C   UNL     1      -2.912   2.262  23.431  0.00  0.00    +0.126 C 
ATOM     13  N   UNL     1      -3.253   2.095  24.164  0.00  0.00    -0.273 N 
ATOM     14  C   UNL     1      -3.045   1.509  24.705  0.00  0.00    +0.139 C 
ATOM     15  C   UNL     1      -3.883   2.580  24.384  0.00  0.00    +0.226 C 
ATOM     16  O   UNL     1      -4.134   3.183  23.882  0.00  0.00    -0.275 OA
ENDROOT
BRANCH   8   7
ATOM      7  O   UNL     1      -2.379   0.428  25.288  0.00  0.00    -0.475 OA
BRANCH   7   6
ATOM      3  C   UNL     1      -3.139  -1.918  25.077  0.00  0.00    +0.139 A 
ATOM      4  C   UNL     1      -2.368  -1.713  24.868  0.00  0.00    +0.040 A 
ATOM      5  C   UNL     1      -2.115  -0.932  24.938  0.00  0.00    +0.040 A 
ATOM      6  C   UNL     1      -2.632  -0.354  25.218  0.00  0.00    +0.139 A 
ATOM     22  C   UNL     1      -3.404  -0.559  25.428  0.00  0.00    +0.040 A 
ATOM     23  C   UNL     1      -3.657  -1.340  25.357  0.00  0.00    +0.040 A 
BRANCH   3   2
ATOM      1  C   UNL     1      -3.698  -2.972  24.290  0.00  0.00    +0.252 C 
ATOM      2  O   UNL     1      -3.392  -2.700  25.007  0.00  0.00    -0.471 OA
ENDBRANCH   3   2
ENDBRANCH   7   6
ENDBRANCH   8   7
BRANCH  15  17
ATOM     17  C   UNL     1      -4.262   2.460  25.107  0.00  0.00    +0.085 C 
BRANCH  17  18
ATOM     18  C   UNL     1      -4.898   2.940  25.323  0.00  0.00    +0.009 C 
ATOM     19  C   UNL     1      -5.533   3.419  25.540  0.00  0.00    +0.000 C 
ATOM     20  C   UNL     1      -5.423   2.391  24.999  0.00  0.00    +0.000 C 
ATOM     21  C   UNL     1      -4.374   3.487  25.648  0.00  0.00    +0.000 C 
ENDBRANCH  17  18
ENDBRANCH  15  17
TORSDOF 5
ENDMDL
MODEL 4
REMARK VINA RESULT:      -9.8      2.441      3.474
REMARK  Name = 
REMARK  5 active torsions:
REMARK  status: ('A' for Active; 'I' for Inactive)
REMARK    1  A    between atoms: O_2  and  C_3
REMARK    2  A    between atoms: C_6  and  O_7
REMARK    3  A    between atoms: O_7  and  C_8
REMARK    4  A    between atoms: C_15  and  C_17
REMARK    5  A    between atoms: C_17  and  C_18
REMARK                            x       y       z     vdW  Elec       q    Type
REMARK                         _______ _______ _______ _____ _____    ______ ____
ROOT
ATOM      8  C   UNL     1      -0.712  -0.444  24.880  0.00  0.00    +0.215 C 
ATOM      9  C   UNL     1      -0.314  -0.887  24.309  0.00  0.00    +0.187 C 
ATOM     10  O   UNL     1       0.159  -0.620  23.688  0.00  0.00    -0.348 OA
ATOM     11  C   UNL     1       0.351   0.157  23.485  0.00  0.00    +0.164 C 
ATOM     12  C   UNL     1       0.117   0.857  23.853  0.00  0.00    +0.126 C 
ATOM     13  N   UNL     1      -0.366   0.954  24.515  0.00  0.00    -0.273 N 
ATOM     14  C   UNL     1      -0.735   0.375  24.971  0.00  0.00    +0.139 C 
ATOM     15  C   UNL     1      -0.498   1.734  24.750  0.00  0.00    +0.226 C 
ATOM     16  O   UNL     1      -0.155   2.355  24.330  0.00  0.00    -0.275 OA
ENDROOT
BRANCH   8   7
ATOM      7  O   UNL     1      -1.143  -0.879  25.433  0.00  0.00    -0.475 OA
BRANCH   7   6
ATOM      3  C   UNL     1      -3.210  -2.053  24.744  0.00  0.00    +0.139 A 
ATOM      4  C   UNL     1      -2.474  -2.396  24.603  0.00  0.00    +0.040 A 
ATOM      5  C   UNL     1      -1.786  -2.005  24.832  0.00  0.00    +0.040 A 
ATOM      6  C   UNL     1      -1.832  -1.270  25.203  0.00  0.00    +0.139 A 
ATOM     22  C   UNL     1      -2.569  -0.926  25.345  0.00  0.00    +0.040 A 
ATOM     23  C   UNL     1      -3.258  -1.317  25.116  0.00  0.00    +0.040 A 
BRANCH   3   2
ATOM      1  C   UNL     1      -4.295  -2.216  23.827  0.00  0.00    +0.252 C 
ATOM      2  O   UNL     1      -3.899  -2.444  24.515  0.00  0.00    -0.471 OA
ENDBRANCH   3   2
ENDBRANCH   7   6
ENDBRANCH   8   7
BRANCH  15  17
ATOM     17  C   UNL     1      -0.973   1.892  25.405  0.00  0.00    +0.085 C 
BRANCH  17  18
ATOM     18  C   UNL     1      -1.119   2.673  25.630  0.00  0.00    +0.009 C 
ATOM     19  C   UNL     1      -1.264   3.453  25.855  0.00  0.00    +0.000 C 
ATOM     20  C   UNL     1      -0.453   2.656  26.118  0.00  0.00    +0.000 C 
ATOM     21  C   UNL     1      -1.784   2.690  25.143  0.00  0.00    +0.000 C 
ENDBRANCH  17  18
ENDBRANCH  15  17
TORSDOF 5
ENDMDL
MODEL 5
REMARK VINA RESULT:      -9.7      1.725      2.201
REMARK  Name = 
REMARK  5 active torsions:
REMARK  status: ('A' for Active; 'I' for Inactive)
REMARK    1  A    between atoms: O_2  and  C_3
REMARK    2  A    between atoms: C_6  and  O_7
REMARK    3  A    between atoms: O_7  and  C_8
REMARK    4  A    between atoms: C_15  and  C_17
REMARK    5  A    between atoms: C_17  and  C_18
REMARK                            x       y       z     vdW  Elec       q    Type
REMARK                         _______ _______ _______ _____ _____    ______ ____
ROOT
ATOM      8  C   UNL     1      -3.217   1.137  24.352  0.00  0.00    +0.215 C 
ATOM      9  C   UNL     1      -3.533   1.105  23.590  0.00  0.00    +0.187 C 
ATOM     10  O   UNL     1      -3.239   1.443  22.897  0.00  0.00    -0.348 OA
ATOM     11  C   UNL     1      -2.558   1.896  22.794  0.00  0.00    +0.164 C 
ATOM     12  C   UNL     1      -2.002   2.124  23.360  0.00  0.00    +0.126 C 
ATOM     13  N   UNL     1      -1.990   1.954  24.167  0.00  0.00    -0.273 N 
ATOM     14  C   UNL     1      -2.531   1.515  24.608  0.00  0.00    +0.139 C 
ATOM     15  C   UNL     1      -1.352   2.265  24.589  0.00  0.00    +0.226 C 
ATOM     16  O   UNL     1      -0.780   2.713  24.199  0.00  0.00    -0.275 OA
ENDROOT
BRANCH   8   7
ATOM      7  O   UNL     1      -3.646   0.739  24.933  0.00  0.00    -0.475 OA
BRANCH   7   6
ATOM      3  C   UNL     1      -3.615  -1.735  25.018  0.00  0.00    +0.139 A 
ATOM      4  C   UNL     1      -4.098  -1.346  24.474  0.00  0.00    +0.040 A 
ATOM      5  C   UNL     1      -4.108  -0.523  24.445  0.00  0.00    +0.040 A 
ATOM      6  C   UNL     1      -3.635  -0.086  24.961  0.00  0.00    +0.139 A 
ATOM     22  C   UNL     1      -3.152  -0.474  25.507  0.00  0.00    +0.040 A 
ATOM     23  C   UNL     1      -3.142  -1.298  25.535  0.00  0.00    +0.040 A 
BRANCH   3   2
ATOM      1  C   UNL     1      -3.564  -2.996  24.347  0.00  0.00    +0.252 C 
ATOM      2  O   UNL     1      -3.605  -2.559  25.046  0.00  0.00    -0.471 OA
ENDBRANCH   3   2
ENDBRANCH   7   6
ENDBRANCH   8   7
BRANCH  15  17
ATOM     17  C   UNL     1      -1.288   2.128  25.399  0.00  0.00    +0.085 C 
BRANCH  17  18
ATOM     18  C   UNL     1      -0.639   2.420  25.817  0.00  0.00    +0.009 C 
ATOM     19  C   UNL     1       0.010   2.712  26.234  0.00  0.00    +0.000 C 
ATOM     20  C   UNL     1      -0.220   1.729  25.650  0.00  0.00    +0.000 C 
ATOM     21  C   UNL     1      -1.056   3.111  25.983  0.00  0.00    +0.000 C 
ENDBRANCH  17  18
ENDBRANCH  15  17
TORSDOF 5
ENDMDL
MODEL 6
REMARK VINA RESULT:      -9.7      1.357      3.962
REMARK  Name = 
REMARK  5 active torsions:
REMARK  status: ('A' for Active; 'I' for Inactive)
REMARK    1  A    between atoms: O_2  and  C_3
REMARK    2  A    between atoms: C_6  and  O_7
REMARK    3  A    between atoms: O_7  and  C_8
REMARK    4  A    between atoms: C_15  and  C_17
REMARK    5  A    between atoms: C_17  and  C_18
REMARK                            x       y       z     vdW  Elec       q    Type
REMARK                         _______ _______ _______ _____ _____    ______ ____
ROOT
ATOM      8  C   UNL     1      -3.602   2.568  24.457  0.00  0.00    +0.215 C 
ATOM      9  C   UNL     1      -4.050   3.229  24.666  0.00  0.00    +0.187 C 
ATOM     10  O   UNL     1      -4.788   3.255  25.031  0.00  0.00    -0.348 OA
ATOM     11  C   UNL     1      -5.263   2.627  25.279  0.00  0.00    +0.164 C 
ATOM     12  C   UNL     1      -5.114   1.818  25.221  0.00  0.00    +0.126 C 
ATOM     13  N   UNL     1      -4.455   1.436  24.902  0.00  0.00    -0.273 N 
ATOM     14  C   UNL     1      -3.783   1.771  24.562  0.00  0.00    +0.139 C 
ATOM     15  C   UNL     1      -4.472   0.611  24.927  0.00  0.00    +0.226 C 
ATOM     16  O   UNL     1      -5.120   0.222  25.256  0.00  0.00    -0.275 OA
ENDROOT
BRANCH   8   7
ATOM      7  O   UNL     1      -2.878   2.727  24.095  0.00  0.00    -0.475 OA
BRANCH   7   6
ATOM      3  C   UNL     1      -0.847   3.048  25.473  0.00  0.00    +0.139 A 
ATOM      4  C   UNL     1      -1.459   3.600  25.504  0.00  0.00    +0.040 A 
ATOM      5  C   UNL     1      -2.135   3.493  25.046  0.00  0.00    +0.040 A 
ATOM      6  C   UNL     1      -2.201   2.834  24.554  0.00  0.00    +0.139 A 
ATOM     22  C   UNL     1      -1.588   2.281  24.522  0.00  0.00    +0.040 A 
ATOM     23  C   UNL     1      -0.912   2.388  24.981  0.00  0.00    +0.040 A 
BRANCH   3   2
ATOM      1  C   UNL     1       0.144   2.521  26.359  0.00  0.00    +0.252 C 
ATOM      2  O   UNL     1      -0.170   3.155  25.932  0.00  0.00    -0.471 OA
ENDBRANCH   3   2
ENDBRANCH   7   6
ENDBRANCH   8   7
BRANCH  15  17
ATOM     17  C   UNL     1      -3.841   0.177  24.623  0.00  0.00    +0.085 C 
BRANCH  17  18
ATOM     18  C   UNL     1      -3.860  -0.648  24.644  0.00  0.00    +0.009 C 
ATOM     19  C   UNL     1      -3.879  -1.472  24.665  0.00  0.00    +0.000 C 
ATOM     20  C   UNL     1      -3.573  -0.635  25.418  0.00  0.00    +0.000 C 
ATOM     21  C   UNL     1      -4.146  -0.661  23.870  0.00  0.00    +0.000 C 
ENDBRANCH  17  18
ENDBRANCH  15  17
TORSDOF 5
ENDMDL
MODEL 7
REMARK VINA RESULT:      -9.6      1.771      2.987
REMARK  Name = 
REMARK  5 active torsions:
REMARK  status: ('A' for Active; 'I' for Inactive)
REMARK    1  A    between atoms: O_2  and  C_3
REMARK    2  A    between atoms: C_6  and  O_7
REMARK    3  A    between atoms: O_7  and  C_8
REMARK    4  A    between atoms: C_15  and  C_17
REMARK    5  A    between atoms: C_17  and  C_18
REMARK                            x       y       z     vdW  Elec       q    Type
REMARK                         _______ _______ _______ _____ _____    ______ ____
ROOT
ATOM      8  C   UNL     1      -2.287   1.413  24.489  0.00  0.00    +0.215 C 
ATOM      9  C   UNL     1      -2.102   0.649  24.741  0.00  0.00    +0.187 C 
ATOM     10  O   UNL     1      -1.497   0.407  25.246  0.00  0.00    -0.348 OA
ATOM     11  C   UNL     1      -0.927   0.868  25.625  0.00  0.00    +0.164 C 
ATOM     12  C   UNL     1      -0.823   1.686  25.592  0.00  0.00    +0.126 C 
ATOM     13  N   UNL     1      -1.262   2.244  25.171  0.00  0.00    -0.273 N 
ATOM     14  C   UNL     1      -1.913   2.122  24.681  0.00  0.00    +0.139 C 
ATOM     15  C   UNL     1      -1.016   3.028  25.253  0.00  0.00    +0.226 C 
ATOM     16  O   UNL     1      -0.370   3.209  25.731  0.00  0.00    -0.275 OA
ENDROOT
BRANCH   8   7
ATOM      7  O   UNL     1      -2.932   1.474  23.978  0.00  0.00    -0.475 OA
BRANCH   7   6
ATOM      3  C   UNL     1      -5.225   1.646  24.892  0.00  0.00    +0.139 A 
ATOM      4  C   UNL     1      -4.820   0.928  24.925  0.00  0.00    +0.040 A 
ATOM      5  C   UNL     1      -4.057   0.871  24.621  0.00  0.00    +0.040 A 
ATOM      6  C   UNL     1      -3.696   1.531  24.283  0.00  0.00    +0.139 A 
ATOM     22  C   UNL     1      -4.102   2.250  24.249  0.00  0.00    +0.040 A 
ATOM     23  C   UNL     1      -4.865   2.307  24.554  0.00  0.00    +0.040 A 
BRANCH   3   2
ATOM      1  C   UNL     1      -6.140   2.187  25.849  0.00  0.00    +0.252 C 
ATOM      2  O   UNL     1      -5.990   1.703  25.197  0.00  0.00    -0.471 OA
ENDBRANCH   3   2
ENDBRANCH   7   6
ENDBRANCH   8   7
BRANCH  15  17
ATOM     17  C   UNL     1      -1.418   3.629  24.856  0.00  0.00    +0.085 C 
BRANCH  17  18
ATOM     18  C   UNL     1      -1.184   4.414  24.954  0.00  0.00    +0.009 C 
ATOM     19  C   UNL     1      -0.952   5.200  25.051  0.00  0.00    +0.000 C 
ATOM     20  C   UNL     1      -1.783   4.523  25.511  0.00  0.00    +0.000 C 
ATOM     21  C   UNL     1      -0.586   4.307  24.396  0.00  0.00    +0.000 C 
ENDBRANCH  17  18
ENDBRANCH  15  17
TORSDOF 5
ENDMDL
