MODEL 1
REMARK VINA RESULT:     -11.5      0.000      0.000
REMARK  Name = 
REMARK  8 active torsions:
REMARK  status: ('A' for Active; 'I' for Inactive)
REMARK    1  A    between atoms: O_2  and  C_3
REMARK    2  A    between atoms: C_5  and  O_6
REMARK    3  A    between atoms: C_9  and  N_10
REMARK    4  A    between atoms: C_11  and  O_13
REMARK    5  A    between atoms: O_13  and  C_14
REMARK    6  A    between atoms: C_19  and  C_20
REMARK    7  A    between atoms: C_20  and  C_21
REMARK    8  A    between atoms: C_33  and  C_35
REMARK                            x       y       z     vdW  Elec       q    Type
REMARK                         _______ _______ _______ _____ _____    ______ ____
ROOT
ATOM     14  C   UNL     1      -4.561   1.141  24.914  0.00  0.00    +0.173 C 
ATOM     15  C   UNL     1      -3.789   1.341  24.698  0.00  0.00    +0.044 C 
ATOM     16  C   UNL     1      -3.544   2.128  24.727  0.00  0.00    +0.004 C 
ATOM     17  C   UNL     1      -4.069   2.715  24.970  0.00  0.00    +0.003 C 
ATOM     18  C   UNL     1      -3.299   2.915  24.755  0.00  0.00    +0.000 C 
ATOM     19  C   UNL     1      -3.824   3.503  24.998  0.00  0.00    +0.040 C 
ATOM     28  C   UNL     1      -4.349   4.090  25.242  0.00  0.00    +0.152 C 
ATOM     29  O   UNL     1      -4.104   4.877  25.270  0.00  0.00    -0.223 OA
ATOM     30  C   UNL     1      -5.121   3.890  25.457  0.00  0.00    +0.033 C 
ATOM     31  C   UNL     1      -5.366   3.103  25.428  0.00  0.00    +0.003 C 
ATOM     32  C   UNL     1      -4.841   2.515  25.185  0.00  0.00    +0.006 C 
ATOM     33  C   UNL     1      -5.086   1.729  25.157  0.00  0.00    +0.068 C 
ATOM     34  C   UNL     1      -5.842   1.925  25.420  0.00  0.00    +0.006 C 
ENDROOT
BRANCH  33  35
ATOM     35  C   UNL     1      -5.690   1.180  25.273  0.00  0.00    +0.185 C 
ATOM     36  O   UNL     1      -6.476   1.432  25.304  0.00  0.00    -0.220 OA
ENDBRANCH  33  35
BRANCH  14  13
ATOM     13  O   UNL     1      -4.806   0.354  24.885  0.00  0.00    -0.437 OA
BRANCH  13  11
ATOM     10  N   UNL     1      -3.962  -0.748  25.228  0.00  0.00    -0.142 NA
ATOM     11  C   UNL     1      -4.275  -0.236  24.660  0.00  0.00    +0.425 C 
ATOM     12  O   UNL     1      -4.057  -0.316  23.869  0.00  0.00    -0.224 OA
BRANCH  10   9
ATOM      3  C   UNL     1      -2.096  -1.760  24.724  0.00  0.00    +0.143 A 
ATOM      4  C   UNL     1      -2.371  -2.519  24.554  0.00  0.00    +0.074 A 
ATOM      5  C   UNL     1      -3.178  -2.688  24.609  0.00  0.00    +0.143 A 
ATOM      8  C   UNL     1      -3.707  -2.097  24.833  0.00  0.00    +0.054 A 
ATOM      9  C   UNL     1      -3.432  -1.338  25.003  0.00  0.00    +0.083 A 
ATOM     37  C   UNL     1      -2.627  -1.170  24.948  0.00  0.00    +0.054 A 
BRANCH   3   2
ATOM      1  C   UNL     1      -0.838  -1.510  25.354  0.00  0.00    +0.252 C 
ATOM      2  O   UNL     1      -1.291  -1.592  24.669  0.00  0.00    -0.471 OA
ENDBRANCH   3   2
BRANCH   5   6
ATOM      6  O   UNL     1      -3.453  -3.446  24.439  0.00  0.00    -0.471 OA
ATOM      7  C   UNL     1      -3.853  -3.592  23.733  0.00  0.00    +0.252 C 
ENDBRANCH   5   6
ENDBRANCH  10   9
ENDBRANCH  13  11
ENDBRANCH  14  13
BRANCH  19  20
ATOM     20  C   UNL     1      -3.053   3.702  24.783  0.00  0.00    +0.088 C 
BRANCH  20  21
ATOM     21  C   UNL     1      -2.579   4.136  25.301  0.00  0.00    +0.226 C 
ATOM     22  O   UNL     1      -2.832   4.273  26.075  0.00  0.00    -0.275 OA
ATOM     23  N   UNL     1      -1.855   4.434  25.045  0.00  0.00    -0.280 N 
ATOM     24  C   UNL     1      -1.531   4.343  24.292  0.00  0.00    +0.093 C 
ATOM     25  C   UNL     1      -0.801   4.728  24.279  0.00  0.00    +0.023 C 
ATOM     26  C   UNL     1      -0.674   5.057  25.025  0.00  0.00    +0.023 C 
ATOM     27  C   UNL     1      -1.325   4.876  25.498  0.00  0.00    +0.093 C 
ENDBRANCH  20  21
ENDBRANCH  19  20
TORSDOF 8
ENDMDL
MODEL 2
REMARK VINA RESULT:     -10.6      2.053      4.065
REMARK  Name = 
REMARK  8 active torsions:
REMARK  status: ('A' for Active; 'I' for Inactive)
REMARK    1  A    between atoms: O_2  and  C_3
REMARK    2  A    between atoms: C_5  and  O_6
REMARK    3  A    between atoms: C_9  and  N_10
REMARK    4  A    between atoms: C_11  and  O_13
REMARK    5  A    between atoms: O_13  and  C_14
REMARK    6  A    between atoms: C_19  and  C_20
REMARK    7  A    between atoms: C_20  and  C_21
REMARK    8  A    between atoms: C_33  and  C_35
REMARK                            x       y       z     vdW  Elec       q    Type
REMARK                         _______ _______ _______ _____ _____    ______ ____
ROOT
ATOM     14  C   UNL     1      -1.427   2.994  24.515  0.00  0.00    +0.173 C 
ATOM     15  C   UNL     1      -2.059   2.485  24.357  0.00  0.00    +0.044 C 
ATOM     16  C   UNL     1      -2.821   2.687  24.600  0.00  0.00    +0.004 C 
ATOM     17  C   UNL     1      -2.952   3.396  24.999  0.00  0.00    +0.003 C 
ATOM     18  C   UNL     1      -3.582   2.889  24.842  0.00  0.00    +0.000 C 
ATOM     19  C   UNL     1      -3.714   3.599  25.242  0.00  0.00    +0.040 C 
ATOM     28  C   UNL     1      -3.845   4.308  25.642  0.00  0.00    +0.152 C 
ATOM     29  O   UNL     1      -4.607   4.511  25.885  0.00  0.00    -0.223 OA
ATOM     30  C   UNL     1      -3.213   4.816  25.799  0.00  0.00    +0.033 C 
ATOM     31  C   UNL     1      -2.452   4.614  25.556  0.00  0.00    +0.003 C 
ATOM     32  C   UNL     1      -2.320   3.905  25.157  0.00  0.00    +0.006 C 
ATOM     33  C   UNL     1      -1.559   3.703  24.914  0.00  0.00    +0.068 C 
ATOM     34  C   UNL     1      -1.244   4.397  25.227  0.00  0.00    +0.006 C 
ENDROOT
BRANCH  33  35
ATOM     35  C   UNL     1      -0.760   3.904  24.879  0.00  0.00    +0.185 C 
ATOM     36  O   UNL     1      -0.532   4.696  24.914  0.00  0.00    -0.220 OA
ENDBRANCH  33  35
BRANCH  14  13
ATOM     13  O   UNL     1      -0.665   2.791  24.272  0.00  0.00    -0.437 OA
BRANCH  13  11
ATOM     10  N   UNL     1       0.017   1.536  24.331  0.00  0.00    -0.142 NA
ATOM     11  C   UNL     1      -0.517   2.043  23.956  0.00  0.00    +0.425 C 
ATOM     12  O   UNL     1      -0.900   1.802  23.267  0.00  0.00    -0.224 OA
BRANCH  10   9
ATOM      3  C   UNL     1      -0.095  -0.616  23.987  0.00  0.00    +0.143 A 
ATOM      4  C   UNL     1       0.464  -0.707  23.387  0.00  0.00    +0.074 A 
ATOM      5  C   UNL     1       0.873  -0.050  23.101  0.00  0.00    +0.143 A 
ATOM      8  C   UNL     1       0.724   0.698  23.416  0.00  0.00    +0.054 A 
ATOM      9  C   UNL     1       0.165   0.788  24.017  0.00  0.00    +0.083 A 
ATOM     37  C   UNL     1      -0.243   0.132  24.302  0.00  0.00    +0.054 A 
BRANCH   3   2
ATOM      1  C   UNL     1      -0.539  -1.418  25.084  0.00  0.00    +0.252 C 
ATOM      2  O   UNL     1      -0.504  -1.273  24.273  0.00  0.00    -0.471 OA
ENDBRANCH   3   2
BRANCH   5   6
ATOM      6  O   UNL     1       1.431  -0.141  22.501  0.00  0.00    -0.471 OA
ATOM      7  C   UNL     1       2.228   0.011  22.652  0.00  0.00    +0.252 C 
ENDBRANCH   5   6
ENDBRANCH  10   9
ENDBRANCH  13  11
ENDBRANCH  14  13
BRANCH  19  20
ATOM     20  C   UNL     1      -4.345   3.091  25.085  0.00  0.00    +0.088 C 
BRANCH  20  21
ATOM     21  C   UNL     1      -4.866   2.880  25.689  0.00  0.00    +0.226 C 
ATOM     22  O   UNL     1      -4.740   3.157  26.457  0.00  0.00    -0.275 OA
ATOM     23  N   UNL     1      -5.511   2.394  25.527  0.00  0.00    -0.280 N 
ATOM     24  C   UNL     1      -5.706   2.077  24.791  0.00  0.00    +0.093 C 
ATOM     25  C   UNL     1      -6.391   1.625  24.881  0.00  0.00    +0.023 C 
ATOM     26  C   UNL     1      -6.619   1.663  25.673  0.00  0.00    +0.023 C 
ATOM     27  C   UNL     1      -6.075   2.138  26.073  0.00  0.00    +0.093 C 
ENDBRANCH  20  21
ENDBRANCH  19  20
TORSDOF 8
ENDMDL
MODEL 3
REMARK VINA RESULT:      -9.2      1.369      5.303
REMARK  Name = 
REMARK  8 active torsions:
REMARK  status: ('A' for Active; 'I' for Inactive)
REMARK    1  A    between atoms: O_2  and  C_3
REMARK    2  A    between atoms: C_5  and  O_6
REMARK    3  A    between atoms: C_9  and  N_10
REMARK    4  A    between atoms: C_11  and  O_13
REMARK    5  A    between atoms: O_13  and  C_14
REMARK    6  A    between atoms: C_19  and  C_20
REMARK    7  A    between atoms: C_20  and  C_21
REMARK    8  A    between atoms: C_33  and  C_35
REMARK                            x       y       z     vdW  Elec       q    Type
REMARK                         _______ _______ _______ _____ _____    ______ ____
ROOT
ATOM     14  C   UNL     1      -3.859   1.692  24.706  0.00  0.00    +0.173 C 
ATOM     15  C   UNL     1      -3.139   1.300  24.609  0.00  0.00    +0.044 C 
ATOM     16  C   UNL     1      -3.128   0.486  24.475  0.00  0.00    +0.004 C 
ATOM     17  C   UNL     1      -3.835   0.065  24.437  0.00  0.00    +0.003 C 
ATOM     18  C   UNL     1      -3.117  -0.327  24.341  0.00  0.00    +0.000 C 
ATOM     19  C   UNL     1      -3.825  -0.749  24.303  0.00  0.00    +0.040 C 
ATOM     28  C   UNL     1      -4.533  -1.171  24.266  0.00  0.00    +0.152 C 
ATOM     29  O   UNL     1      -4.522  -1.985  24.132  0.00  0.00    -0.223 OA
ATOM     30  C   UNL     1      -5.253  -0.778  24.363  0.00  0.00    +0.033 C 
ATOM     31  C   UNL     1      -5.264   0.035  24.497  0.00  0.00    +0.003 C 
ATOM     32  C   UNL     1      -4.556   0.458  24.534  0.00  0.00    +0.006 C 
ATOM     33  C   UNL     1      -4.566   1.271  24.669  0.00  0.00    +0.068 C 
ATOM     34  C   UNL     1      -5.390   1.283  24.708  0.00  0.00    +0.006 C 
ENDROOT
BRANCH  33  35
ATOM     35  C   UNL     1      -5.012   1.952  24.800  0.00  0.00    +0.185 C 
ATOM     36  O   UNL     1      -5.832   1.899  24.884  0.00  0.00    -0.220 OA
ENDBRANCH  33  35
BRANCH  14  13
ATOM     13  O   UNL     1      -3.869   2.507  24.840  0.00  0.00    -0.437 OA
BRANCH  13  11
ATOM     10  N   UNL     1      -2.802   3.203  25.489  0.00  0.00    -0.142 NA
ATOM     11  C   UNL     1      -3.170   2.942  24.796  0.00  0.00    +0.425 C 
ATOM     12  O   UNL     1      -2.838   3.117  24.063  0.00  0.00    -0.224 OA
BRANCH  10   9
ATOM      3  C   UNL     1      -0.676   3.693  25.480  0.00  0.00    +0.143 A 
ATOM      4  C   UNL     1      -0.705   4.509  25.360  0.00  0.00    +0.074 A 
ATOM      5  C   UNL     1      -1.434   4.889  25.282  0.00  0.00    +0.143 A 
ATOM      8  C   UNL     1      -2.132   4.453  25.325  0.00  0.00    +0.054 A 
ATOM      9  C   UNL     1      -2.103   3.638  25.446  0.00  0.00    +0.083 A 
ATOM     37  C   UNL     1      -1.376   3.258  25.523  0.00  0.00    +0.054 A 
BRANCH   3   2
ATOM      1  C   UNL     1       0.132   2.676  26.075  0.00  0.00    +0.252 C 
ATOM      2  O   UNL     1       0.052   3.314  25.558  0.00  0.00    -0.471 OA
ENDBRANCH   3   2
BRANCH   5   6
ATOM      6  O   UNL     1      -1.462   5.704  25.161  0.00  0.00    -0.471 OA
ATOM      7  C   UNL     1      -1.016   6.048  24.559  0.00  0.00    +0.252 C 
ENDBRANCH   5   6
ENDBRANCH  10   9
ENDBRANCH  13  11
ENDBRANCH  14  13
BRANCH  19  20
ATOM     20  C   UNL     1      -3.106  -1.142  24.206  0.00  0.00    +0.088 C 
BRANCH  20  21
ATOM     21  C   UNL     1      -2.896  -1.752  24.720  0.00  0.00    +0.226 C 
ATOM     22  O   UNL     1      -3.411  -1.977  25.325  0.00  0.00    -0.275 OA
ATOM     23  N   UNL     1      -2.173  -2.137  24.630  0.00  0.00    -0.280 N 
ATOM     24  C   UNL     1      -1.605  -1.973  24.054  0.00  0.00    +0.093 C 
ATOM     25  C   UNL     1      -0.971  -2.489  24.168  0.00  0.00    +0.023 C 
ATOM     26  C   UNL     1      -1.147  -2.971  24.814  0.00  0.00    +0.023 C 
ATOM     27  C   UNL     1      -1.890  -2.754  25.100  0.00  0.00    +0.093 C 
ENDBRANCH  20  21
ENDBRANCH  19  20
TORSDOF 8
ENDMDL
MODEL 4
REMARK VINA RESULT:      -9.2      1.665      3.280
REMARK  Name = 
REMARK  8 active torsions:
REMARK  status: ('A' for Active; 'I' for Inactive)
REMARK    1  A    between atoms: O_2  and  C_3
REMARK    2  A    between atoms: C_5  and  O_6
REMARK    3  A    between atoms: C_9  and  N_10
REMARK    4  A    between atoms: C_11  and  O_13
REMARK    5  A    between atoms: O_13  and  C_14
REMARK    6  A    between atoms: C_19  and  C_20
REMARK    7  A    between atoms: C_20  and  C_21
REMARK    8  A    between atoms: C_33  and  C_35
REMARK                            x       y       z     vdW  Elec       q    Type
REMARK                         _______ _______ _______ _____ _____    ______ ____
ROOT
ATOM     14  C   UNL     1      -1.106   1.471  25.046  0.00  0.00    +0.173 C 
ATOM     15  C   UNL     1      -1.920   1.521  24.919  0.00  0.00    +0.044 C 
ATOM     16  C   UNL     1      -2.299   2.252  24.955  0.00  0.00    +0.004 C 
ATOM     17  C   UNL     1      -1.865   2.934  25.119  0.00  0.00    +0.003 C 
ATOM     18  C   UNL     1      -2.677   2.983  24.992  0.00  0.00    +0.000 C 
ATOM     19  C   UNL     1      -2.243   3.666  25.155  0.00  0.00    +0.040 C 
ATOM     28  C   UNL     1      -1.809   4.347  25.319  0.00  0.00    +0.152 C 
ATOM     29  O   UNL     1      -2.187   5.080  25.355  0.00  0.00    -0.223 OA
ATOM     30  C   UNL     1      -0.994   4.297  25.446  0.00  0.00    +0.033 C 
ATOM     31  C   UNL     1      -0.616   3.566  25.409  0.00  0.00    +0.003 C 
ATOM     32  C   UNL     1      -1.050   2.884  25.246  0.00  0.00    +0.006 C 
ATOM     33  C   UNL     1      -0.671   2.152  25.209  0.00  0.00    +0.068 C 
ATOM     34  C   UNL     1       0.062   2.491  25.376  0.00  0.00    +0.006 C 
ENDROOT
BRANCH  33  35
ATOM     35  C   UNL     1       0.031   1.725  25.267  0.00  0.00    +0.185 C 
ATOM     36  O   UNL     1       0.740   2.117  25.427  0.00  0.00    -0.220 OA
ENDBRANCH  33  35
BRANCH  14  13
ATOM     13  O   UNL     1      -0.727   0.738  25.010  0.00  0.00    -0.437 OA
BRANCH  13  11
ATOM     10  N   UNL     1      -1.413  -0.477  25.320  0.00  0.00    -0.142 NA
ATOM     11  C   UNL     1      -1.143   0.070  24.763  0.00  0.00    +0.425 C 
ATOM     12  O   UNL     1      -1.288  -0.054  23.961  0.00  0.00    -0.224 OA
BRANCH  10   9
ATOM      3  C   UNL     1      -3.069  -1.813  24.835  0.00  0.00    +0.143 A 
ATOM      4  C   UNL     1      -2.660  -2.483  24.581  0.00  0.00    +0.074 A 
ATOM      5  C   UNL     1      -1.834  -2.484  24.574  0.00  0.00    +0.143 A 
ATOM      8  C   UNL     1      -1.419  -1.815  24.820  0.00  0.00    +0.054 A 
ATOM      9  C   UNL     1      -1.829  -1.145  25.074  0.00  0.00    +0.083 A 
ATOM     37  C   UNL     1      -2.653  -1.144  25.081  0.00  0.00    +0.054 A 
BRANCH   3   2
ATOM      1  C   UNL     1      -4.313  -1.618  24.158  0.00  0.00    +0.252 C 
ATOM      2  O   UNL     1      -3.894  -1.812  24.842  0.00  0.00    -0.471 OA
ENDBRANCH   3   2
BRANCH   5   6
ATOM      6  O   UNL     1      -1.425  -3.153  24.321  0.00  0.00    -0.471 OA
ATOM      7  C   UNL     1      -1.338  -3.303  23.515  0.00  0.00    +0.252 C 
ENDBRANCH   5   6
ENDBRANCH  10   9
ENDBRANCH  13  11
ENDBRANCH  14  13
BRANCH  19  20
ATOM     20  C   UNL     1      -3.057   3.716  25.028  0.00  0.00    +0.088 C 
BRANCH  20  21
ATOM     21  C   UNL     1      -3.558   3.942  25.643  0.00  0.00    +0.226 C 
ATOM     22  O   UNL     1      -3.239   4.205  26.359  0.00  0.00    -0.275 OA
ATOM     23  N   UNL     1      -4.375   3.906  25.544  0.00  0.00    -0.280 N 
ATOM     24  C   UNL     1      -4.771   3.657  24.865  0.00  0.00    +0.093 C 
ATOM     25  C   UNL     1      -5.582   3.710  25.008  0.00  0.00    +0.023 C 
ATOM     26  C   UNL     1      -5.687   3.992  25.776  0.00  0.00    +0.023 C 
ATOM     27  C   UNL     1      -4.941   4.113  26.108  0.00  0.00    +0.093 C 
ENDBRANCH  20  21
ENDBRANCH  19  20
TORSDOF 8
ENDMDL
MODEL 5
REMARK VINA RESULT:      -8.9      1.950      5.204
REMARK  Name = 
REMARK  8 active torsions:
REMARK  status: ('A' for Active; 'I' for Inactive)
REMARK    1  A    between atoms: O_2  and  C_3
REMARK    2  A    between atoms: C_5  and  O_6
REMARK    3  A    between atoms: C_9  and  N_10
REMARK    4  A    between atoms: C_11  and  O_13
REMARK    5  A    between atoms: O_13  and  C_14
REMARK    6  A    between atoms: C_19  and  C_20
REMARK    7  A    between atoms: C_20  and  C_21
REMARK    8  A    between atoms: C_33  and  C_35
REMARK                            x       y       z     vdW  Elec       q    Type
REMARK                         _______ _______ _______ _____ _____    ______ ____
ROOT
ATOM     14  C   UNL     1      -3.128   0.178  24.809  0.00  0.00    +0.173 C 
ATOM     15  C   UNL     1      -2.547   0.648  24.456  0.00  0.00    +0.044 C 
ATOM     16  C   UNL     1      -1.780   0.359  24.372  0.00  0.00    +0.004 C 
ATOM     17  C   UNL     1      -1.592  -0.398  24.639  0.00  0.00    +0.003 C 
ATOM     18  C   UNL     1      -1.012   0.071  24.287  0.00  0.00    +0.000 C 
ATOM     19  C   UNL     1      -0.824  -0.687  24.554  0.00  0.00    +0.040 C 
ATOM     28  C   UNL     1      -0.636  -1.444  24.821  0.00  0.00    +0.152 C 
ATOM     29  O   UNL     1       0.132  -1.733  24.737  0.00  0.00    -0.223 OA
ATOM     30  C   UNL     1      -1.217  -1.914  25.173  0.00  0.00    +0.033 C 
ATOM     31  C   UNL     1      -1.985  -1.625  25.258  0.00  0.00    +0.003 C 
ATOM     32  C   UNL     1      -2.173  -0.867  24.991  0.00  0.00    +0.006 C 
ATOM     33  C   UNL     1      -2.941  -0.579  25.075  0.00  0.00    +0.068 C 
ATOM     34  C   UNL     1      -3.194  -1.276  25.435  0.00  0.00    +0.006 C 
ENDROOT
BRANCH  33  35
ATOM     35  C   UNL     1      -3.712  -0.709  25.336  0.00  0.00    +0.185 C 
ATOM     36  O   UNL     1      -3.954  -1.471  25.543  0.00  0.00    -0.220 OA
ENDBRANCH  33  35
BRANCH  14  13
ATOM     13  O   UNL     1      -3.897   0.468  24.893  0.00  0.00    -0.437 OA
BRANCH  13  11
ATOM     10  N   UNL     1      -4.104   1.746  25.499  0.00  0.00    -0.142 NA
ATOM     11  C   UNL     1      -4.044   1.276  24.822  0.00  0.00    +0.425 C 
ATOM     12  O   UNL     1      -4.133   1.616  24.076  0.00  0.00    -0.224 OA
BRANCH  10   9
ATOM      3  C   UNL     1      -3.771   3.890  25.268  0.00  0.00    +0.143 A 
ATOM      4  C   UNL     1      -4.547   4.171  25.287  0.00  0.00    +0.074 A 
ATOM      5  C   UNL     1      -5.175   3.643  25.376  0.00  0.00    +0.143 A 
ATOM      8  C   UNL     1      -5.027   2.835  25.447  0.00  0.00    +0.054 A 
ATOM      9  C   UNL     1      -4.251   2.554  25.428  0.00  0.00    +0.083 A 
ATOM     37  C   UNL     1      -3.624   3.082  25.338  0.00  0.00    +0.054 A 
BRANCH   3   2
ATOM      1  C   UNL     1      -2.464   4.334  25.638  0.00  0.00    +0.252 C 
ATOM      2  O   UNL     1      -3.144   4.418  25.178  0.00  0.00    -0.471 OA
ENDBRANCH   3   2
BRANCH   5   6
ATOM      6  O   UNL     1      -5.950   3.923  25.395  0.00  0.00    -0.471 OA
ATOM      7  C   UNL     1      -6.109   4.678  25.687  0.00  0.00    +0.252 C 
ENDBRANCH   5   6
ENDBRANCH  10   9
ENDBRANCH  13  11
ENDBRANCH  14  13
BRANCH  19  20
ATOM     20  C   UNL     1      -0.243  -0.218  24.203  0.00  0.00    +0.088 C 
BRANCH  20  21
ATOM     21  C   UNL     1       0.171  -0.497  23.546  0.00  0.00    +0.226 C 
ATOM     22  O   UNL     1      -0.095  -1.168  23.145  0.00  0.00    -0.275 OA
ATOM     23  N   UNL     1       0.850  -0.106  23.290  0.00  0.00    -0.280 N 
ATOM     24  C   UNL     1       1.180   0.567  23.633  0.00  0.00    +0.093 C 
ATOM     25  C   UNL     1       1.853   0.770  23.201  0.00  0.00    +0.023 C 
ATOM     26  C   UNL     1       1.939   0.222  22.590  0.00  0.00    +0.023 C 
ATOM     27  C   UNL     1       1.319  -0.320  22.645  0.00  0.00    +0.093 C 
ENDBRANCH  20  21
ENDBRANCH  19  20
TORSDOF 8
ENDMDL
MODEL 6
REMARK VINA RESULT:      -8.8      1.762      5.602
REMARK  Name = 
REMARK  8 active torsions:
REMARK  status: ('A' for Active; 'I' for Inactive)
REMARK    1  A    between atoms: O_2  and  C_3
REMARK    2  A    between atoms: C_5  and  O_6
REMARK    3  A    between atoms: C_9  and  N_10
REMARK    4  A    between atoms: C_11  and  O_13
REMARK    5  A    between atoms: O_13  and  C_14
REMARK    6  A    between atoms: C_19  and  C_20
REMARK    7  A    between atoms: C_20  and  C_21
REMARK    8  A    between atoms: C_33  and  C_35
REMARK                            x       y       z     vdW  Elec       q    Type
REMARK                         _______ _______ _______ _____ _____    ______ ____
ROOT
ATOM     14  C   UNL     1      -1.879   2.504  24.692  0.00  0.00    +0.173 C 
ATOM     15  C   UNL     1      -2.300   1.793  24.718  0.00  0.00    +0.044 C 
ATOM     16  C   UNL     1      -1.924   1.085  24.529  0.00  0.00    +0.004 C 
ATOM     17  C   UNL     1      -1.128   1.084  24.313  0.00  0.00    +0.003 C 
ATOM     18  C   UNL     1      -1.548   0.376  24.340  0.00  0.00    +0.000 C 
ATOM     19  C   UNL     1      -0.751   0.375  24.124  0.00  0.00    +0.040 C 
ATOM     28  C   UNL     1       0.045   0.375  23.909  0.00  0.00    +0.152 C 
ATOM     29  O   UNL     1       0.422  -0.334  23.719  0.00  0.00    -0.223 OA
ATOM     30  C   UNL     1       0.465   1.085  23.883  0.00  0.00    +0.033 C 
ATOM     31  C   UNL     1       0.089   1.794  24.072  0.00  0.00    +0.003 C 
ATOM     32  C   UNL     1      -0.707   1.795  24.287  0.00  0.00    +0.006 C 
ATOM     33  C   UNL     1      -1.083   2.503  24.477  0.00  0.00    +0.068 C 
ATOM     34  C   UNL     1      -0.395   2.937  24.344  0.00  0.00    +0.006 C 
ENDROOT
BRANCH  33  35
ATOM     35  C   UNL     1      -1.030   3.322  24.563  0.00  0.00    +0.185 C 
ATOM     36  O   UNL     1      -0.375   3.726  24.266  0.00  0.00    -0.220 OA
ENDBRANCH  33  35
BRANCH  14  13
ATOM     13  O   UNL     1      -2.256   3.213  24.881  0.00  0.00    -0.437 OA
BRANCH  13  11
ATOM     10  N   UNL     1      -3.673   3.315  24.726  0.00  0.00    -0.142 NA
ATOM     11  C   UNL     1      -3.013   3.204  25.209  0.00  0.00    +0.425 C 
ATOM     12  O   UNL     1      -3.111   3.086  26.019  0.00  0.00    -0.224 OA
BRANCH  10   9
ATOM      3  C   UNL     1      -5.531   4.001  25.643  0.00  0.00    +0.143 A 
ATOM      4  C   UNL     1      -5.944   3.290  25.708  0.00  0.00    +0.074 A 
ATOM      5  C   UNL     1      -5.600   2.587  25.445  0.00  0.00    +0.143 A 
ATOM      8  C   UNL     1      -4.843   2.596  25.118  0.00  0.00    +0.054 A 
ATOM      9  C   UNL     1      -4.430   3.307  25.053  0.00  0.00    +0.083 A 
ATOM     37  C   UNL     1      -4.773   4.009  25.315  0.00  0.00    +0.054 A 
BRANCH   3   2
ATOM      1  C   UNL     1      -6.246   5.207  25.368  0.00  0.00    +0.252 C 
ATOM      2  O   UNL     1      -5.874   4.703  25.905  0.00  0.00    -0.471 OA
ENDBRANCH   3   2
BRANCH   5   6
ATOM      6  O   UNL     1      -6.013   1.876  25.510  0.00  0.00    -0.471 OA
ATOM      7  C   UNL     1      -6.367   1.542  24.844  0.00  0.00    +0.252 C 
ENDBRANCH   5   6
ENDBRANCH  10   9
ENDBRANCH  13  11
ENDBRANCH  14  13
BRANCH  19  20
ATOM     20  C   UNL     1      -1.171  -0.334  24.150  0.00  0.00    +0.088 C 
BRANCH  20  21
ATOM     21  C   UNL     1      -0.913  -0.950  24.635  0.00  0.00    +0.226 C 
ATOM     22  O   UNL     1      -0.255  -0.842  25.122  0.00  0.00    -0.275 OA
ATOM     23  N   UNL     1      -1.310  -1.672  24.632  0.00  0.00    -0.280 N 
ATOM     24  C   UNL     1      -1.972  -1.860  24.177  0.00  0.00    +0.093 C 
ATOM     25  C   UNL     1      -2.187  -2.638  24.348  0.00  0.00    +0.023 C 
ATOM     26  C   UNL     1      -1.658  -2.931  24.909  0.00  0.00    +0.023 C 
ATOM     27  C   UNL     1      -1.116  -2.334  25.085  0.00  0.00    +0.093 C 
ENDBRANCH  20  21
ENDBRANCH  19  20
TORSDOF 8
ENDMDL
MODEL 7
REMARK VINA RESULT:      -8.7      2.222      4.299
REMARK  Name = 
REMARK  8 active torsions:
REMARK  status: ('A' for Active; 'I' for Inactive)
REMARK    1  A    between atoms: O_2  and  C_3
REMARK    2  A    between atoms: C_5  and  O_6
REMARK    3  A    between atoms: C_9  and  N_10
REMARK    4  A    between atoms: C_11  and  O_13
REMARK    5  A    between atoms: O_13  and  C_14
REMARK    6  A    between atoms: C_19  and  C_20
REMARK    7  A    between atoms: C_20  and  C_21
REMARK    8  A    between atoms: C_33  and  C_35
REMARK                            x       y       z     vdW  Elec       q    Type
REMARK                         _______ _______ _______ _____ _____    ______ ____
ROOT
ATOM     14  C   UNL     1      -2.105  -0.686  24.493  0.00  0.00    +0.173 C 
ATOM     15  C   UNL     1      -2.123   0.133  24.594  0.00  0.00    +0.044 C 
ATOM     16  C   UNL     1      -2.845   0.529  24.631  0.00  0.00    +0.004 C 
ATOM     17  C   UNL     1      -3.550   0.106  24.568  0.00  0.00    +0.003 C 
ATOM     18  C   UNL     1      -3.567   0.924  24.668  0.00  0.00    +0.000 C 
ATOM     19  C   UNL     1      -4.274   0.502  24.605  0.00  0.00    +0.040 C 
ATOM     28  C   UNL     1      -4.979   0.079  24.542  0.00  0.00    +0.152 C 
ATOM     29  O   UNL     1      -5.702   0.475  24.579  0.00  0.00    -0.223 OA
ATOM     30  C   UNL     1      -4.961  -0.740  24.441  0.00  0.00    +0.033 C 
ATOM     31  C   UNL     1      -4.239  -1.136  24.404  0.00  0.00    +0.003 C 
ATOM     32  C   UNL     1      -3.533  -0.713  24.467  0.00  0.00    +0.006 C 
ATOM     33  C   UNL     1      -2.810  -1.109  24.430  0.00  0.00    +0.068 C 
ATOM     34  C   UNL     1      -3.182  -1.839  24.335  0.00  0.00    +0.006 C 
ENDROOT
BRANCH  33  35
ATOM     35  C   UNL     1      -2.408  -1.824  24.349  0.00  0.00    +0.185 C 
ATOM     36  O   UNL     1      -2.816  -2.538  24.422  0.00  0.00    -0.220 OA
ENDBRANCH  33  35
BRANCH  14  13
ATOM     13  O   UNL     1      -1.382  -1.082  24.456  0.00  0.00    -0.437 OA
BRANCH  13  11
ATOM     10  N   UNL     1      -0.425  -0.397  23.644  0.00  0.00    -0.142 NA
ATOM     11  C   UNL     1      -0.680  -0.654  24.387  0.00  0.00    +0.425 C 
ATOM     12  O   UNL     1      -0.232  -0.483  25.058  0.00  0.00    -0.224 OA
BRANCH  10   9
ATOM      3  C   UNL     1       1.031   1.219  23.817  0.00  0.00    +0.143 A 
ATOM      4  C   UNL     1       1.681   0.885  23.434  0.00  0.00    +0.074 A 
ATOM      5  C   UNL     1       1.628   0.123  23.121  0.00  0.00    +0.143 A 
ATOM      8  C   UNL     1       0.926  -0.304  23.191  0.00  0.00    +0.054 A 
ATOM      9  C   UNL     1       0.276   0.030  23.574  0.00  0.00    +0.083 A 
ATOM     37  C   UNL     1       0.329   0.791  23.887  0.00  0.00    +0.054 A 
BRANCH   3   2
ATOM      1  C   UNL     1       0.471   2.520  24.009  0.00  0.00    +0.252 C 
ATOM      2  O   UNL     1       1.083   1.980  24.130  0.00  0.00    -0.471 OA
ENDBRANCH   3   2
BRANCH   5   6
ATOM      6  O   UNL     1       2.278  -0.210  22.738  0.00  0.00    -0.471 OA
ATOM      7  C   UNL     1       2.828   0.274  22.361  0.00  0.00    +0.252 C 
ENDBRANCH   5   6
ENDBRANCH  10   9
ENDBRANCH  13  11
ENDBRANCH  14  13
BRANCH  19  20
ATOM     20  C   UNL     1      -4.291   1.320  24.705  0.00  0.00    +0.088 C 
BRANCH  20  21
ATOM     21  C   UNL     1      -4.795   1.657  25.264  0.00  0.00    +0.226 C 
ATOM     22  O   UNL     1      -5.194   1.175  25.803  0.00  0.00    -0.275 OA
ATOM     23  N   UNL     1      -4.900   2.474  25.285  0.00  0.00    -0.280 N 
ATOM     24  C   UNL     1      -4.541   3.023  24.785  0.00  0.00    +0.093 C 
ATOM     25  C   UNL     1      -4.802   3.775  25.002  0.00  0.00    +0.023 C 
ATOM     26  C   UNL     1      -5.324   3.692  25.635  0.00  0.00    +0.023 C 
ATOM     27  C   UNL     1      -5.384   2.887  25.811  0.00  0.00    +0.093 C 
ENDBRANCH  20  21
ENDBRANCH  19  20
TORSDOF 8
ENDMDL
