MODEL 1
REMARK VINA RESULT:     -11.6      0.000      0.000
REMARK  Name = 
REMARK  3 active torsions:
REMARK  status: ('A' for Active; 'I' for Inactive)
REMARK    1  A    between atoms: C_2  and  C_19
REMARK    2  A    between atoms: C_6  and  C_8
REMARK    3  A    between atoms: C_11  and  C_13
REMARK                            x       y       z     vdW  Elec       q    Type
REMARK                         _______ _______ _______ _____ _____    ______ ____
ROOT
ATOM      1  O   UNL     1      -1.225   2.571  26.053  0.00  0.00    -0.270 OA
ATOM      2  C   UNL     1      -1.669   2.974  25.485  0.00  0.00    +0.251 C 
ATOM      3  N   UNL     1      -2.301   2.596  25.113  0.00  0.00    -0.276 N 
ATOM      4  C   UNL     1      -2.792   2.925  24.538  0.00  0.00    +0.094 C 
ATOM      5  C   UNL     1      -3.348   2.355  24.320  0.00  0.00    +0.033 C 
ATOM      6  C   UNL     1      -3.199   1.673  24.759  0.00  0.00    +0.100 C 
ATOM      7  C   UNL     1      -2.552   1.821  25.250  0.00  0.00    +0.103 C 
ENDROOT
BRANCH   2  19
ATOM     19  C   UNL     1      -1.483   3.753  25.291  0.00  0.00    +0.073 A 
ATOM     20  C   UNL     1      -0.829   3.913  24.813  0.00  0.00    +0.008 A 
ATOM     21  C   UNL     1      -0.642   4.693  24.618  0.00  0.00    +0.021 A 
ATOM     22  C   UNL     1      -1.108   5.312  24.901  0.00  0.00    +0.099 A 
ATOM     23  N   UNL     1      -1.762   5.151  25.379  0.00  0.00    -0.242 NA
ATOM     24  C   UNL     1      -1.948   4.372  25.573  0.00  0.00    +0.103 A 
ENDBRANCH   2  19
BRANCH   6   8
ATOM      8  C   UNL     1      -3.622   0.966  24.717  0.00  0.00    +0.228 A 
ATOM      9  N   UNL     1      -4.444   0.891  24.743  0.00  0.00    -0.111 NA
ATOM     10  N   UNL     1      -4.628   0.089  24.683  0.00  0.00    -0.107 NA
ATOM     11  C   UNL     1      -3.921  -0.332  24.619  0.00  0.00    +0.250 A 
ATOM     12  O   UNL     1      -3.299   0.211  24.640  0.00  0.00    -0.419 OA
BRANCH  11  13
ATOM     13  C   UNL     1      -3.848  -1.150  24.547  0.00  0.00    +0.058 A 
ATOM     14  C   UNL     1      -4.157  -1.535  23.886  0.00  0.00    +0.025 A 
ATOM     15  C   UNL     1      -4.085  -2.353  23.814  0.00  0.00    +0.099 A 
ATOM     16  N   UNL     1      -3.702  -2.787  24.404  0.00  0.00    -0.242 NA
ATOM     17  C   UNL     1      -3.394  -2.402  25.064  0.00  0.00    +0.099 A 
ATOM     18  C   UNL     1      -3.467  -1.583  25.136  0.00  0.00    +0.025 A 
ENDBRANCH  11  13
ENDBRANCH   6   8
TORSDOF 3
ENDMDL
MODEL 2
REMARK VINA RESULT:     -11.5      1.039      5.549
REMARK  Name = 
REMARK  3 active torsions:
REMARK  status: ('A' for Active; 'I' for Inactive)
REMARK    1  A    between atoms: C_2  and  C_19
REMARK    2  A    between atoms: C_6  and  C_8
REMARK    3  A    between atoms: C_11  and  C_13
REMARK                            x       y       z     vdW  Elec       q    Type
REMARK                         _______ _______ _______ _____ _____    ______ ____
ROOT
ATOM      1  O   UNL     1      -4.285  -0.086  25.403  0.00  0.00    -0.270 OA
ATOM      2  C   UNL     1      -3.635  -0.476  25.075  0.00  0.00    +0.251 C 
ATOM      3  N   UNL     1      -2.907  -0.091  25.024  0.00  0.00    -0.276 N 
ATOM      4  C   UNL     1      -2.212  -0.407  24.713  0.00  0.00    +0.094 C 
ATOM      5  C   UNL     1      -1.621   0.166  24.772  0.00  0.00    +0.033 C 
ATOM      6  C   UNL     1      -1.952   0.837  25.120  0.00  0.00    +0.100 C 
ATOM      7  C   UNL     1      -2.746   0.678  25.276  0.00  0.00    +0.103 C 
ENDROOT
BRANCH   2  19
ATOM     19  C   UNL     1      -3.713  -1.249  24.799  0.00  0.00    +0.073 A 
ATOM     20  C   UNL     1      -4.041  -1.390  24.056  0.00  0.00    +0.008 A 
ATOM     21  C   UNL     1      -4.119  -2.164  23.779  0.00  0.00    +0.021 A 
ATOM     22  C   UNL     1      -3.869  -2.796  24.247  0.00  0.00    +0.099 A 
ATOM     23  N   UNL     1      -3.540  -2.654  24.990  0.00  0.00    -0.242 NA
ATOM     24  C   UNL     1      -3.463  -1.882  25.266  0.00  0.00    +0.103 A 
ENDBRANCH   2  19
BRANCH   6   8
ATOM      8  C   UNL     1      -1.557   1.543  25.284  0.00  0.00    +0.228 A 
ATOM      9  N   UNL     1      -0.838   1.615  25.683  0.00  0.00    -0.111 NA
ATOM     10  N   UNL     1      -0.648   2.416  25.723  0.00  0.00    -0.107 NA
ATOM     11  C   UNL     1      -1.250   2.840  25.349  0.00  0.00    +0.250 A 
ATOM     12  O   UNL     1      -1.812   2.300  25.078  0.00  0.00    -0.419 OA
BRANCH  11  13
ATOM     13  C   UNL     1      -1.284   3.659  25.262  0.00  0.00    +0.058 A 
ATOM     14  C   UNL     1      -1.925   4.081  25.564  0.00  0.00    +0.025 A 
ATOM     15  C   UNL     1      -1.959   4.900  25.477  0.00  0.00    +0.099 A 
ATOM     16  N   UNL     1      -1.350   5.299  25.087  0.00  0.00    -0.242 NA
ATOM     17  C   UNL     1      -0.709   4.878  24.785  0.00  0.00    +0.099 A 
ATOM     18  C   UNL     1      -0.675   4.058  24.872  0.00  0.00    +0.025 A 
ENDBRANCH  11  13
ENDBRANCH   6   8
TORSDOF 3
ENDMDL
MODEL 3
REMARK VINA RESULT:      -8.1     17.497     19.136
REMARK  Name = 
REMARK  3 active torsions:
REMARK  status: ('A' for Active; 'I' for Inactive)
REMARK    1  A    between atoms: C_2  and  C_19
REMARK    2  A    between atoms: C_6  and  C_8
REMARK    3  A    between atoms: C_11  and  C_13
REMARK                            x       y       z     vdW  Elec       q    Type
REMARK                         _______ _______ _______ _____ _____    ______ ____
ROOT
ATOM      1  O   UNL     1      15.589   6.102  18.953  0.00  0.00    -0.270 OA
ATOM      2  C   UNL     1      15.505   6.664  19.551  0.00  0.00    +0.251 C 
ATOM      3  N   UNL     1      14.834   7.144  19.574  0.00  0.00    -0.276 N 
ATOM      4  C   UNL     1      14.673   7.726  20.135  0.00  0.00    +0.094 C 
ATOM      5  C   UNL     1      13.945   8.068  19.947  0.00  0.00    +0.033 C 
ATOM      6  C   UNL     1      13.656   7.696  19.270  0.00  0.00    +0.100 C 
ATOM      7  C   UNL     1      14.205   7.124  19.039  0.00  0.00    +0.103 C 
ENDROOT
BRANCH   2  19
ATOM     19  C   UNL     1      16.090   6.747  20.126  0.00  0.00    +0.073 A 
ATOM     20  C   UNL     1      16.767   7.190  19.965  0.00  0.00    +0.008 A 
ATOM     21  C   UNL     1      17.353   7.273  20.540  0.00  0.00    +0.021 A 
ATOM     22  C   UNL     1      17.261   6.912  21.276  0.00  0.00    +0.099 A 
ATOM     23  N   UNL     1      16.584   6.469  21.438  0.00  0.00    -0.242 NA
ATOM     24  C   UNL     1      15.999   6.386  20.863  0.00  0.00    +0.103 A 
ENDBRANCH   2  19
BRANCH   6   8
ATOM      8  C   UNL     1      12.944   7.865  18.890  0.00  0.00    +0.228 A 
ATOM      9  N   UNL     1      12.191   7.801  19.222  0.00  0.00    -0.111 NA
ATOM     10  N   UNL     1      11.640   8.024  18.650  0.00  0.00    -0.107 NA
ATOM     11  C   UNL     1      12.053   8.225  17.964  0.00  0.00    +0.250 A 
ATOM     12  O   UNL     1      12.859   8.127  18.113  0.00  0.00    -0.419 OA
BRANCH  11  13
ATOM     13  C   UNL     1      11.719   8.480  17.254  0.00  0.00    +0.058 A 
ATOM     14  C   UNL     1      12.191   8.839  16.681  0.00  0.00    +0.025 A 
ATOM     15  C   UNL     1      11.857   9.094  15.971  0.00  0.00    +0.099 A 
ATOM     16  N   UNL     1      11.049   8.990  15.835  0.00  0.00    -0.242 NA
ATOM     17  C   UNL     1      10.577   8.631  16.408  0.00  0.00    +0.099 A 
ATOM     18  C   UNL     1      10.912   8.376  17.118  0.00  0.00    +0.025 A 
ENDBRANCH  11  13
ENDBRANCH   6   8
TORSDOF 3
ENDMDL
MODEL 4
REMARK VINA RESULT:      -8.0     15.674     18.358
REMARK  Name = 
REMARK  3 active torsions:
REMARK  status: ('A' for Active; 'I' for Inactive)
REMARK    1  A    between atoms: C_2  and  C_19
REMARK    2  A    between atoms: C_6  and  C_8
REMARK    3  A    between atoms: C_11  and  C_13
REMARK                            x       y       z     vdW  Elec       q    Type
REMARK                         _______ _______ _______ _____ _____    ______ ____
ROOT
ATOM      1  O   UNL     1      15.226   7.897  18.616  0.00  0.00    -0.270 OA
ATOM      2  C   UNL     1      15.295   7.281  19.161  0.00  0.00    +0.251 C 
ATOM      3  N   UNL     1      14.660   7.094  19.653  0.00  0.00    -0.276 N 
ATOM      4  C   UNL     1      14.647   6.496  20.222  0.00  0.00    +0.094 C 
ATOM      5  C   UNL     1      13.905   6.504  20.584  0.00  0.00    +0.033 C 
ATOM      6  C   UNL     1      13.460   7.106  20.238  0.00  0.00    +0.100 C 
ATOM      7  C   UNL     1      13.926   7.471  19.663  0.00  0.00    +0.103 C 
ENDROOT
BRANCH   2  19
ATOM     19  C   UNL     1      15.998   6.853  19.214  0.00  0.00    +0.073 A 
ATOM     20  C   UNL     1      16.142   6.231  18.692  0.00  0.00    +0.008 A 
ATOM     21  C   UNL     1      16.846   5.802  18.745  0.00  0.00    +0.021 A 
ATOM     22  C   UNL     1      17.404   5.997  19.320  0.00  0.00    +0.099 A 
ATOM     23  N   UNL     1      17.260   6.619  19.842  0.00  0.00    -0.242 NA
ATOM     24  C   UNL     1      16.557   7.047  19.789  0.00  0.00    +0.103 A 
ENDBRANCH   2  19
BRANCH   6   8
ATOM      8  C   UNL     1      12.684   7.309  20.433  0.00  0.00    +0.228 A 
ATOM      9  N   UNL     1      12.027   7.242  19.939  0.00  0.00    -0.111 NA
ATOM     10  N   UNL     1      11.366   7.505  20.357  0.00  0.00    -0.107 NA
ATOM     11  C   UNL     1      11.615   7.735  21.109  0.00  0.00    +0.250 A 
ATOM     12  O   UNL     1      12.430   7.614  21.157  0.00  0.00    -0.419 OA
BRANCH  11  13
ATOM     13  C   UNL     1      11.134   8.034  21.709  0.00  0.00    +0.058 A 
ATOM     14  C   UNL     1      11.274   8.787  22.015  0.00  0.00    +0.025 A 
ATOM     15  C   UNL     1      10.793   9.086  22.614  0.00  0.00    +0.099 A 
ATOM     16  N   UNL     1      10.170   8.631  22.908  0.00  0.00    -0.242 NA
ATOM     17  C   UNL     1      10.029   7.878  22.602  0.00  0.00    +0.099 A 
ATOM     18  C   UNL     1      10.511   7.580  22.002  0.00  0.00    +0.025 A 
ENDBRANCH  11  13
ENDBRANCH   6   8
TORSDOF 3
ENDMDL
