MODEL 1
REMARK VINA RESULT:      -9.8      0.000      0.000
REMARK  Name = 
REMARK  6 active torsions:
REMARK  status: ('A' for Active; 'I' for Inactive)
REMARK    1  A    between atoms: C_2  and  N_4
REMARK    2  A    between atoms: N_7  and  C_8
REMARK    3  A    between atoms: C_10  and  C_11
REMARK    4  A    between atoms: C_11  and  C_12
REMARK    5  A    between atoms: C_15  and  C_16
REMARK    6  A    between atoms: C_16  and  N_17
REMARK                            x       y       z     vdW  Elec       q    Type
REMARK                         _______ _______ _______ _____ _____    ______ ____
ROOT
ATOM      8  C   UNL     1      -4.765   1.272  24.983  0.00  0.00    +0.097 C 
ATOM      9  C   UNL     1      -4.127   1.793  24.936  0.00  0.00    +0.022 C 
ATOM     10  C   UNL     1      -4.631   2.424  25.101  0.00  0.00    +0.009 C 
ATOM     21  C   UNL     1      -5.269   1.904  25.149  0.00  0.00    +0.019 C 
ATOM     22  C   UNL     1      -5.908   2.397  25.320  0.00  0.00    +0.002 C 
ATOM     23  C   UNL     1      -6.007   1.545  25.233  0.00  0.00    +0.002 C 
ENDROOT
BRANCH   8   7
ATOM      4  N   UNL     1      -4.294  -0.855  24.848  0.00  0.00    -0.189 NA
ATOM      5  C   UNL     1      -4.200  -0.040  24.932  0.00  0.00    +0.339 C 
ATOM      6  O   UNL     1      -3.448   0.280  25.048  0.00  0.00    -0.249 OA
ATOM      7  N   UNL     1      -4.859   0.457  24.900  0.00  0.00    -0.189 NA
BRANCH   4   2
ATOM      1  C   UNL     1      -3.286  -1.618  24.182  0.00  0.00    +0.023 C 
ATOM      2  C   UNL     1      -3.635  -1.351  24.880  0.00  0.00    +0.097 C 
ATOM      3  C   UNL     1      -3.325  -1.580  25.610  0.00  0.00    +0.023 C 
ENDBRANCH   4   2
ENDBRANCH   8   7
BRANCH  10  11
ATOM     11  C   UNL     1      -4.536   3.240  25.185  0.00  0.00    +0.049 C 
BRANCH  11  12
ATOM     12  C   UNL     1      -3.798   3.585  25.055  0.00  0.00    +0.100 A 
ATOM     13  N   UNL     1      -3.476   3.781  24.322  0.00  0.00    -0.082 NA
ATOM     14  O   UNL     1      -2.731   4.112  24.449  0.00  0.00    -0.357 OA
ATOM     15  C   UNL     1      -2.593   4.120  25.263  0.00  0.00    +0.170 A 
ATOM     20  C   UNL     1      -3.252   3.795  25.637  0.00  0.00    +0.055 A 
BRANCH  15  16
ATOM     16  C   UNL     1      -1.914   4.405  25.636  0.00  0.00    +0.141 C 
BRANCH  16  17
ATOM     17  N   UNL     1      -1.175   4.292  25.287  0.00  0.00    -0.264 NA
ATOM     18  C   UNL     1      -0.837   4.893  24.835  0.00  0.00    +0.090 C 
ATOM     19  C   UNL     1      -0.774   3.578  25.391  0.00  0.00    +0.090 C 
ENDBRANCH  16  17
ENDBRANCH  15  16
ENDBRANCH  11  12
ENDBRANCH  10  11
TORSDOF 6
ENDMDL
MODEL 2
REMARK VINA RESULT:      -9.6      0.874      4.555
REMARK  Name = 
REMARK  6 active torsions:
REMARK  status: ('A' for Active; 'I' for Inactive)
REMARK    1  A    between atoms: C_2  and  N_4
REMARK    2  A    between atoms: N_7  and  C_8
REMARK    3  A    between atoms: C_10  and  C_11
REMARK    4  A    between atoms: C_11  and  C_12
REMARK    5  A    between atoms: C_15  and  C_16
REMARK    6  A    between atoms: C_16  and  N_17
REMARK                            x       y       z     vdW  Elec       q    Type
REMARK                         _______ _______ _______ _____ _____    ______ ____
ROOT
ATOM      8  C   UNL     1      -3.933   2.742  25.215  0.00  0.00    +0.097 C 
ATOM      9  C   UNL     1      -3.658   2.011  24.948  0.00  0.00    +0.022 C 
ATOM     10  C   UNL     1      -4.433   1.728  24.928  0.00  0.00    +0.009 C 
ATOM     21  C   UNL     1      -4.708   2.458  25.194  0.00  0.00    +0.019 C 
ATOM     22  C   UNL     1      -5.525   2.354  25.237  0.00  0.00    +0.002 C 
ATOM     23  C   UNL     1      -5.156   3.103  25.449  0.00  0.00    +0.002 C 
ENDROOT
BRANCH   8   7
ATOM      4  N   UNL     1      -2.422   4.296  25.468  0.00  0.00    -0.189 NA
ATOM      5  C   UNL     1      -2.776   3.579  25.266  0.00  0.00    +0.339 C 
ATOM      6  O   UNL     1      -2.329   2.983  24.912  0.00  0.00    -0.249 OA
ATOM      7  N   UNL     1      -3.579   3.459  25.417  0.00  0.00    -0.189 NA
BRANCH   4   2
ATOM      1  C   UNL     1      -1.059   3.893  25.622  0.00  0.00    +0.023 C 
ATOM      2  C   UNL     1      -1.619   4.417  25.317  0.00  0.00    +0.097 C 
ATOM      3  C   UNL     1      -1.377   5.060  24.860  0.00  0.00    +0.023 C 
ENDBRANCH   4   2
ENDBRANCH   8   7
BRANCH  10  11
ATOM     11  C   UNL     1      -4.787   1.011  24.725  0.00  0.00    +0.049 C 
BRANCH  11  12
ATOM     12  C   UNL     1      -4.323   0.336  24.623  0.00  0.00    +0.100 A 
ATOM     13  N   UNL     1      -3.893   0.141  23.946  0.00  0.00    -0.082 NA
ATOM     14  O   UNL     1      -3.511  -0.577  24.084  0.00  0.00    -0.357 OA
ATOM     15  C   UNL     1      -3.706  -0.826  24.847  0.00  0.00    +0.170 A 
ATOM     20  C   UNL     1      -4.207  -0.261  25.179  0.00  0.00    +0.055 A 
BRANCH  15  16
ATOM     16  C   UNL     1      -3.445  -1.518  25.212  0.00  0.00    +0.141 C 
BRANCH  16  17
ATOM     17  N   UNL     1      -3.137  -2.133  24.756  0.00  0.00    -0.264 NA
ATOM     18  C   UNL     1      -3.642  -2.705  24.440  0.00  0.00    +0.090 C 
ATOM     19  C   UNL     1      -2.325  -2.178  24.617  0.00  0.00    +0.090 C 
ENDBRANCH  16  17
ENDBRANCH  15  16
ENDBRANCH  11  12
ENDBRANCH  10  11
TORSDOF 6
ENDMDL
MODEL 3
REMARK VINA RESULT:      -9.0      2.190      4.253
REMARK  Name = 
REMARK  6 active torsions:
REMARK  status: ('A' for Active; 'I' for Inactive)
REMARK    1  A    between atoms: C_2  and  N_4
REMARK    2  A    between atoms: N_7  and  C_8
REMARK    3  A    between atoms: C_10  and  C_11
REMARK    4  A    between atoms: C_11  and  C_12
REMARK    5  A    between atoms: C_15  and  C_16
REMARK    6  A    between atoms: C_16  and  N_17
REMARK                            x       y       z     vdW  Elec       q    Type
REMARK                         _______ _______ _______ _____ _____    ______ ____
ROOT
ATOM      8  C   UNL     1      -4.030  -0.468  24.655  0.00  0.00    +0.097 C 
ATOM      9  C   UNL     1      -3.277  -0.394  24.984  0.00  0.00    +0.022 C 
ATOM     10  C   UNL     1      -3.102  -1.167  24.755  0.00  0.00    +0.009 C 
ATOM     21  C   UNL     1      -3.854  -1.241  24.427  0.00  0.00    +0.019 C 
ATOM     22  C   UNL     1      -3.860  -2.010  24.127  0.00  0.00    +0.002 C 
ATOM     23  C   UNL     1      -4.546  -1.494  24.054  0.00  0.00    +0.002 C 
ENDROOT
BRANCH   8   7
ATOM      4  N   UNL     1      -5.294   1.308  24.763  0.00  0.00    -0.189 NA
ATOM      5  C   UNL     1      -4.638   0.813  24.834  0.00  0.00    +0.339 C 
ATOM      6  O   UNL     1      -3.934   1.102  25.152  0.00  0.00    -0.249 OA
ATOM      7  N   UNL     1      -4.686   0.027  24.585  0.00  0.00    -0.189 NA
BRANCH   4   2
ATOM      1  C   UNL     1      -5.555   2.314  25.744  0.00  0.00    +0.023 C 
ATOM      2  C   UNL     1      -5.246   2.094  25.012  0.00  0.00    +0.097 C 
ATOM      3  C   UNL     1      -4.888   2.658  24.528  0.00  0.00    +0.023 C 
ENDBRANCH   4   2
ENDBRANCH   8   7
BRANCH  10  11
ATOM     11  C   UNL     1      -2.445  -1.662  24.826  0.00  0.00    +0.049 C 
BRANCH  11  12
ATOM     12  C   UNL     1      -1.691  -1.337  24.912  0.00  0.00    +0.100 A 
ATOM     13  N   UNL     1      -1.361  -1.058  25.614  0.00  0.00    -0.082 NA
ATOM     14  O   UNL     1      -0.601  -0.783  25.448  0.00  0.00    -0.357 OA
ATOM     15  C   UNL     1      -0.462  -0.893  24.642  0.00  0.00    +0.170 A 
ATOM     20  C   UNL     1      -1.136  -1.236  24.311  0.00  0.00    +0.055 A 
BRANCH  15  16
ATOM     16  C   UNL     1       0.230  -0.695  24.238  0.00  0.00    +0.141 C 
BRANCH  16  17
ATOM     17  N   UNL     1       0.245  -0.030  23.749  0.00  0.00    -0.264 NA
ATOM     18  C   UNL     1       0.350  -0.120  22.935  0.00  0.00    +0.090 C 
ATOM     19  C   UNL     1       0.156   0.723  24.073  0.00  0.00    +0.090 C 
ENDBRANCH  16  17
ENDBRANCH  15  16
ENDBRANCH  11  12
ENDBRANCH  10  11
TORSDOF 6
ENDMDL
MODEL 4
REMARK VINA RESULT:      -8.9      2.080      4.011
REMARK  Name = 
REMARK  6 active torsions:
REMARK  status: ('A' for Active; 'I' for Inactive)
REMARK    1  A    between atoms: C_2  and  N_4
REMARK    2  A    between atoms: N_7  and  C_8
REMARK    3  A    between atoms: C_10  and  C_11
REMARK    4  A    between atoms: C_11  and  C_12
REMARK    5  A    between atoms: C_15  and  C_16
REMARK    6  A    between atoms: C_16  and  N_17
REMARK                            x       y       z     vdW  Elec       q    Type
REMARK                         _______ _______ _______ _____ _____    ______ ____
ROOT
ATOM      8  C   UNL     1      -2.658   3.890  25.371  0.00  0.00    +0.097 C 
ATOM      9  C   UNL     1      -2.163   3.230  25.386  0.00  0.00    +0.022 C 
ATOM     10  C   UNL     1      -1.505   3.724  25.319  0.00  0.00    +0.009 C 
ATOM     21  C   UNL     1      -1.999   4.383  25.304  0.00  0.00    +0.019 C 
ATOM     22  C   UNL     1      -1.475   5.017  25.236  0.00  0.00    +0.002 C 
ATOM     23  C   UNL     1      -2.327   5.140  25.274  0.00  0.00    +0.002 C 
ENDROOT
BRANCH   8   7
ATOM      4  N   UNL     1      -4.800   3.476  25.431  0.00  0.00    -0.189 NA
ATOM      5  C   UNL     1      -3.984   3.359  25.394  0.00  0.00    +0.339 C 
ATOM      6  O   UNL     1      -3.679   2.594  25.343  0.00  0.00    -0.249 OA
ATOM      7  N   UNL     1      -3.474   4.008  25.409  0.00  0.00    -0.189 NA
BRANCH   4   2
ATOM      1  C   UNL     1      -5.463   2.439  24.705  0.00  0.00    +0.023 C 
ATOM      2  C   UNL     1      -5.311   2.828  25.417  0.00  0.00    +0.097 C 
ATOM      3  C   UNL     1      -5.668   2.569  26.114  0.00  0.00    +0.023 C 
ENDBRANCH   4   2
ENDBRANCH   8   7
BRANCH  10  11
ATOM     11  C   UNL     1      -0.689   3.606  25.282  0.00  0.00    +0.049 C 
BRANCH  11  12
ATOM     12  C   UNL     1      -0.385   2.840  25.221  0.00  0.00    +0.100 A 
ATOM     13  N   UNL     1      -0.200   2.340  25.850  0.00  0.00    -0.082 NA
ATOM     14  O   UNL     1       0.087   1.632  25.537  0.00  0.00    -0.357 OA
ATOM     15  C   UNL     1       0.078   1.696  24.714  0.00  0.00    +0.170 A 
ATOM     20  C   UNL     1      -0.213   2.443  24.519  0.00  0.00    +0.055 A 
BRANCH  15  16
ATOM     16  C   UNL     1       0.319   1.114  24.181  0.00  0.00    +0.141 C 
BRANCH  16  17
ATOM     17  N   UNL     1      -0.191   0.496  23.988  0.00  0.00    -0.264 NA
ATOM     18  C   UNL     1      -0.695   0.566  23.337  0.00  0.00    +0.090 C 
ATOM     19  C   UNL     1      -0.198  -0.191  24.443  0.00  0.00    +0.090 C 
ENDBRANCH  16  17
ENDBRANCH  15  16
ENDBRANCH  11  12
ENDBRANCH  10  11
TORSDOF 6
ENDMDL
MODEL 5
REMARK VINA RESULT:      -8.8      1.799      3.521
REMARK  Name = 
REMARK  6 active torsions:
REMARK  status: ('A' for Active; 'I' for Inactive)
REMARK    1  A    between atoms: C_2  and  N_4
REMARK    2  A    between atoms: N_7  and  C_8
REMARK    3  A    between atoms: C_10  and  C_11
REMARK    4  A    between atoms: C_11  and  C_12
REMARK    5  A    between atoms: C_15  and  C_16
REMARK    6  A    between atoms: C_16  and  N_17
REMARK                            x       y       z     vdW  Elec       q    Type
REMARK                         _______ _______ _______ _____ _____    ______ ____
ROOT
ATOM      8  C   UNL     1      -1.304   2.165  25.300  0.00  0.00    +0.097 C 
ATOM      9  C   UNL     1      -2.114   2.243  25.164  0.00  0.00    +0.022 C 
ATOM     10  C   UNL     1      -2.055   3.057  25.288  0.00  0.00    +0.009 C 
ATOM     21  C   UNL     1      -1.246   2.979  25.424  0.00  0.00    +0.019 C 
ATOM     22  C   UNL     1      -0.999   3.752  25.576  0.00  0.00    +0.002 C 
ATOM     23  C   UNL     1      -0.444   3.092  25.585  0.00  0.00    +0.002 C 
ENDROOT
BRANCH   8   7
ATOM      4  N   UNL     1      -0.510   0.137  25.161  0.00  0.00    -0.189 NA
ATOM      5  C   UNL     1      -1.040   0.768  25.153  0.00  0.00    +0.339 C 
ATOM      6  O   UNL     1      -1.838   0.635  24.990  0.00  0.00    -0.249 OA
ATOM      7  N   UNL     1      -0.773   1.534  25.308  0.00  0.00    -0.189 NA
BRANCH   4   2
ATOM      1  C   UNL     1      -0.710  -0.943  24.246  0.00  0.00    +0.023 C 
ATOM      2  C   UNL     1      -0.777  -0.629  25.006  0.00  0.00    +0.097 C 
ATOM      3  C   UNL     1      -1.112  -1.079  25.611  0.00  0.00    +0.023 C 
ENDBRANCH   4   2
ENDBRANCH   8   7
BRANCH  10  11
ATOM     11  C   UNL     1      -2.587   3.688  25.280  0.00  0.00    +0.049 C 
BRANCH  11  12
ATOM     12  C   UNL     1      -3.376   3.561  25.073  0.00  0.00    +0.100 A 
ATOM     13  N   UNL     1      -3.670   3.491  24.306  0.00  0.00    -0.082 NA
ATOM     14  O   UNL     1      -4.484   3.368  24.355  0.00  0.00    -0.357 OA
ATOM     15  C   UNL     1      -4.692   3.362  25.154  0.00  0.00    +0.170 A 
ATOM     20  C   UNL     1      -4.007   3.481  25.597  0.00  0.00    +0.055 A 
BRANCH  15  16
ATOM     16  C   UNL     1      -5.453   3.255  25.455  0.00  0.00    +0.141 C 
BRANCH  16  17
ATOM     17  N   UNL     1      -5.763   2.493  25.532  0.00  0.00    -0.264 NA
ATOM     18  C   UNL     1      -5.835   2.152  26.280  0.00  0.00    +0.090 C 
ATOM     19  C   UNL     1      -5.999   2.075  24.862  0.00  0.00    +0.090 C 
ENDBRANCH  16  17
ENDBRANCH  15  16
ENDBRANCH  11  12
ENDBRANCH  10  11
TORSDOF 6
ENDMDL
