MODEL 1
REMARK VINA RESULT:     -11.0      0.000      0.000
REMARK  Name = 
REMARK  9 active torsions:
REMARK  status: ('A' for Active; 'I' for Inactive)
REMARK    1  A    between atoms: C_2  and  C_3
REMARK    2  A    between atoms: C_6  and  C_7
REMARK    3  A    between atoms: C_7  and  N_8
REMARK    4  A    between atoms: N_8  and  C_9
REMARK    5  A    between atoms: C_14  and  C_15
REMARK    6  A    between atoms: C_15  and  C_16
REMARK    7  A    between atoms: C_16  and  C_17
REMARK    8  A    between atoms: N_19  and  C_20
REMARK    9  A    between atoms: C_20  and  C_21
REMARK                            x       y       z     vdW  Elec       q    Type
REMARK                         _______ _______ _______ _____ _____    ______ ____
ROOT
ATOM      9  C   UNL     1      -2.211   2.910  25.170  0.00  0.00    +0.091 C 
ATOM     10  C   UNL     1      -1.603   3.324  24.795  0.00  0.00    +0.044 C 
ATOM     11  C   UNL     1      -0.968   2.807  24.695  0.00  0.00    +0.138 C 
ATOM     12  N   UNL     1      -1.183   2.074  25.008  0.00  0.00    -0.265 NA
ATOM     13  C   UNL     1      -1.951   2.139  25.302  0.00  0.00    +0.090 C 
ATOM     14  C   UNL     1      -0.651   1.444  24.985  0.00  0.00    +0.080 C 
ATOM     27  C   UNL     1       0.096   1.546  24.649  0.00  0.00    +0.131 C 
ATOM     28  N   UNL     1       0.310   2.278  24.336  0.00  0.00    -0.203 NA
ATOM     29  C   UNL     1      -0.221   2.909  24.358  0.00  0.00    +0.256 C 
ATOM     30  O   UNL     1      -0.006   3.641  24.045  0.00  0.00    -0.272 OA
ENDROOT
BRANCH   9   8
ATOM      8  N   UNL     1      -2.948   3.216  25.377  0.00  0.00    -0.210 NA
BRANCH   8   7
ATOM      7  C   UNL     1      -3.571   3.193  24.837  0.00  0.00    +0.153 C 
BRANCH   7   6
ATOM      3  C   UNL     1      -5.556   2.661  25.416  0.00  0.00    +0.156 A 
ATOM      4  C   UNL     1      -5.536   3.457  25.630  0.00  0.00    +0.038 A 
ATOM      5  C   UNL     1      -4.790   3.754  25.439  0.00  0.00    +0.037 A 
ATOM      6  C   UNL     1      -4.349   3.141  25.107  0.00  0.00    +0.140 A 
ATOM     31  O   UNL     1      -4.823   2.465  25.094  0.00  0.00    -0.458 OA
BRANCH   3   2
ATOM      1  O   UNL     1      -6.466   1.707  24.867  0.00  0.00    -0.212 OA
ATOM      2  C   UNL     1      -6.197   2.150  25.509  0.00  0.00    +0.246 C 
ENDBRANCH   3   2
ENDBRANCH   7   6
ENDBRANCH   8   7
ENDBRANCH   9   8
BRANCH  14  15
ATOM     15  C   UNL     1      -0.866   0.713  25.299  0.00  0.00    +0.027 C 
BRANCH  15  16
ATOM     16  C   UNL     1      -0.764   0.026  24.851  0.00  0.00    +0.088 C 
BRANCH  16  17
ATOM     17  C   UNL     1      -1.126  -0.678  25.087  0.00  0.00    +0.242 C 
ATOM     18  O   UNL     1      -0.797  -1.127  25.694  0.00  0.00    -0.273 OA
ATOM     19  N   UNL     1      -1.817  -0.930  24.715  0.00  0.00    -0.201 NA
BRANCH  19  20
ATOM     20  C   UNL     1      -2.178  -1.633  24.951  0.00  0.00    +0.141 C 
BRANCH  20  21
ATOM     21  C   UNL     1      -2.898  -1.860  24.615  0.00  0.00    -0.001 A 
ATOM     22  C   UNL     1      -3.453  -1.287  24.405  0.00  0.00    -0.003 A 
ATOM     23  C   UNL     1      -4.173  -1.513  24.070  0.00  0.00    -0.000 A 
ATOM     24  C   UNL     1      -4.336  -2.312  23.944  0.00  0.00    -0.000 A 
ATOM     25  C   UNL     1      -3.780  -2.885  24.154  0.00  0.00    -0.000 A 
ATOM     26  C   UNL     1      -3.061  -2.659  24.489  0.00  0.00    -0.003 A 
ENDBRANCH  20  21
ENDBRANCH  19  20
ENDBRANCH  16  17
ENDBRANCH  15  16
ENDBRANCH  14  15
TORSDOF 9
ENDMDL
MODEL 2
REMARK VINA RESULT:     -10.9      1.652      4.248
REMARK  Name = 
REMARK  9 active torsions:
REMARK  status: ('A' for Active; 'I' for Inactive)
REMARK    1  A    between atoms: C_2  and  C_3
REMARK    2  A    between atoms: C_6  and  C_7
REMARK    3  A    between atoms: C_7  and  N_8
REMARK    4  A    between atoms: N_8  and  C_9
REMARK    5  A    between atoms: C_14  and  C_15
REMARK    6  A    between atoms: C_15  and  C_16
REMARK    7  A    between atoms: C_16  and  C_17
REMARK    8  A    between atoms: N_19  and  C_20
REMARK    9  A    between atoms: C_20  and  C_21
REMARK                            x       y       z     vdW  Elec       q    Type
REMARK                         _______ _______ _______ _____ _____    ______ ____
ROOT
ATOM      9  C   UNL     1      -1.024   2.477  24.301  0.00  0.00    +0.091 C 
ATOM     10  C   UNL     1      -0.930   3.218  24.652  0.00  0.00    +0.044 C 
ATOM     11  C   UNL     1      -1.678   3.503  24.851  0.00  0.00    +0.138 C 
ATOM     12  N   UNL     1      -2.235   2.938  24.622  0.00  0.00    -0.265 NA
ATOM     13  C   UNL     1      -1.830   2.304  24.282  0.00  0.00    +0.090 C 
ATOM     14  C   UNL     1      -3.038   3.075  24.753  0.00  0.00    +0.080 C 
ATOM     27  C   UNL     1      -3.284   3.775  25.113  0.00  0.00    +0.131 C 
ATOM     28  N   UNL     1      -2.728   4.339  25.341  0.00  0.00    -0.203 NA
ATOM     29  C   UNL     1      -1.924   4.203  25.210  0.00  0.00    +0.256 C 
ATOM     30  O   UNL     1      -1.368   4.767  25.439  0.00  0.00    -0.272 OA
ENDROOT
BRANCH   9   8
ATOM      8  N   UNL     1      -0.418   1.994  24.018  0.00  0.00    -0.210 NA
BRANCH   8   7
ATOM      7  C   UNL     1      -0.340   1.222  24.298  0.00  0.00    +0.153 C 
BRANCH   7   6
ATOM      3  C   UNL     1       1.087   0.125  23.150  0.00  0.00    +0.156 A 
ATOM      4  C   UNL     1       0.525  -0.458  23.306  0.00  0.00    +0.038 A 
ATOM      5  C   UNL     1      -0.078  -0.118  23.755  0.00  0.00    +0.037 A 
ATOM      6  C   UNL     1       0.111   0.675  23.877  0.00  0.00    +0.140 A 
ATOM     31  O   UNL     1       0.831   0.826  23.503  0.00  0.00    -0.458 OA
BRANCH   3   2
ATOM      1  O   UNL     1       1.745  -0.174  21.917  0.00  0.00    -0.212 OA
ATOM      2  C   UNL     1       1.782   0.026  22.717  0.00  0.00    +0.246 C 
ENDBRANCH   3   2
ENDBRANCH   7   6
ENDBRANCH   8   7
ENDBRANCH   9   8
BRANCH  14  15
ATOM     15  C   UNL     1      -3.594   2.510  24.524  0.00  0.00    +0.027 C 
BRANCH  15  16
ATOM     16  C   UNL     1      -4.138   2.221  25.074  0.00  0.00    +0.088 C 
BRANCH  16  17
ATOM     17  C   UNL     1      -4.556   1.527  24.915  0.00  0.00    +0.242 C 
ATOM     18  O   UNL     1      -5.343   1.567  24.673  0.00  0.00    -0.273 OA
ATOM     19  N   UNL     1      -4.186   0.795  24.997  0.00  0.00    -0.201 NA
BRANCH  19  20
ATOM     20  C   UNL     1      -4.604   0.102  24.838  0.00  0.00    +0.141 C 
BRANCH  20  21
ATOM     21  C   UNL     1      -4.209  -0.623  24.819  0.00  0.00    -0.001 A 
ATOM     22  C   UNL     1      -3.783  -0.877  25.478  0.00  0.00    -0.003 A 
ATOM     23  C   UNL     1      -3.388  -1.602  25.458  0.00  0.00    -0.000 A 
ATOM     24  C   UNL     1      -3.419  -2.071  24.780  0.00  0.00    -0.000 A 
ATOM     25  C   UNL     1      -3.845  -1.815  24.122  0.00  0.00    -0.000 A 
ATOM     26  C   UNL     1      -4.240  -1.092  24.141  0.00  0.00    -0.003 A 
ENDBRANCH  20  21
ENDBRANCH  19  20
ENDBRANCH  16  17
ENDBRANCH  15  16
ENDBRANCH  14  15
TORSDOF 9
ENDMDL
MODEL 3
REMARK VINA RESULT:     -10.8      1.316      4.189
REMARK  Name = 
REMARK  9 active torsions:
REMARK  status: ('A' for Active; 'I' for Inactive)
REMARK    1  A    between atoms: C_2  and  C_3
REMARK    2  A    between atoms: C_6  and  C_7
REMARK    3  A    between atoms: C_7  and  N_8
REMARK    4  A    between atoms: N_8  and  C_9
REMARK    5  A    between atoms: C_14  and  C_15
REMARK    6  A    between atoms: C_15  and  C_16
REMARK    7  A    between atoms: C_16  and  C_17
REMARK    8  A    between atoms: N_19  and  C_20
REMARK    9  A    between atoms: C_20  and  C_21
REMARK                            x       y       z     vdW  Elec       q    Type
REMARK                         _______ _______ _______ _____ _____    ______ ____
ROOT
ATOM      9  C   UNL     1      -3.356  -0.103  25.056  0.00  0.00    +0.091 C 
ATOM     10  C   UNL     1      -3.170  -0.864  24.794  0.00  0.00    +0.044 C 
ATOM     11  C   UNL     1      -2.348  -0.940  24.798  0.00  0.00    +0.138 C 
ATOM     12  N   UNL     1      -2.027  -0.227  25.061  0.00  0.00    -0.265 NA
ATOM     13  C   UNL     1      -2.650   0.290  25.221  0.00  0.00    +0.090 C 
ATOM     14  C   UNL     1      -1.209  -0.142  25.122  0.00  0.00    +0.080 C 
ATOM     27  C   UNL     1      -0.712  -0.768  24.920  0.00  0.00    +0.131 C 
ATOM     28  N   UNL     1      -1.033  -1.480  24.656  0.00  0.00    -0.203 NA
ATOM     29  C   UNL     1      -1.851  -1.567  24.595  0.00  0.00    +0.256 C 
ATOM     30  O   UNL     1      -2.172  -2.279  24.332  0.00  0.00    -0.272 OA
ENDROOT
BRANCH   9   8
ATOM      8  N   UNL     1      -4.115   0.208  25.137  0.00  0.00    -0.210 NA
BRANCH   8   7
ATOM      7  C   UNL     1      -4.352   0.847  24.672  0.00  0.00    +0.153 C 
BRANCH   7   6
ATOM      3  C   UNL     1      -5.494   2.442  25.515  0.00  0.00    +0.156 A 
ATOM      4  C   UNL     1      -6.092   1.931  25.268  0.00  0.00    +0.038 A 
ATOM      5  C   UNL     1      -5.737   1.271  24.922  0.00  0.00    +0.037 A 
ATOM      6  C   UNL     1      -4.920   1.374  24.956  0.00  0.00    +0.140 A 
ATOM     31  O   UNL     1      -4.769   2.099  25.322  0.00  0.00    -0.458 OA
BRANCH   3   2
ATOM      1  O   UNL     1      -5.538   3.869  25.456  0.00  0.00    -0.212 OA
ATOM      2  C   UNL     1      -5.601   3.169  25.889  0.00  0.00    +0.246 C 
ENDBRANCH   3   2
ENDBRANCH   7   6
ENDBRANCH   8   7
ENDBRANCH   9   8
BRANCH  14  15
ATOM     15  C   UNL     1      -0.888   0.571  25.386  0.00  0.00    +0.027 C 
BRANCH  15  16
ATOM     16  C   UNL     1      -0.464   1.050  24.864  0.00  0.00    +0.088 C 
BRANCH  16  17
ATOM     17  C   UNL     1      -0.188   1.788  25.112  0.00  0.00    +0.242 C 
ATOM     18  O   UNL     1       0.579   1.864  25.403  0.00  0.00    -0.273 OA
ATOM     19  N   UNL     1      -0.680   2.448  25.069  0.00  0.00    -0.201 NA
BRANCH  19  20
ATOM     20  C   UNL     1      -0.404   3.184  25.317  0.00  0.00    +0.141 C 
BRANCH  20  21
ATOM     21  C   UNL     1      -0.899   3.844  25.278  0.00  0.00    -0.001 A 
ATOM     22  C   UNL     1      -1.649   3.818  25.620  0.00  0.00    -0.003 A 
ATOM     23  C   UNL     1      -2.143   4.478  25.580  0.00  0.00    -0.000 A 
ATOM     24  C   UNL     1      -1.887   5.164  25.200  0.00  0.00    -0.000 A 
ATOM     25  C   UNL     1      -1.136   5.189  24.858  0.00  0.00    -0.000 A 
ATOM     26  C   UNL     1      -0.642   4.530  24.897  0.00  0.00    -0.003 A 
ENDBRANCH  20  21
ENDBRANCH  19  20
ENDBRANCH  16  17
ENDBRANCH  15  16
ENDBRANCH  14  15
TORSDOF 9
ENDMDL
MODEL 4
REMARK VINA RESULT:     -10.8      1.376      4.158
REMARK  Name = 
REMARK  9 active torsions:
REMARK  status: ('A' for Active; 'I' for Inactive)
REMARK    1  A    between atoms: C_2  and  C_3
REMARK    2  A    between atoms: C_6  and  C_7
REMARK    3  A    between atoms: C_7  and  N_8
REMARK    4  A    between atoms: N_8  and  C_9
REMARK    5  A    between atoms: C_14  and  C_15
REMARK    6  A    between atoms: C_15  and  C_16
REMARK    7  A    between atoms: C_16  and  C_17
REMARK    8  A    between atoms: N_19  and  C_20
REMARK    9  A    between atoms: C_20  and  C_21
REMARK                            x       y       z     vdW  Elec       q    Type
REMARK                         _______ _______ _______ _____ _____    ______ ____
ROOT
ATOM      9  C   UNL     1      -1.189   0.616  25.111  0.00  0.00    +0.091 C 
ATOM     10  C   UNL     1      -0.459   0.765  24.756  0.00  0.00    +0.044 C 
ATOM     11  C   UNL     1      -0.297   1.570  24.832  0.00  0.00    +0.138 C 
ATOM     12  N   UNL     1      -0.928   1.920  25.234  0.00  0.00    -0.265 NA
ATOM     13  C   UNL     1      -1.479   1.330  25.406  0.00  0.00    +0.090 C 
ATOM     14  C   UNL     1      -0.919   2.729  25.391  0.00  0.00    +0.080 C 
ATOM     27  C   UNL     1      -0.280   3.190  25.146  0.00  0.00    +0.131 C 
ATOM     28  N   UNL     1       0.350   2.841  24.745  0.00  0.00    -0.203 NA
ATOM     29  C   UNL     1       0.342   2.031  24.587  0.00  0.00    +0.256 C 
ATOM     30  O   UNL     1       0.971   1.682  24.186  0.00  0.00    -0.272 OA
ENDROOT
BRANCH   9   8
ATOM      8  N   UNL     1      -1.562  -0.117  25.161  0.00  0.00    -0.210 NA
BRANCH   8   7
ATOM      7  C   UNL     1      -2.342  -0.202  24.904  0.00  0.00    +0.153 C 
BRANCH   7   6
ATOM      3  C   UNL     1      -3.178  -2.166  24.882  0.00  0.00    +0.156 A 
ATOM      4  C   UNL     1      -3.532  -1.850  25.555  0.00  0.00    +0.038 A 
ATOM      5  C   UNL     1      -3.262  -1.076  25.646  0.00  0.00    +0.037 A 
ATOM      6  C   UNL     1      -2.741  -0.914  25.028  0.00  0.00    +0.140 A 
ATOM     31  O   UNL     1      -2.688  -1.588  24.555  0.00  0.00    -0.458 OA
BRANCH   3   2
ATOM      1  O   UNL     1      -3.919  -3.080  24.071  0.00  0.00    -0.212 OA
ATOM      2  C   UNL     1      -3.292  -2.928  24.585  0.00  0.00    +0.246 C 
ENDBRANCH   3   2
ENDBRANCH   7   6
ENDBRANCH   8   7
ENDBRANCH   9   8
BRANCH  14  15
ATOM     15  C   UNL     1      -1.549   3.078  25.793  0.00  0.00    +0.027 C 
BRANCH  15  16
ATOM     16  C   UNL     1      -1.968   3.698  25.444  0.00  0.00    +0.088 C 
BRANCH  16  17
ATOM     17  C   UNL     1      -2.742   3.858  25.681  0.00  0.00    +0.242 C 
ATOM     18  O   UNL     1      -2.887   4.428  26.258  0.00  0.00    -0.273 OA
ATOM     19  N   UNL     1      -3.371   3.447  25.340  0.00  0.00    -0.201 NA
BRANCH  19  20
ATOM     20  C   UNL     1      -4.144   3.607  25.577  0.00  0.00    +0.141 C 
BRANCH  20  21
ATOM     21  C   UNL     1      -4.742   3.057  25.432  0.00  0.00    -0.001 A 
ATOM     22  C   UNL     1      -5.303   2.895  26.015  0.00  0.00    -0.003 A 
ATOM     23  C   UNL     1      -5.901   2.344  25.869  0.00  0.00    -0.000 A 
ATOM     24  C   UNL     1      -5.937   1.956  25.142  0.00  0.00    -0.000 A 
ATOM     25  C   UNL     1      -5.375   2.119  24.560  0.00  0.00    -0.000 A 
ATOM     26  C   UNL     1      -4.778   2.669  24.705  0.00  0.00    -0.003 A 
ENDBRANCH  20  21
ENDBRANCH  19  20
ENDBRANCH  16  17
ENDBRANCH  15  16
ENDBRANCH  14  15
TORSDOF 9
ENDMDL
MODEL 5
REMARK VINA RESULT:     -10.8      1.462      5.260
REMARK  Name = 
REMARK  9 active torsions:
REMARK  status: ('A' for Active; 'I' for Inactive)
REMARK    1  A    between atoms: C_2  and  C_3
REMARK    2  A    between atoms: C_6  and  C_7
REMARK    3  A    between atoms: C_7  and  N_8
REMARK    4  A    between atoms: N_8  and  C_9
REMARK    5  A    between atoms: C_14  and  C_15
REMARK    6  A    between atoms: C_15  and  C_16
REMARK    7  A    between atoms: C_16  and  C_17
REMARK    8  A    between atoms: N_19  and  C_20
REMARK    9  A    between atoms: C_20  and  C_21
REMARK                            x       y       z     vdW  Elec       q    Type
REMARK                         _______ _______ _______ _____ _____    ______ ____
ROOT
ATOM      9  C   UNL     1      -4.669   0.927  24.804  0.00  0.00    +0.091 C 
ATOM     10  C   UNL     1      -5.367   1.083  25.215  0.00  0.00    +0.044 C 
ATOM     11  C   UNL     1      -5.373   1.884  25.412  0.00  0.00    +0.138 C 
ATOM     12  N   UNL     1      -4.679   2.223  25.122  0.00  0.00    -0.265 NA
ATOM     13  C   UNL     1      -4.243   1.631  24.747  0.00  0.00    +0.090 C 
ATOM     14  C   UNL     1      -4.533   3.027  25.239  0.00  0.00    +0.080 C 
ATOM     27  C   UNL     1      -5.081   3.491  25.644  0.00  0.00    +0.131 C 
ATOM     28  N   UNL     1      -5.775   3.152  25.933  0.00  0.00    -0.203 NA
ATOM     29  C   UNL     1      -5.922   2.349  25.817  0.00  0.00    +0.256 C 
ATOM     30  O   UNL     1      -6.615   2.010  26.106  0.00  0.00    -0.272 OA
ENDROOT
BRANCH   9   8
ATOM      8  N   UNL     1      -4.437   0.195  24.503  0.00  0.00    -0.210 NA
BRANCH   8   7
ATOM      7  C   UNL     1      -4.156  -0.391  25.012  0.00  0.00    +0.153 C 
BRANCH   7   6
ATOM      3  C   UNL     1      -3.087  -2.156  24.465  0.00  0.00    +0.156 A 
ATOM      4  C   UNL     1      -3.764  -2.229  24.001  0.00  0.00    +0.038 A 
ATOM      5  C   UNL     1      -4.247  -1.577  24.149  0.00  0.00    +0.037 A 
ATOM      6  C   UNL     1      -3.869  -1.101  24.705  0.00  0.00    +0.140 A 
ATOM     31  O   UNL     1      -3.151  -1.458  24.901  0.00  0.00    -0.458 OA
BRANCH   3   2
ATOM      1  O   UNL     1      -1.701  -2.439  24.265  0.00  0.00    -0.212 OA
ATOM      2  C   UNL     1      -2.456  -2.686  24.490  0.00  0.00    +0.246 C 
ENDBRANCH   3   2
ENDBRANCH   7   6
ENDBRANCH   8   7
ENDBRANCH   9   8
BRANCH  14  15
ATOM     15  C   UNL     1      -3.839   3.365  24.949  0.00  0.00    +0.027 C 
BRANCH  15  16
ATOM     16  C   UNL     1      -3.419   3.905  25.412  0.00  0.00    +0.088 C 
BRANCH  16  17
ATOM     17  C   UNL     1      -2.640   4.097  25.218  0.00  0.00    +0.242 C 
ATOM     18  O   UNL     1      -2.472   4.811  24.844  0.00  0.00    -0.273 OA
ATOM     19  N   UNL     1      -2.029   3.572  25.400  0.00  0.00    -0.201 NA
BRANCH  19  20
ATOM     20  C   UNL     1      -1.251   3.764  25.206  0.00  0.00    +0.141 C 
BRANCH  20  21
ATOM     21  C   UNL     1      -0.668   3.180  25.216  0.00  0.00    -0.001 A 
ATOM     22  C   UNL     1      -0.379   2.898  25.935  0.00  0.00    -0.003 A 
ATOM     23  C   UNL     1       0.204   2.314  25.945  0.00  0.00    -0.000 A 
ATOM     24  C   UNL     1       0.498   2.012  25.236  0.00  0.00    -0.000 A 
ATOM     25  C   UNL     1       0.208   2.295  24.516  0.00  0.00    -0.000 A 
ATOM     26  C   UNL     1      -0.374   2.878  24.506  0.00  0.00    -0.003 A 
ENDBRANCH  20  21
ENDBRANCH  19  20
ENDBRANCH  16  17
ENDBRANCH  15  16
ENDBRANCH  14  15
TORSDOF 9
ENDMDL
MODEL 6
REMARK VINA RESULT:     -10.3      1.611      4.012
REMARK  Name = 
REMARK  9 active torsions:
REMARK  status: ('A' for Active; 'I' for Inactive)
REMARK    1  A    between atoms: C_2  and  C_3
REMARK    2  A    between atoms: C_6  and  C_7
REMARK    3  A    between atoms: C_7  and  N_8
REMARK    4  A    between atoms: N_8  and  C_9
REMARK    5  A    between atoms: C_14  and  C_15
REMARK    6  A    between atoms: C_15  and  C_16
REMARK    7  A    between atoms: C_16  and  C_17
REMARK    8  A    between atoms: N_19  and  C_20
REMARK    9  A    between atoms: C_20  and  C_21
REMARK                            x       y       z     vdW  Elec       q    Type
REMARK                         _______ _______ _______ _____ _____    ______ ____
ROOT
ATOM      9  C   UNL     1      -3.703   3.308  25.004  0.00  0.00    +0.091 C 
ATOM     10  C   UNL     1      -4.410   3.595  25.319  0.00  0.00    +0.044 C 
ATOM     11  C   UNL     1      -4.959   2.979  25.314  0.00  0.00    +0.138 C 
ATOM     12  N   UNL     1      -4.590   2.311  24.997  0.00  0.00    -0.265 NA
ATOM     13  C   UNL     1      -3.814   2.516  24.805  0.00  0.00    +0.090 C 
ATOM     14  C   UNL     1      -5.010   1.605  24.924  0.00  0.00    +0.080 C 
ATOM     27  C   UNL     1      -5.797   1.565  25.168  0.00  0.00    +0.131 C 
ATOM     28  N   UNL     1      -6.164   2.231  25.485  0.00  0.00    -0.203 NA
ATOM     29  C   UNL     1      -5.746   2.939  25.558  0.00  0.00    +0.256 C 
ATOM     30  O   UNL     1      -6.113   3.605  25.875  0.00  0.00    -0.272 OA
ENDROOT
BRANCH   9   8
ATOM      8  N   UNL     1      -3.007   3.740  24.906  0.00  0.00    -0.210 NA
BRANCH   8   7
ATOM      7  C   UNL     1      -2.498   3.854  25.545  0.00  0.00    +0.153 C 
BRANCH   7   6
ATOM      3  C   UNL     1      -0.425   3.362  25.409  0.00  0.00    +0.156 A 
ATOM      4  C   UNL     1      -0.425   4.133  25.117  0.00  0.00    +0.038 A 
ATOM      5  C   UNL     1      -1.201   4.412  25.133  0.00  0.00    +0.037 A 
ATOM      6  C   UNL     1      -1.681   3.813  25.434  0.00  0.00    +0.140 A 
ATOM     31  O   UNL     1      -1.201   3.163  25.605  0.00  0.00    -0.458 OA
BRANCH   3   2
ATOM      1  O   UNL     1       0.410   2.537  26.224  0.00  0.00    -0.212 OA
ATOM      2  C   UNL     1       0.235   2.874  25.491  0.00  0.00    +0.246 C 
ENDBRANCH   3   2
ENDBRANCH   7   6
ENDBRANCH   8   7
ENDBRANCH   9   8
BRANCH  14  15
ATOM     15  C   UNL     1      -4.641   0.939  24.607  0.00  0.00    +0.027 C 
BRANCH  15  16
ATOM     16  C   UNL     1      -4.654   0.224  25.021  0.00  0.00    +0.088 C 
BRANCH  16  17
ATOM     17  C   UNL     1      -4.232  -0.426  24.736  0.00  0.00    +0.242 C 
ATOM     18  O   UNL     1      -4.558  -0.904  24.150  0.00  0.00    -0.273 OA
ATOM     19  N   UNL     1      -3.484  -0.596  25.039  0.00  0.00    -0.201 NA
BRANCH  19  20
ATOM     20  C   UNL     1      -3.063  -1.245  24.753  0.00  0.00    +0.141 C 
BRANCH  20  21
ATOM     21  C   UNL     1      -2.262  -1.329  24.936  0.00  0.00    -0.001 A 
ATOM     22  C   UNL     1      -1.881  -0.756  25.390  0.00  0.00    -0.003 A 
ATOM     23  C   UNL     1      -1.080  -0.840  25.572  0.00  0.00    -0.000 A 
ATOM     24  C   UNL     1      -0.662  -1.498  25.301  0.00  0.00    -0.000 A 
ATOM     25  C   UNL     1      -1.044  -2.071  24.847  0.00  0.00    -0.000 A 
ATOM     26  C   UNL     1      -1.844  -1.987  24.664  0.00  0.00    -0.003 A 
ENDBRANCH  20  21
ENDBRANCH  19  20
ENDBRANCH  16  17
ENDBRANCH  15  16
ENDBRANCH  14  15
TORSDOF 9
ENDMDL
MODEL 7
REMARK VINA RESULT:     -10.2      1.367      4.234
REMARK  Name = 
REMARK  9 active torsions:
REMARK  status: ('A' for Active; 'I' for Inactive)
REMARK    1  A    between atoms: C_2  and  C_3
REMARK    2  A    between atoms: C_6  and  C_7
REMARK    3  A    between atoms: C_7  and  N_8
REMARK    4  A    between atoms: N_8  and  C_9
REMARK    5  A    between atoms: C_14  and  C_15
REMARK    6  A    between atoms: C_15  and  C_16
REMARK    7  A    between atoms: C_16  and  C_17
REMARK    8  A    between atoms: N_19  and  C_20
REMARK    9  A    between atoms: C_20  and  C_21
REMARK                            x       y       z     vdW  Elec       q    Type
REMARK                         _______ _______ _______ _____ _____    ______ ____
ROOT
ATOM      9  C   UNL     1      -0.853   0.600  24.782  0.00  0.00    +0.091 C 
ATOM     10  C   UNL     1      -0.438  -0.075  25.014  0.00  0.00    +0.044 C 
ATOM     11  C   UNL     1      -0.951  -0.719  24.966  0.00  0.00    +0.138 C 
ATOM     12  N   UNL     1      -1.684  -0.442  24.704  0.00  0.00    -0.265 NA
ATOM     13  C   UNL     1      -1.622   0.373  24.591  0.00  0.00    +0.090 C 
ATOM     14  C   UNL     1      -2.311  -0.968  24.603  0.00  0.00    +0.080 C 
ATOM     27  C   UNL     1      -2.207  -1.770  24.764  0.00  0.00    +0.131 C 
ATOM     28  N   UNL     1      -1.475  -2.047  25.025  0.00  0.00    -0.203 NA
ATOM     29  C   UNL     1      -0.847  -1.521  25.127  0.00  0.00    +0.256 C 
ATOM     30  O   UNL     1      -0.116  -1.797  25.388  0.00  0.00    -0.272 OA
ENDROOT
BRANCH   9   8
ATOM      8  N   UNL     1      -0.551   1.367  24.748  0.00  0.00    -0.210 NA
BRANCH   8   7
ATOM      7  C   UNL     1      -0.708   1.900  25.357  0.00  0.00    +0.153 C 
BRANCH   7   6
ATOM      3  C   UNL     1      -1.137   3.986  25.203  0.00  0.00    +0.156 A 
ATOM      4  C   UNL     1      -0.492   3.918  24.695  0.00  0.00    +0.038 A 
ATOM      5  C   UNL     1      -0.252   3.129  24.691  0.00  0.00    +0.037 A 
ATOM      6  C   UNL     1      -0.750   2.709  25.196  0.00  0.00    +0.140 A 
ATOM     31  O   UNL     1      -1.297   3.238  25.513  0.00  0.00    -0.458 OA
BRANCH   3   2
ATOM      1  O   UNL     1      -1.322   5.392  25.025  0.00  0.00    -0.212 OA
ATOM      2  C   UNL     1      -1.552   4.679  25.373  0.00  0.00    +0.246 C 
ENDBRANCH   3   2
ENDBRANCH   7   6
ENDBRANCH   8   7
ENDBRANCH   9   8
BRANCH  14  15
ATOM     15  C   UNL     1      -3.042  -0.691  24.341  0.00  0.00    +0.027 C 
BRANCH  15  16
ATOM     16  C   UNL     1      -3.698  -0.723  24.842  0.00  0.00    +0.088 C 
BRANCH  16  17
ATOM     17  C   UNL     1      -4.374  -0.281  24.666  0.00  0.00    +0.242 C 
ATOM     18  O   UNL     1      -4.955  -0.596  24.174  0.00  0.00    -0.273 OA
ATOM     19  N   UNL     1      -4.466   0.475  24.982  0.00  0.00    -0.201 NA
BRANCH  19  20
ATOM     20  C   UNL     1      -5.140   0.915  24.806  0.00  0.00    +0.141 C 
BRANCH  20  21
ATOM     21  C   UNL     1      -5.198   1.699  25.058  0.00  0.00    -0.001 A 
ATOM     22  C   UNL     1      -5.713   1.898  25.671  0.00  0.00    -0.003 A 
ATOM     23  C   UNL     1      -5.770   2.682  25.923  0.00  0.00    -0.000 A 
ATOM     24  C   UNL     1      -5.314   3.266  25.561  0.00  0.00    -0.000 A 
ATOM     25  C   UNL     1      -4.800   3.066  24.948  0.00  0.00    -0.000 A 
ATOM     26  C   UNL     1      -4.742   2.284  24.696  0.00  0.00    -0.003 A 
ENDBRANCH  20  21
ENDBRANCH  19  20
ENDBRANCH  16  17
ENDBRANCH  15  16
ENDBRANCH  14  15
TORSDOF 9
ENDMDL
MODEL 8
REMARK VINA RESULT:      -7.9     15.705     19.052
REMARK  Name = 
REMARK  9 active torsions:
REMARK  status: ('A' for Active; 'I' for Inactive)
REMARK    1  A    between atoms: C_2  and  C_3
REMARK    2  A    between atoms: C_6  and  C_7
REMARK    3  A    between atoms: C_7  and  N_8
REMARK    4  A    between atoms: N_8  and  C_9
REMARK    5  A    between atoms: C_14  and  C_15
REMARK    6  A    between atoms: C_15  and  C_16
REMARK    7  A    between atoms: C_16  and  C_17
REMARK    8  A    between atoms: N_19  and  C_20
REMARK    9  A    between atoms: C_20  and  C_21
REMARK                            x       y       z     vdW  Elec       q    Type
REMARK                         _______ _______ _______ _____ _____    ______ ____
ROOT
ATOM      9  C   UNL     1      14.735   7.894  18.139  0.00  0.00    +0.091 C 
ATOM     10  C   UNL     1      14.767   7.945  17.316  0.00  0.00    +0.044 C 
ATOM     11  C   UNL     1      14.030   8.198  17.047  0.00  0.00    +0.138 C 
ATOM     12  N   UNL     1      13.541   8.304  17.704  0.00  0.00    -0.265 NA
ATOM     13  C   UNL     1      13.977   8.116  18.379  0.00  0.00    +0.090 C 
ATOM     14  C   UNL     1      12.763   8.557  17.602  0.00  0.00    +0.080 C 
ATOM     27  C   UNL     1      12.473   8.705  16.844  0.00  0.00    +0.131 C 
ATOM     28  N   UNL     1      12.961   8.600  16.188  0.00  0.00    -0.203 NA
ATOM     29  C   UNL     1      13.740   8.346  16.289  0.00  0.00    +0.256 C 
ATOM     30  O   UNL     1      14.228   8.240  15.633  0.00  0.00    -0.272 OA
ENDROOT
BRANCH   9   8
ATOM      8  N   UNL     1      15.352   7.662  18.635  0.00  0.00    -0.210 NA
BRANCH   8   7
ATOM      7  C   UNL     1      15.444   6.868  18.836  0.00  0.00    +0.153 C 
BRANCH   7   6
ATOM      3  C   UNL     1      16.997   6.502  20.254  0.00  0.00    +0.156 A 
ATOM      4  C   UNL     1      17.229   6.011  19.634  0.00  0.00    +0.038 A 
ATOM      5  C   UNL     1      16.675   6.088  19.027  0.00  0.00    +0.037 A 
ATOM      6  C   UNL     1      16.101   6.627  19.272  0.00  0.00    +0.140 A 
ATOM     31  O   UNL     1      16.300   6.883  20.031  0.00  0.00    -0.458 OA
BRANCH   3   2
ATOM      1  O   UNL     1      17.117   6.209  21.648  0.00  0.00    -0.212 OA
ATOM      2  C   UNL     1      17.391   6.597  20.973  0.00  0.00    +0.246 C 
ENDBRANCH   3   2
ENDBRANCH   7   6
ENDBRANCH   8   7
ENDBRANCH   9   8
BRANCH  14  15
ATOM     15  C   UNL     1      12.275   8.663  18.258  0.00  0.00    +0.027 C 
BRANCH  15  16
ATOM     16  C   UNL     1      11.588   8.212  18.338  0.00  0.00    +0.088 C 
BRANCH  16  17
ATOM     17  C   UNL     1      11.015   8.427  18.893  0.00  0.00    +0.242 C 
ATOM     18  O   UNL     1      10.285   8.714  18.641  0.00  0.00    -0.273 OA
ATOM     19  N   UNL     1      11.175   8.355  19.698  0.00  0.00    -0.201 NA
BRANCH  19  20
ATOM     20  C   UNL     1      10.603   8.570  20.252  0.00  0.00    +0.141 C 
BRANCH  20  21
ATOM     21  C   UNL     1      10.751   8.469  21.058  0.00  0.00    -0.001 A 
ATOM     22  C   UNL     1      11.059   9.094  21.501  0.00  0.00    -0.003 A 
ATOM     23  C   UNL     1      11.207   8.993  22.307  0.00  0.00    -0.000 A 
ATOM     24  C   UNL     1      11.048   8.269  22.669  0.00  0.00    -0.000 A 
ATOM     25  C   UNL     1      10.740   7.645  22.225  0.00  0.00    -0.000 A 
ATOM     26  C   UNL     1      10.592   7.745  21.420  0.00  0.00    -0.003 A 
ENDBRANCH  20  21
ENDBRANCH  19  20
ENDBRANCH  16  17
ENDBRANCH  15  16
ENDBRANCH  14  15
TORSDOF 9
ENDMDL
MODEL 9
REMARK VINA RESULT:      -7.8     15.408     18.476
REMARK  Name = 
REMARK  9 active torsions:
REMARK  status: ('A' for Active; 'I' for Inactive)
REMARK    1  A    between atoms: C_2  and  C_3
REMARK    2  A    between atoms: C_6  and  C_7
REMARK    3  A    between atoms: C_7  and  N_8
REMARK    4  A    between atoms: N_8  and  C_9
REMARK    5  A    between atoms: C_14  and  C_15
REMARK    6  A    between atoms: C_15  and  C_16
REMARK    7  A    between atoms: C_16  and  C_17
REMARK    8  A    between atoms: N_19  and  C_20
REMARK    9  A    between atoms: C_20  and  C_21
REMARK                            x       y       z     vdW  Elec       q    Type
REMARK                         _______ _______ _______ _____ _____    ______ ____
ROOT
ATOM      9  C   UNL     1      11.492   8.377  19.132  0.00  0.00    +0.091 C 
ATOM     10  C   UNL     1      11.280   8.681  18.394  0.00  0.00    +0.044 C 
ATOM     11  C   UNL     1      11.891   8.516  17.865  0.00  0.00    +0.138 C 
ATOM     12  N   UNL     1      12.481   8.110  18.276  0.00  0.00    -0.265 NA
ATOM     13  C   UNL     1      12.233   8.024  19.059  0.00  0.00    +0.090 C 
ATOM     14  C   UNL     1      13.166   7.871  17.884  0.00  0.00    +0.080 C 
ATOM     27  C   UNL     1      13.262   8.038  17.082  0.00  0.00    +0.131 C 
ATOM     28  N   UNL     1      12.673   8.444  16.672  0.00  0.00    -0.203 NA
ATOM     29  C   UNL     1      11.987   8.683  17.063  0.00  0.00    +0.256 C 
ATOM     30  O   UNL     1      11.398   9.089  16.653  0.00  0.00    -0.272 OA
ENDROOT
BRANCH   9   8
ATOM      8  N   UNL     1      11.040   8.418  19.821  0.00  0.00    -0.210 NA
BRANCH   8   7
ATOM      7  C   UNL     1      11.113   7.834  20.399  0.00  0.00    +0.153 C 
BRANCH   7   6
ATOM      3  C   UNL     1      10.904   8.584  22.386  0.00  0.00    +0.156 A 
ATOM      4  C   UNL     1      10.371   7.956  22.396  0.00  0.00    +0.038 A 
ATOM      5  C   UNL     1      10.384   7.599  21.653  0.00  0.00    +0.037 A 
ATOM      6  C   UNL     1      10.925   8.006  21.184  0.00  0.00    +0.140 A 
ATOM     31  O   UNL     1      11.248   8.616  21.637  0.00  0.00    -0.458 OA
BRANCH   3   2
ATOM      1  O   UNL     1      10.597   9.075  23.693  0.00  0.00    -0.212 OA
ATOM      2  C   UNL     1      11.067   9.093  23.015  0.00  0.00    +0.246 C 
ENDBRANCH   3   2
ENDBRANCH   7   6
ENDBRANCH   8   7
ENDBRANCH   9   8
BRANCH  14  15
ATOM     15  C   UNL     1      13.755   7.465  18.295  0.00  0.00    +0.027 C 
BRANCH  15  16
ATOM     16  C   UNL     1      14.550   7.618  18.133  0.00  0.00    +0.088 C 
BRANCH  16  17
ATOM     17  C   UNL     1      15.136   7.121  18.436  0.00  0.00    +0.242 C 
ATOM     18  O   UNL     1      15.247   6.371  18.114  0.00  0.00    -0.273 OA
ATOM     19  N   UNL     1      15.609   7.376  19.061  0.00  0.00    -0.201 NA
BRANCH  19  20
ATOM     20  C   UNL     1      16.194   6.880  19.364  0.00  0.00    +0.141 C 
BRANCH  20  21
ATOM     21  C   UNL     1      16.596   7.090  20.054  0.00  0.00    -0.001 A 
ATOM     22  C   UNL     1      16.769   6.516  20.621  0.00  0.00    -0.003 A 
ATOM     23  C   UNL     1      17.172   6.727  21.310  0.00  0.00    -0.000 A 
ATOM     24  C   UNL     1      17.401   7.510  21.432  0.00  0.00    -0.000 A 
ATOM     25  C   UNL     1      17.228   8.082  20.864  0.00  0.00    -0.000 A 
ATOM     26  C   UNL     1      16.826   7.873  20.175  0.00  0.00    -0.003 A 
ENDBRANCH  20  21
ENDBRANCH  19  20
ENDBRANCH  16  17
ENDBRANCH  15  16
ENDBRANCH  14  15
TORSDOF 9
ENDMDL
MODEL 10
REMARK VINA RESULT:      -7.6     14.054     15.851
REMARK  Name = 
REMARK  9 active torsions:
REMARK  status: ('A' for Active; 'I' for Inactive)
REMARK    1  A    between atoms: C_2  and  C_3
REMARK    2  A    between atoms: C_6  and  C_7
REMARK    3  A    between atoms: C_7  and  N_8
REMARK    4  A    between atoms: N_8  and  C_9
REMARK    5  A    between atoms: C_14  and  C_15
REMARK    6  A    between atoms: C_15  and  C_16
REMARK    7  A    between atoms: C_16  and  C_17
REMARK    8  A    between atoms: N_19  and  C_20
REMARK    9  A    between atoms: C_20  and  C_21
REMARK                            x       y       z     vdW  Elec       q    Type
REMARK                         _______ _______ _______ _____ _____    ______ ____
ROOT
ATOM      9  C   UNL     1      -2.732 -10.536  13.800  0.00  0.00    +0.091 C 
ATOM     10  C   UNL     1      -2.017 -10.550  14.213  0.00  0.00    +0.044 C 
ATOM     11  C   UNL     1      -2.188 -10.598  15.018  0.00  0.00    +0.138 C 
ATOM     12  N   UNL     1      -3.010 -10.614  15.103  0.00  0.00    -0.265 NA
ATOM     13  C   UNL     1      -3.345 -10.576  14.350  0.00  0.00    +0.090 C 
ATOM     14  C   UNL     1      -3.345 -10.662  15.856  0.00  0.00    +0.080 C 
ATOM     27  C   UNL     1      -2.860 -10.694  16.522  0.00  0.00    +0.131 C 
ATOM     28  N   UNL     1      -2.040 -10.678  16.437  0.00  0.00    -0.203 NA
ATOM     29  C   UNL     1      -1.704 -10.630  15.685  0.00  0.00    +0.256 C 
ATOM     30  O   UNL     1      -0.884 -10.614  15.600  0.00  0.00    -0.272 OA
ENDROOT
BRANCH   9   8
ATOM      8  N   UNL     1      -2.817 -10.490  12.981  0.00  0.00    -0.210 NA
BRANCH   8   7
ATOM      7  C   UNL     1      -3.541 -10.267  12.653  0.00  0.00    +0.153 C 
BRANCH   7   6
ATOM      3  C   UNL     1      -3.436  -9.737  10.588  0.00  0.00    +0.156 A 
ATOM      4  C   UNL     1      -4.006 -10.333  10.571  0.00  0.00    +0.038 A 
ATOM      5  C   UNL     1      -4.115 -10.604  11.342  0.00  0.00    +0.037 A 
ATOM      6  C   UNL     1      -3.612 -10.176  11.836  0.00  0.00    +0.140 A 
ATOM     31  O   UNL     1      -3.192  -9.640  11.370  0.00  0.00    -0.458 OA
BRANCH   3   2
ATOM      1  O   UNL     1      -3.690  -9.013   9.383  0.00  0.00    -0.212 OA
ATOM      2  C   UNL     1      -3.158  -9.313   9.938  0.00  0.00    +0.246 C 
ENDBRANCH   3   2
ENDBRANCH   7   6
ENDBRANCH   8   7
ENDBRANCH   9   8
BRANCH  14  15
ATOM     15  C   UNL     1      -4.165 -10.678  15.940  0.00  0.00    +0.027 C 
BRANCH  15  16
ATOM     16  C   UNL     1      -4.507 -10.517  16.674  0.00  0.00    +0.088 C 
BRANCH  16  17
ATOM     17  C   UNL     1      -5.327 -10.460  16.744  0.00  0.00    +0.242 C 
ATOM     18  O   UNL     1      -5.792 -10.354  16.071  0.00  0.00    -0.273 OA
ATOM     19  N   UNL     1      -5.682 -10.509  17.487  0.00  0.00    -0.201 NA
BRANCH  19  20
ATOM     20  C   UNL     1      -6.502 -10.452  17.556  0.00  0.00    +0.141 C 
BRANCH  20  21
ATOM     21  C   UNL     1      -6.863 -10.562  18.290  0.00  0.00    -0.001 A 
ATOM     22  C   UNL     1      -7.685 -10.607  18.343  0.00  0.00    -0.003 A 
ATOM     23  C   UNL     1      -8.045 -10.717  19.077  0.00  0.00    -0.000 A 
ATOM     24  C   UNL     1      -7.584 -10.781  19.758  0.00  0.00    -0.000 A 
ATOM     25  C   UNL     1      -6.762 -10.735  19.704  0.00  0.00    -0.000 A 
ATOM     26  C   UNL     1      -6.401 -10.625  18.971  0.00  0.00    -0.003 A 
ENDBRANCH  20  21
ENDBRANCH  19  20
ENDBRANCH  16  17
ENDBRANCH  15  16
ENDBRANCH  14  15
TORSDOF 9
ENDMDL
