MODEL 1
REMARK VINA RESULT:     -12.1      0.000      0.000
REMARK  Name = 
REMARK  7 active torsions:
REMARK  status: ('A' for Active; 'I' for Inactive)
REMARK    1  A    between atoms: C_2  and  C_3
REMARK    2  A    between atoms: C_2  and  C_25
REMARK    3  A    between atoms: C_10  and  N_11
REMARK    4  A    between atoms: C_12  and  C_14
REMARK    5  A    between atoms: N_27  and  C_29
REMARK    6  A    between atoms: C_29  and  C_30
REMARK    7  A    between atoms: C_30  and  C_31
REMARK                            x       y       z     vdW  Elec       q    Type
REMARK                         _______ _______ _______ _____ _____    ______ ____
ROOT
ATOM      3  C   UNL     1      -4.471   0.390  24.700  0.00  0.00    +0.039 C 
ATOM      4  C   UNL     1      -5.136   0.622  25.127  0.00  0.00    +0.003 C 
ATOM      5  C   UNL     1      -5.210   1.402  25.385  0.00  0.00    +0.000 C 
ATOM      6  C   UNL     1      -4.617   1.951  25.214  0.00  0.00    +0.002 C 
ATOM      7  C   UNL     1      -5.283   2.183  25.642  0.00  0.00    +0.000 C 
ATOM      8  C   UNL     1      -4.691   2.731  25.472  0.00  0.00    +0.002 C 
ATOM      9  C   UNL     1      -4.098   3.279  25.301  0.00  0.00    +0.022 C 
ATOM     10  C   UNL     1      -3.431   3.047  24.873  0.00  0.00    +0.096 C 
ATOM     20  C   UNL     1      -3.358   2.267  24.616  0.00  0.00    +0.022 C 
ATOM     21  C   UNL     1      -2.692   2.035  24.189  0.00  0.00    +0.002 C 
ATOM     22  C   UNL     1      -3.951   1.718  24.787  0.00  0.00    +0.032 C 
ATOM     23  C   UNL     1      -3.877   0.939  24.530  0.00  0.00    +0.152 C 
ATOM     24  O   UNL     1      -3.211   0.706  24.102  0.00  0.00    -0.223 OA
ENDROOT
BRANCH  10  11
ATOM     11  N   UNL     1      -2.839   3.594  24.703  0.00  0.00    -0.203 NA
ATOM     12  C   UNL     1      -2.462   3.998  25.316  0.00  0.00    +0.265 C 
ATOM     13  O   UNL     1      -2.678   3.854  26.100  0.00  0.00    -0.268 OA
BRANCH  12  14
ATOM     14  C   UNL     1      -1.869   4.546  25.146  0.00  0.00    +0.055 A 
ATOM     15  C   UNL     1      -1.097   4.289  25.012  0.00  0.00    +0.005 A 
ATOM     16  C   UNL     1      -0.504   4.837  24.841  0.00  0.00    +0.000 A 
ATOM     17  C   UNL     1      -0.684   5.643  24.805  0.00  0.00    +0.000 A 
ATOM     18  C   UNL     1      -1.457   5.899  24.940  0.00  0.00    +0.000 A 
ATOM     19  C   UNL     1      -2.050   5.351  25.110  0.00  0.00    +0.005 A 
ENDBRANCH  12  14
ENDBRANCH  10  11
BRANCH   3   2
ATOM      1  C   UNL     1      -4.747  -0.625  23.733  0.00  0.00    +0.010 C 
ATOM      2  C   UNL     1      -4.397  -0.390  24.442  0.00  0.00    +0.079 C 
BRANCH   2  25
ATOM     25  C   UNL     1      -3.973  -0.936  24.893  0.00  0.00    +0.225 C 
ATOM     26  O   UNL     1      -3.793  -0.768  25.682  0.00  0.00    -0.275 OA
ATOM     27  N   UNL     1      -3.729  -1.648  24.557  0.00  0.00    -0.277 N 
ATOM     28  C   UNL     1      -3.908  -1.816  23.769  0.00  0.00    +0.115 C 
BRANCH  27  29
ATOM     29  C   UNL     1      -3.305  -2.194  25.007  0.00  0.00    +0.110 C 
BRANCH  29  30
ATOM     30  C   UNL     1      -2.789  -2.722  24.639  0.00  0.00    +0.127 C 
BRANCH  30  31
ATOM     31  C   UNL     1      -1.993  -2.737  24.852  0.00  0.00    +0.075 C 
ATOM     32  N   UNL     1      -1.195  -2.752  25.065  0.00  0.00    -0.196 NA
ENDBRANCH  30  31
ENDBRANCH  29  30
ENDBRANCH  27  29
ENDBRANCH   2  25
ENDBRANCH   3   2
TORSDOF 7
ENDMDL
MODEL 2
REMARK VINA RESULT:     -11.7      1.049      5.230
REMARK  Name = 
REMARK  7 active torsions:
REMARK  status: ('A' for Active; 'I' for Inactive)
REMARK    1  A    between atoms: C_2  and  C_3
REMARK    2  A    between atoms: C_2  and  C_25
REMARK    3  A    between atoms: C_10  and  N_11
REMARK    4  A    between atoms: C_12  and  C_14
REMARK    5  A    between atoms: N_27  and  C_29
REMARK    6  A    between atoms: C_29  and  C_30
REMARK    7  A    between atoms: C_30  and  C_31
REMARK                            x       y       z     vdW  Elec       q    Type
REMARK                         _______ _______ _______ _____ _____    ______ ____
ROOT
ATOM      3  C   UNL     1      -4.086   3.272  24.898  0.00  0.00    +0.039 C 
ATOM      4  C   UNL     1      -4.758   3.353  25.369  0.00  0.00    +0.003 C 
ATOM      5  C   UNL     1      -5.214   2.691  25.552  0.00  0.00    +0.000 C 
ATOM      6  C   UNL     1      -4.999   1.948  25.264  0.00  0.00    +0.002 C 
ATOM      7  C   UNL     1      -5.672   2.029  25.736  0.00  0.00    +0.000 C 
ATOM      8  C   UNL     1      -5.456   1.286  25.448  0.00  0.00    +0.002 C 
ATOM      9  C   UNL     1      -5.241   0.543  25.160  0.00  0.00    +0.022 C 
ATOM     10  C   UNL     1      -4.568   0.463  24.689  0.00  0.00    +0.096 C 
ATOM     20  C   UNL     1      -4.112   1.125  24.505  0.00  0.00    +0.022 C 
ATOM     21  C   UNL     1      -3.440   1.043  24.034  0.00  0.00    +0.002 C 
ATOM     22  C   UNL     1      -4.327   1.867  24.793  0.00  0.00    +0.032 C 
ATOM     23  C   UNL     1      -3.870   2.529  24.610  0.00  0.00    +0.152 C 
ATOM     24  O   UNL     1      -3.198   2.449  24.138  0.00  0.00    -0.223 OA
ENDROOT
BRANCH  10  11
ATOM     11  N   UNL     1      -4.353  -0.279  24.401  0.00  0.00    -0.203 NA
ATOM     12  C   UNL     1      -4.150  -0.883  24.927  0.00  0.00    +0.265 C 
ATOM     13  O   UNL     1      -4.163  -0.743  25.740  0.00  0.00    -0.268 OA
BRANCH  12  14
ATOM     14  C   UNL     1      -3.935  -1.625  24.639  0.00  0.00    +0.055 A 
ATOM     15  C   UNL     1      -4.305  -1.930  23.967  0.00  0.00    +0.005 A 
ATOM     16  C   UNL     1      -4.089  -2.673  23.679  0.00  0.00    +0.000 A 
ATOM     17  C   UNL     1      -3.504  -3.111  24.064  0.00  0.00    +0.000 A 
ATOM     18  C   UNL     1      -3.135  -2.805  24.736  0.00  0.00    +0.000 A 
ATOM     19  C   UNL     1      -3.350  -2.063  25.024  0.00  0.00    +0.005 A 
ENDBRANCH  12  14
ENDBRANCH  10  11
BRANCH   3   2
ATOM      1  C   UNL     1      -3.808   4.387  24.048  0.00  0.00    +0.010 C 
ATOM      2  C   UNL     1      -3.629   3.934  24.714  0.00  0.00    +0.079 C 
BRANCH   2  25
ATOM     25  C   UNL     1      -2.992   4.143  25.194  0.00  0.00    +0.225 C 
ATOM     26  O   UNL     1      -3.049   4.057  26.014  0.00  0.00    -0.275 OA
ATOM     27  N   UNL     1      -2.299   4.437  24.858  0.00  0.00    -0.277 N 
ATOM     28  C   UNL     1      -2.243   4.523  24.039  0.00  0.00    +0.115 C 
BRANCH  27  29
ATOM     29  C   UNL     1      -1.663   4.646  25.339  0.00  0.00    +0.110 C 
BRANCH  29  30
ATOM     30  C   UNL     1      -0.894   4.624  25.040  0.00  0.00    +0.127 C 
BRANCH  30  31
ATOM     31  C   UNL     1      -0.351   4.081  25.338  0.00  0.00    +0.075 C 
ATOM     32  N   UNL     1       0.194   3.536  25.636  0.00  0.00    -0.196 NA
ENDBRANCH  30  31
ENDBRANCH  29  30
ENDBRANCH  27  29
ENDBRANCH   2  25
ENDBRANCH   3   2
TORSDOF 7
ENDMDL
MODEL 3
REMARK VINA RESULT:     -11.6      3.425      4.944
REMARK  Name = 
REMARK  7 active torsions:
REMARK  status: ('A' for Active; 'I' for Inactive)
REMARK    1  A    between atoms: C_2  and  C_3
REMARK    2  A    between atoms: C_2  and  C_25
REMARK    3  A    between atoms: C_10  and  N_11
REMARK    4  A    between atoms: C_12  and  C_14
REMARK    5  A    between atoms: N_27  and  C_29
REMARK    6  A    between atoms: C_29  and  C_30
REMARK    7  A    between atoms: C_30  and  C_31
REMARK                            x       y       z     vdW  Elec       q    Type
REMARK                         _______ _______ _______ _____ _____    ______ ____
ROOT
ATOM      3  C   UNL     1       0.028   0.038  23.653  0.00  0.00    +0.039 C 
ATOM      4  C   UNL     1       0.098  -0.575  24.199  0.00  0.00    +0.003 C 
ATOM      5  C   UNL     1      -0.481  -0.681  24.777  0.00  0.00    +0.000 C 
ATOM      6  C   UNL     1      -1.132  -0.172  24.807  0.00  0.00    +0.002 C 
ATOM      7  C   UNL     1      -1.062  -0.786  25.354  0.00  0.00    +0.000 C 
ATOM      8  C   UNL     1      -1.711  -0.278  25.385  0.00  0.00    +0.002 C 
ATOM      9  C   UNL     1      -2.360   0.229  25.415  0.00  0.00    +0.022 C 
ATOM     10  C   UNL     1      -2.430   0.844  24.868  0.00  0.00    +0.096 C 
ATOM     20  C   UNL     1      -1.851   0.949  24.291  0.00  0.00    +0.022 C 
ATOM     21  C   UNL     1      -1.921   1.562  23.744  0.00  0.00    +0.002 C 
ATOM     22  C   UNL     1      -1.201   0.441  24.260  0.00  0.00    +0.032 C 
ATOM     23  C   UNL     1      -0.622   0.546  23.683  0.00  0.00    +0.152 C 
ATOM     24  O   UNL     1      -0.691   1.160  23.136  0.00  0.00    -0.223 OA
ENDROOT
BRANCH  10  11
ATOM     11  N   UNL     1      -3.079   1.351  24.898  0.00  0.00    -0.203 NA
ATOM     12  C   UNL     1      -3.833   1.049  25.049  0.00  0.00    +0.265 C 
ATOM     13  O   UNL     1      -3.936   0.239  25.168  0.00  0.00    -0.268 OA
BRANCH  12  14
ATOM     14  C   UNL     1      -4.482   1.557  25.079  0.00  0.00    +0.055 A 
ATOM     15  C   UNL     1      -5.242   1.262  24.954  0.00  0.00    +0.005 A 
ATOM     16  C   UNL     1      -5.892   1.770  24.984  0.00  0.00    +0.000 A 
ATOM     17  C   UNL     1      -5.781   2.573  25.140  0.00  0.00    +0.000 A 
ATOM     18  C   UNL     1      -5.020   2.868  25.265  0.00  0.00    +0.000 A 
ATOM     19  C   UNL     1      -4.370   2.360  25.235  0.00  0.00    +0.005 A 
ENDBRANCH  12  14
ENDBRANCH  10  11
BRANCH   3   2
ATOM      1  C   UNL     1       0.470  -0.111  22.302  0.00  0.00    +0.010 C 
ATOM      2  C   UNL     1       0.607   0.144  23.075  0.00  0.00    +0.079 C 
BRANCH   2  25
ATOM     25  C   UNL     1       1.323   0.504  23.269  0.00  0.00    +0.225 C 
ATOM     26  O   UNL     1       1.349   1.077  23.863  0.00  0.00    -0.275 OA
ATOM     27  N   UNL     1       2.014   0.292  22.870  0.00  0.00    -0.277 N 
ATOM     28  C   UNL     1       1.988  -0.280  22.277  0.00  0.00    +0.115 C 
BRANCH  27  29
ATOM     29  C   UNL     1       2.730   0.653  23.064  0.00  0.00    +0.110 C 
BRANCH  29  30
ATOM     30  C   UNL     1       3.424   0.426  22.680  0.00  0.00    +0.127 C 
BRANCH  30  31
ATOM     31  C   UNL     1       4.157   0.603  23.013  0.00  0.00    +0.075 C 
ATOM     32  N   UNL     1       4.891   0.779  23.347  0.00  0.00    -0.196 NA
ENDBRANCH  30  31
ENDBRANCH  29  30
ENDBRANCH  27  29
ENDBRANCH   2  25
ENDBRANCH   3   2
TORSDOF 7
ENDMDL
MODEL 4
REMARK VINA RESULT:     -10.8      2.962      4.555
REMARK  Name = 
REMARK  7 active torsions:
REMARK  status: ('A' for Active; 'I' for Inactive)
REMARK    1  A    between atoms: C_2  and  C_3
REMARK    2  A    between atoms: C_2  and  C_25
REMARK    3  A    between atoms: C_10  and  N_11
REMARK    4  A    between atoms: C_12  and  C_14
REMARK    5  A    between atoms: N_27  and  C_29
REMARK    6  A    between atoms: C_29  and  C_30
REMARK    7  A    between atoms: C_30  and  C_31
REMARK                            x       y       z     vdW  Elec       q    Type
REMARK                         _______ _______ _______ _____ _____    ______ ____
ROOT
ATOM      3  C   UNL     1      -0.776   0.757  23.545  0.00  0.00    +0.039 C 
ATOM      4  C   UNL     1      -0.818   1.197  22.850  0.00  0.00    +0.003 C 
ATOM      5  C   UNL     1      -1.494   1.637  22.680  0.00  0.00    +0.000 C 
ATOM      6  C   UNL     1      -2.131   1.635  23.206  0.00  0.00    +0.002 C 
ATOM      7  C   UNL     1      -2.172   2.076  22.509  0.00  0.00    +0.000 C 
ATOM      8  C   UNL     1      -2.808   2.075  23.035  0.00  0.00    +0.002 C 
ATOM      9  C   UNL     1      -3.444   2.074  23.561  0.00  0.00    +0.022 C 
ATOM     10  C   UNL     1      -3.402   1.632  24.258  0.00  0.00    +0.096 C 
ATOM     20  C   UNL     1      -2.725   1.193  24.427  0.00  0.00    +0.022 C 
ATOM     21  C   UNL     1      -2.684   0.753  25.123  0.00  0.00    +0.002 C 
ATOM     22  C   UNL     1      -2.089   1.195  23.901  0.00  0.00    +0.032 C 
ATOM     23  C   UNL     1      -1.413   0.755  24.072  0.00  0.00    +0.152 C 
ATOM     24  O   UNL     1      -1.371   0.314  24.768  0.00  0.00    -0.223 OA
ENDROOT
BRANCH  10  11
ATOM     11  N   UNL     1      -4.037   1.631  24.783  0.00  0.00    -0.203 NA
ATOM     12  C   UNL     1      -4.621   2.212  24.726  0.00  0.00    +0.265 C 
ATOM     13  O   UNL     1      -4.569   2.794  24.143  0.00  0.00    -0.268 OA
BRANCH  12  14
ATOM     14  C   UNL     1      -5.257   2.210  25.252  0.00  0.00    +0.055 A 
ATOM     15  C   UNL     1      -5.854   1.646  25.175  0.00  0.00    +0.005 A 
ATOM     16  C   UNL     1      -6.490   1.645  25.701  0.00  0.00    +0.000 A 
ATOM     17  C   UNL     1      -6.528   2.207  26.304  0.00  0.00    +0.000 A 
ATOM     18  C   UNL     1      -5.930   2.771  26.380  0.00  0.00    +0.000 A 
ATOM     19  C   UNL     1      -5.295   2.773  25.855  0.00  0.00    +0.005 A 
ENDBRANCH  12  14
ENDBRANCH  10  11
BRANCH   3   2
ATOM      1  C   UNL     1      -0.168  -0.473  23.944  0.00  0.00    +0.010 C 
ATOM      2  C   UNL     1      -0.099   0.317  23.716  0.00  0.00    +0.079 C 
BRANCH   2  25
ATOM     25  C   UNL     1       0.645   0.666  23.660  0.00  0.00    +0.225 C 
ATOM     26  O   UNL     1       0.799   1.377  24.052  0.00  0.00    -0.275 OA
ATOM     27  N   UNL     1       1.237   0.307  23.211  0.00  0.00    -0.277 N 
ATOM     28  C   UNL     1       1.084  -0.402  22.819  0.00  0.00    +0.115 C 
BRANCH  27  29
ATOM     29  C   UNL     1       1.982   0.657  23.155  0.00  0.00    +0.110 C 
BRANCH  29  30
ATOM     30  C   UNL     1       2.591   0.270  22.753  0.00  0.00    +0.127 C 
BRANCH  30  31
ATOM     31  C   UNL     1       3.350   0.591  22.747  0.00  0.00    +0.075 C 
ATOM     32  N   UNL     1       4.111   0.912  22.741  0.00  0.00    -0.196 NA
ENDBRANCH  30  31
ENDBRANCH  29  30
ENDBRANCH  27  29
ENDBRANCH   2  25
ENDBRANCH   3   2
TORSDOF 7
ENDMDL
MODEL 5
REMARK VINA RESULT:     -10.5      2.211      3.349
REMARK  Name = 
REMARK  7 active torsions:
REMARK  status: ('A' for Active; 'I' for Inactive)
REMARK    1  A    between atoms: C_2  and  C_3
REMARK    2  A    between atoms: C_2  and  C_25
REMARK    3  A    between atoms: C_10  and  N_11
REMARK    4  A    between atoms: C_12  and  C_14
REMARK    5  A    between atoms: N_27  and  C_29
REMARK    6  A    between atoms: C_29  and  C_30
REMARK    7  A    between atoms: C_30  and  C_31
REMARK                            x       y       z     vdW  Elec       q    Type
REMARK                         _______ _______ _______ _____ _____    ______ ____
ROOT
ATOM      3  C   UNL     1      -0.676  -0.846  24.708  0.00  0.00    +0.039 C 
ATOM      4  C   UNL     1      -0.113  -0.905  24.109  0.00  0.00    +0.003 C 
ATOM      5  C   UNL     1       0.231  -0.224  23.797  0.00  0.00    +0.000 C 
ATOM      6  C   UNL     1       0.012   0.518  24.086  0.00  0.00    +0.002 C 
ATOM      7  C   UNL     1       0.576   0.458  23.485  0.00  0.00    +0.000 C 
ATOM      8  C   UNL     1       0.357   1.200  23.773  0.00  0.00    +0.002 C 
ATOM      9  C   UNL     1       0.138   1.941  24.061  0.00  0.00    +0.022 C 
ATOM     10  C   UNL     1      -0.426   2.001  24.662  0.00  0.00    +0.096 C 
ATOM     20  C   UNL     1      -0.770   1.319  24.973  0.00  0.00    +0.022 C 
ATOM     21  C   UNL     1      -1.333   1.380  25.573  0.00  0.00    +0.002 C 
ATOM     22  C   UNL     1      -0.551   0.578  24.685  0.00  0.00    +0.032 C 
ATOM     23  C   UNL     1      -0.895  -0.103  24.997  0.00  0.00    +0.152 C 
ATOM     24  O   UNL     1      -1.458  -0.044  25.597  0.00  0.00    -0.223 OA
ENDROOT
BRANCH  10  11
ATOM     11  N   UNL     1      -0.644   2.742  24.949  0.00  0.00    -0.203 NA
ATOM     12  C   UNL     1      -0.957   3.308  24.436  0.00  0.00    +0.265 C 
ATOM     13  O   UNL     1      -1.051   3.132  23.635  0.00  0.00    -0.268 OA
BRANCH  12  14
ATOM     14  C   UNL     1      -1.176   4.050  24.724  0.00  0.00    +0.055 A 
ATOM     15  C   UNL     1      -1.916   4.154  25.074  0.00  0.00    +0.005 A 
ATOM     16  C   UNL     1      -2.135   4.895  25.362  0.00  0.00    +0.000 A 
ATOM     17  C   UNL     1      -1.614   5.533  25.300  0.00  0.00    +0.000 A 
ATOM     18  C   UNL     1      -0.873   5.428  24.950  0.00  0.00    +0.000 A 
ATOM     19  C   UNL     1      -0.655   4.686  24.662  0.00  0.00    +0.005 A 
ENDBRANCH  12  14
ENDBRANCH  10  11
BRANCH   3   2
ATOM      1  C   UNL     1      -0.836  -1.768  25.788  0.00  0.00    +0.010 C 
ATOM      2  C   UNL     1      -1.021  -1.527  25.021  0.00  0.00    +0.079 C 
BRANCH   2  25
ATOM     25  C   UNL     1      -1.550  -1.967  24.567  0.00  0.00    +0.225 C 
ATOM     26  O   UNL     1      -1.358  -2.169  23.789  0.00  0.00    -0.275 OA
ATOM     27  N   UNL     1      -2.271  -2.207  24.889  0.00  0.00    -0.277 N 
ATOM     28  C   UNL     1      -2.462  -2.005  25.666  0.00  0.00    +0.115 C 
BRANCH  27  29
ATOM     29  C   UNL     1      -2.800  -2.647  24.435  0.00  0.00    +0.110 C 
BRANCH  29  30
ATOM     30  C   UNL     1      -3.601  -2.661  24.632  0.00  0.00    +0.127 C 
BRANCH  30  31
ATOM     31  C   UNL     1      -4.172  -2.665  24.038  0.00  0.00    +0.075 C 
ATOM     32  N   UNL     1      -4.744  -2.669  23.442  0.00  0.00    -0.196 NA
ENDBRANCH  30  31
ENDBRANCH  29  30
ENDBRANCH  27  29
ENDBRANCH   2  25
ENDBRANCH   3   2
TORSDOF 7
ENDMDL
MODEL 6
REMARK VINA RESULT:     -10.4      2.306      3.920
REMARK  Name = 
REMARK  7 active torsions:
REMARK  status: ('A' for Active; 'I' for Inactive)
REMARK    1  A    between atoms: C_2  and  C_3
REMARK    2  A    between atoms: C_2  and  C_25
REMARK    3  A    between atoms: C_10  and  N_11
REMARK    4  A    between atoms: C_12  and  C_14
REMARK    5  A    between atoms: N_27  and  C_29
REMARK    6  A    between atoms: C_29  and  C_30
REMARK    7  A    between atoms: C_30  and  C_31
REMARK                            x       y       z     vdW  Elec       q    Type
REMARK                         _______ _______ _______ _____ _____    ______ ____
ROOT
ATOM      3  C   UNL     1      -1.786  -1.117  24.624  0.00  0.00    +0.039 C 
ATOM      4  C   UNL     1      -2.275  -1.715  24.336  0.00  0.00    +0.003 C 
ATOM      5  C   UNL     1      -3.092  -1.605  24.313  0.00  0.00    +0.000 C 
ATOM      6  C   UNL     1      -3.420  -0.894  24.579  0.00  0.00    +0.002 C 
ATOM      7  C   UNL     1      -3.909  -1.493  24.291  0.00  0.00    +0.000 C 
ATOM      8  C   UNL     1      -4.237  -0.784  24.556  0.00  0.00    +0.002 C 
ATOM      9  C   UNL     1      -4.565  -0.075  24.821  0.00  0.00    +0.022 C 
ATOM     10  C   UNL     1      -4.075   0.524  25.109  0.00  0.00    +0.096 C 
ATOM     20  C   UNL     1      -3.258   0.413  25.131  0.00  0.00    +0.022 C 
ATOM     21  C   UNL     1      -2.769   1.011  25.419  0.00  0.00    +0.002 C 
ATOM     22  C   UNL     1      -2.930  -0.297  24.866  0.00  0.00    +0.032 C 
ATOM     23  C   UNL     1      -2.114  -0.407  24.889  0.00  0.00    +0.152 C 
ATOM     24  O   UNL     1      -1.623   0.191  25.177  0.00  0.00    -0.223 OA
ENDROOT
BRANCH  10  11
ATOM     11  N   UNL     1      -4.402   1.233  25.373  0.00  0.00    -0.203 NA
ATOM     12  C   UNL     1      -4.848   1.699  24.859  0.00  0.00    +0.265 C 
ATOM     13  O   UNL     1      -4.966   1.456  24.079  0.00  0.00    -0.268 OA
BRANCH  12  14
ATOM     14  C   UNL     1      -5.176   2.408  25.124  0.00  0.00    +0.055 A 
ATOM     15  C   UNL     1      -5.896   2.404  25.527  0.00  0.00    +0.005 A 
ATOM     16  C   UNL     1      -6.223   3.114  25.792  0.00  0.00    +0.000 A 
ATOM     17  C   UNL     1      -5.831   3.827  25.654  0.00  0.00    +0.000 A 
ATOM     18  C   UNL     1      -5.111   3.830  25.250  0.00  0.00    +0.000 A 
ATOM     19  C   UNL     1      -4.783   3.121  24.985  0.00  0.00    +0.005 A 
ENDBRANCH  12  14
ENDBRANCH  10  11
BRANCH   3   2
ATOM      1  C   UNL     1      -0.593  -1.379  25.366  0.00  0.00    +0.010 C 
ATOM      2  C   UNL     1      -0.968  -1.228  24.647  0.00  0.00    +0.079 C 
BRANCH   2  25
ATOM     25  C   UNL     1      -0.526  -1.187  23.952  0.00  0.00    +0.225 C 
ATOM     26  O   UNL     1      -0.750  -1.632  23.293  0.00  0.00    -0.275 OA
ATOM     27  N   UNL     1       0.140  -0.701  23.914  0.00  0.00    -0.277 N 
ATOM     28  C   UNL     1       0.363  -0.255  24.572  0.00  0.00    +0.115 C 
BRANCH  27  29
ATOM     29  C   UNL     1       0.582  -0.659  23.219  0.00  0.00    +0.110 C 
BRANCH  29  30
ATOM     30  C   UNL     1       1.102  -0.030  23.097  0.00  0.00    +0.127 C 
BRANCH  30  31
ATOM     31  C   UNL     1       1.663  -0.070  22.494  0.00  0.00    +0.075 C 
ATOM     32  N   UNL     1       2.225  -0.109  21.891  0.00  0.00    -0.196 NA
ENDBRANCH  30  31
ENDBRANCH  29  30
ENDBRANCH  27  29
ENDBRANCH   2  25
ENDBRANCH   3   2
TORSDOF 7
ENDMDL
MODEL 7
REMARK VINA RESULT:     -10.2      3.214      4.954
REMARK  Name = 
REMARK  7 active torsions:
REMARK  status: ('A' for Active; 'I' for Inactive)
REMARK    1  A    between atoms: C_2  and  C_3
REMARK    2  A    between atoms: C_2  and  C_25
REMARK    3  A    between atoms: C_10  and  N_11
REMARK    4  A    between atoms: C_12  and  C_14
REMARK    5  A    between atoms: N_27  and  C_29
REMARK    6  A    between atoms: C_29  and  C_30
REMARK    7  A    between atoms: C_30  and  C_31
REMARK                            x       y       z     vdW  Elec       q    Type
REMARK                         _______ _______ _______ _____ _____    ______ ____
ROOT
ATOM      3  C   UNL     1      -2.906   1.248  24.448  0.00  0.00    +0.039 C 
ATOM      4  C   UNL     1      -2.958   0.670  25.033  0.00  0.00    +0.003 C 
ATOM      5  C   UNL     1      -2.305   0.197  25.206  0.00  0.00    +0.000 C 
ATOM      6  C   UNL     1      -1.598   0.304  24.792  0.00  0.00    +0.002 C 
ATOM      7  C   UNL     1      -1.650  -0.275  25.379  0.00  0.00    +0.000 C 
ATOM      8  C   UNL     1      -0.944  -0.169  24.966  0.00  0.00    +0.002 C 
ATOM      9  C   UNL     1      -0.238  -0.063  24.553  0.00  0.00    +0.022 C 
ATOM     10  C   UNL     1      -0.185   0.517  23.967  0.00  0.00    +0.096 C 
ATOM     20  C   UNL     1      -0.839   0.989  23.795  0.00  0.00    +0.022 C 
ATOM     21  C   UNL     1      -0.786   1.567  23.209  0.00  0.00    +0.002 C 
ATOM     22  C   UNL     1      -1.546   0.882  24.207  0.00  0.00    +0.032 C 
ATOM     23  C   UNL     1      -2.199   1.354  24.035  0.00  0.00    +0.152 C 
ATOM     24  O   UNL     1      -2.147   1.934  23.449  0.00  0.00    -0.223 OA
ENDROOT
BRANCH  10  11
ATOM     11  N   UNL     1       0.520   0.623  23.554  0.00  0.00    -0.203 NA
ATOM     12  C   UNL     1       0.964  -0.033  23.319  0.00  0.00    +0.265 C 
ATOM     13  O   UNL     1       0.700  -0.795  23.496  0.00  0.00    -0.268 OA
BRANCH  12  14
ATOM     14  C   UNL     1       1.670   0.074  22.906  0.00  0.00    +0.055 A 
ATOM     15  C   UNL     1       1.754  -0.238  22.146  0.00  0.00    +0.005 A 
ATOM     16  C   UNL     1       2.461  -0.132  21.734  0.00  0.00    +0.000 A 
ATOM     17  C   UNL     1       3.083   0.286  22.080  0.00  0.00    +0.000 A 
ATOM     18  C   UNL     1       2.998   0.598  22.840  0.00  0.00    +0.000 A 
ATOM     19  C   UNL     1       2.291   0.492  23.253  0.00  0.00    +0.005 A 
ENDBRANCH  12  14
ENDBRANCH  10  11
BRANCH   3   2
ATOM      1  C   UNL     1      -3.971   1.612  23.568  0.00  0.00    +0.010 C 
ATOM      2  C   UNL     1      -3.560   1.721  24.275  0.00  0.00    +0.079 C 
BRANCH   2  25
ATOM     25  C   UNL     1      -3.802   2.301  24.807  0.00  0.00    +0.225 C 
ATOM     26  O   UNL     1      -3.240   2.764  25.198  0.00  0.00    -0.275 OA
ATOM     27  N   UNL     1      -4.606   2.421  24.951  0.00  0.00    -0.277 N 
ATOM     28  C   UNL     1      -5.167   1.958  24.561  0.00  0.00    +0.115 C 
BRANCH  27  29
ATOM     29  C   UNL     1      -4.849   3.001  25.484  0.00  0.00    +0.110 C 
BRANCH  29  30
ATOM     30  C   UNL     1      -5.651   3.169  25.575  0.00  0.00    +0.127 C 
BRANCH  30  31
ATOM     31  C   UNL     1      -5.898   3.942  25.720  0.00  0.00    +0.075 C 
ATOM     32  N   UNL     1      -6.146   4.716  25.864  0.00  0.00    -0.196 NA
ENDBRANCH  30  31
ENDBRANCH  29  30
ENDBRANCH  27  29
ENDBRANCH   2  25
ENDBRANCH   3   2
TORSDOF 7
ENDMDL
