MODEL 1
REMARK VINA RESULT:     -10.4      0.000      0.000
REMARK  Name = 
REMARK  7 active torsions:
REMARK  status: ('A' for Active; 'I' for Inactive)
REMARK    1  A    between atoms: S_2  and  C_3
REMARK    2  A    between atoms: C_3  and  C_4
REMARK    3  A    between atoms: C_9  and  N_10
REMARK    4  A    between atoms: N_13  and  C_14
REMARK    5  A    between atoms: C_22  and  C_23
REMARK    6  A    between atoms: N_25  and  C_27
REMARK    7  A    between atoms: C_27  and  C_28
REMARK                            x       y       z     vdW  Elec       q    Type
REMARK                         _______ _______ _______ _____ _____    ______ ____
ROOT
ATOM      4  C   UNL     1      -2.201   3.548  24.792  0.00  0.00    +0.237 C 
ATOM      5  O   UNL     1      -2.798   4.092  24.623  0.00  0.00    -0.274 OA
ATOM      6  N   UNL     1      -2.371   2.741  24.809  0.00  0.00    -0.271 N 
ATOM      7  C   UNL     1      -1.833   2.136  24.969  0.00  0.00    +0.096 C 
ATOM      8  C   UNL     1      -2.239   1.418  24.929  0.00  0.00    +0.045 C 
ATOM      9  C   UNL     1      -3.027   1.580  24.744  0.00  0.00    +0.126 C 
ATOM     22  C   UNL     1      -3.108   2.398  24.671  0.00  0.00    +0.172 C 
ENDROOT
BRANCH   9  10
ATOM     10  N   UNL     1      -3.627   1.023  24.650  0.00  0.00    -0.186 NA
ATOM     11  C   UNL     1      -3.452   0.218  24.692  0.00  0.00    +0.344 C 
ATOM     12  O   UNL     1      -2.678  -0.030  24.827  0.00  0.00    -0.249 OA
ATOM     13  N   UNL     1      -4.054  -0.340  24.598  0.00  0.00    -0.159 NA
BRANCH  13  14
ATOM     14  C   UNL     1      -3.879  -1.145  24.639  0.00  0.00    +0.102 A 
ATOM     15  C   UNL     1      -4.044  -1.638  23.998  0.00  0.00    +0.158 A 
ATOM     16  F   UNL     1      -4.384  -1.325  23.315  0.00  0.00    -0.203 F 
ATOM     17  C   UNL     1      -3.868  -2.443  24.040  0.00  0.00    +0.061 A 
ATOM     18  C   UNL     1      -3.528  -2.756  24.723  0.00  0.00    +0.142 A 
ATOM     19  F   UNL     1      -3.353  -3.561  24.765  0.00  0.00    -0.204 F 
ATOM     20  C   UNL     1      -3.363  -2.264  25.364  0.00  0.00    +0.031 A 
ATOM     21  C   UNL     1      -3.538  -1.459  25.323  0.00  0.00    +0.021 A 
ENDBRANCH  13  14
ENDBRANCH   9  10
BRANCH  22  23
ATOM     23  C   UNL     1      -3.805   2.802  24.490  0.00  0.00    +0.246 C 
ATOM     24  O   UNL     1      -3.953   3.044  23.715  0.00  0.00    -0.273 OA
ATOM     25  N   UNL     1      -4.354   2.962  25.085  0.00  0.00    -0.268 N 
ATOM     26  C   UNL     1      -4.207   2.720  25.859  0.00  0.00    +0.115 C 
BRANCH  25  27
ATOM     27  C   UNL     1      -5.051   3.366  24.904  0.00  0.00    +0.183 C 
BRANCH  27  28
ATOM     28  C   UNL     1      -5.638   3.452  25.477  0.00  0.00    +0.281 C 
ATOM     29  N   UNL     1      -5.752   4.181  25.846  0.00  0.00    -0.086 NA
ATOM     30  O   UNL     1      -6.110   2.807  25.682  0.00  0.00    -0.270 OA
ENDBRANCH  27  28
ENDBRANCH  25  27
ENDBRANCH  22  23
BRANCH   4   3
ATOM      3  C   UNL     1      -1.433   3.811  24.943  0.00  0.00    +0.143 C 
BRANCH   3   2
ATOM      1  C   UNL     1      -0.494   4.888  24.917  0.00  0.00    +0.070 C 
ATOM      2  S   UNL     1      -1.273   4.621  24.968  0.00  0.00    -0.130 S 
ENDBRANCH   3   2
ENDBRANCH   4   3
TORSDOF 7
ENDMDL
MODEL 2
REMARK VINA RESULT:      -9.4      2.395      4.685
REMARK  Name = 
REMARK  7 active torsions:
REMARK  status: ('A' for Active; 'I' for Inactive)
REMARK    1  A    between atoms: S_2  and  C_3
REMARK    2  A    between atoms: C_3  and  C_4
REMARK    3  A    between atoms: C_9  and  N_10
REMARK    4  A    between atoms: N_13  and  C_14
REMARK    5  A    between atoms: C_22  and  C_23
REMARK    6  A    between atoms: N_25  and  C_27
REMARK    7  A    between atoms: C_27  and  C_28
REMARK                            x       y       z     vdW  Elec       q    Type
REMARK                         _______ _______ _______ _____ _____    ______ ____
ROOT
ATOM      4  C   UNL     1      -0.385   0.062  23.965  0.00  0.00    +0.237 C 
ATOM      5  O   UNL     1      -0.291  -0.653  24.366  0.00  0.00    -0.274 OA
ATOM      6  N   UNL     1      -1.089   0.487  24.037  0.00  0.00    -0.271 N 
ATOM      7  C   UNL     1      -1.262   1.206  23.672  0.00  0.00    +0.096 C 
ATOM      8  C   UNL     1      -2.024   1.430  23.897  0.00  0.00    +0.045 C 
ATOM      9  C   UNL     1      -2.322   0.848  24.401  0.00  0.00    +0.126 C 
ATOM     22  C   UNL     1      -1.744   0.266  24.488  0.00  0.00    +0.172 C 
ENDROOT
BRANCH   9  10
ATOM     10  N   UNL     1      -3.066   0.850  24.757  0.00  0.00    -0.186 NA
ATOM     11  C   UNL     1      -3.475   1.560  24.853  0.00  0.00    +0.344 C 
ATOM     12  O   UNL     1      -3.141   2.268  24.594  0.00  0.00    -0.249 OA
ATOM     13  N   UNL     1      -4.221   1.561  25.208  0.00  0.00    -0.159 NA
BRANCH  13  14
ATOM     14  C   UNL     1      -4.630   2.271  25.305  0.00  0.00    +0.102 A 
ATOM     15  C   UNL     1      -5.443   2.301  25.167  0.00  0.00    +0.158 A 
ATOM     16  F   UNL     1      -5.847   1.621  24.934  0.00  0.00    -0.203 F 
ATOM     17  C   UNL     1      -5.851   3.011  25.264  0.00  0.00    +0.061 A 
ATOM     18  C   UNL     1      -5.447   3.691  25.497  0.00  0.00    +0.142 A 
ATOM     19  F   UNL     1      -5.856   4.401  25.594  0.00  0.00    -0.204 F 
ATOM     20  C   UNL     1      -4.635   3.661  25.634  0.00  0.00    +0.031 A 
ATOM     21  C   UNL     1      -4.226   2.951  25.538  0.00  0.00    +0.021 A 
ENDBRANCH  13  14
ENDBRANCH   9  10
BRANCH  22  23
ATOM     23  C   UNL     1      -1.810  -0.418  24.946  0.00  0.00    +0.246 C 
ATOM     24  O   UNL     1      -1.440  -0.459  25.682  0.00  0.00    -0.273 OA
ATOM     25  N   UNL     1      -2.246  -1.060  24.667  0.00  0.00    -0.268 N 
ATOM     26  C   UNL     1      -2.615  -1.019  23.930  0.00  0.00    +0.115 C 
BRANCH  25  27
ATOM     27  C   UNL     1      -2.311  -1.744  25.124  0.00  0.00    +0.183 C 
BRANCH  27  28
ATOM     28  C   UNL     1      -2.762  -2.379  24.853  0.00  0.00    +0.281 C 
ATOM     29  N   UNL     1      -3.525  -2.499  25.145  0.00  0.00    -0.086 NA
ATOM     30  O   UNL     1      -2.450  -2.895  24.290  0.00  0.00    -0.270 OA
ENDBRANCH  27  28
ENDBRANCH  25  27
ENDBRANCH  22  23
BRANCH   4   3
ATOM      3  C   UNL     1       0.224   0.354  23.492  0.00  0.00    +0.143 C 
BRANCH   3   2
ATOM      1  C   UNL     1       1.437   0.122  22.771  0.00  0.00    +0.070 C 
ATOM      2  S   UNL     1       0.887  -0.114  23.340  0.00  0.00    -0.130 S 
ENDBRANCH   3   2
ENDBRANCH   4   3
TORSDOF 7
ENDMDL
MODEL 3
REMARK VINA RESULT:      -9.1      1.370      2.668
REMARK  Name = 
REMARK  7 active torsions:
REMARK  status: ('A' for Active; 'I' for Inactive)
REMARK    1  A    between atoms: S_2  and  C_3
REMARK    2  A    between atoms: C_3  and  C_4
REMARK    3  A    between atoms: C_9  and  N_10
REMARK    4  A    between atoms: N_13  and  C_14
REMARK    5  A    between atoms: C_22  and  C_23
REMARK    6  A    between atoms: N_25  and  C_27
REMARK    7  A    between atoms: C_27  and  C_28
REMARK                            x       y       z     vdW  Elec       q    Type
REMARK                         _______ _______ _______ _____ _____    ______ ____
ROOT
ATOM      4  C   UNL     1      -4.588   3.350  24.994  0.00  0.00    +0.237 C 
ATOM      5  O   UNL     1      -4.067   3.869  24.620  0.00  0.00    -0.274 OA
ATOM      6  N   UNL     1      -4.432   2.540  24.996  0.00  0.00    -0.271 N 
ATOM      7  C   UNL     1      -4.900   1.957  25.345  0.00  0.00    +0.096 C 
ATOM      8  C   UNL     1      -4.538   1.227  25.214  0.00  0.00    +0.045 C 
ATOM      9  C   UNL     1      -3.846   1.359  24.784  0.00  0.00    +0.126 C 
ATOM     22  C   UNL     1      -3.781   2.170  24.649  0.00  0.00    +0.172 C 
ENDROOT
BRANCH   9  10
ATOM     10  N   UNL     1      -3.313   0.781  24.532  0.00  0.00    -0.186 NA
ATOM     11  C   UNL     1      -3.530  -0.015  24.550  0.00  0.00    +0.344 C 
ATOM     12  O   UNL     1      -4.279  -0.233  24.818  0.00  0.00    -0.249 OA
ATOM     13  N   UNL     1      -2.997  -0.592  24.298  0.00  0.00    -0.159 NA
BRANCH  13  14
ATOM     14  C   UNL     1      -3.213  -1.388  24.316  0.00  0.00    +0.102 A 
ATOM     15  C   UNL     1      -2.739  -1.937  24.710  0.00  0.00    +0.158 A 
ATOM     16  F   UNL     1      -2.048  -1.690  25.087  0.00  0.00    -0.203 F 
ATOM     17  C   UNL     1      -2.957  -2.732  24.727  0.00  0.00    +0.061 A 
ATOM     18  C   UNL     1      -3.648  -2.980  24.351  0.00  0.00    +0.142 A 
ATOM     19  F   UNL     1      -3.864  -3.776  24.368  0.00  0.00    -0.204 F 
ATOM     20  C   UNL     1      -4.121  -2.432  23.957  0.00  0.00    +0.031 A 
ATOM     21  C   UNL     1      -3.904  -1.636  23.939  0.00  0.00    +0.021 A 
ENDBRANCH  13  14
ENDBRANCH   9  10
BRANCH  22  23
ATOM     23  C   UNL     1      -3.171   2.546  24.239  0.00  0.00    +0.246 C 
ATOM     24  O   UNL     1      -3.282   2.777  23.455  0.00  0.00    -0.273 OA
ATOM     25  N   UNL     1      -2.451   2.692  24.614  0.00  0.00    -0.268 N 
ATOM     26  C   UNL     1      -2.340   2.461  25.399  0.00  0.00    +0.115 C 
BRANCH  25  27
ATOM     27  C   UNL     1      -1.841   3.068  24.205  0.00  0.00    +0.183 C 
BRANCH  27  28
ATOM     28  C   UNL     1      -1.091   3.125  24.543  0.00  0.00    +0.281 C 
ATOM     29  N   UNL     1      -0.898   3.777  25.011  0.00  0.00    -0.086 NA
ATOM     30  O   UNL     1      -0.535   2.530  24.414  0.00  0.00    -0.270 OA
ENDBRANCH  27  28
ENDBRANCH  25  27
ENDBRANCH  22  23
BRANCH   4   3
ATOM      3  C   UNL     1      -5.265   3.640  25.365  0.00  0.00    +0.143 C 
BRANCH   3   2
ATOM      1  C   UNL     1      -6.116   4.737  25.703  0.00  0.00    +0.070 C 
ATOM      2  S   UNL     1      -5.425   4.450  25.355  0.00  0.00    -0.130 S 
ENDBRANCH   3   2
ENDBRANCH   4   3
TORSDOF 7
ENDMDL
MODEL 4
REMARK VINA RESULT:      -8.8      3.029      5.842
REMARK  Name = 
REMARK  7 active torsions:
REMARK  status: ('A' for Active; 'I' for Inactive)
REMARK    1  A    between atoms: S_2  and  C_3
REMARK    2  A    between atoms: C_3  and  C_4
REMARK    3  A    between atoms: C_9  and  N_10
REMARK    4  A    between atoms: N_13  and  C_14
REMARK    5  A    between atoms: C_22  and  C_23
REMARK    6  A    between atoms: N_25  and  C_27
REMARK    7  A    between atoms: C_27  and  C_28
REMARK                            x       y       z     vdW  Elec       q    Type
REMARK                         _______ _______ _______ _____ _____    ______ ____
ROOT
ATOM      4  C   UNL     1      -2.673  -1.007  24.526  0.00  0.00    +0.237 C 
ATOM      5  O   UNL     1      -2.024  -1.507  24.431  0.00  0.00    -0.274 OA
ATOM      6  N   UNL     1      -2.557  -0.212  24.713  0.00  0.00    -0.271 N 
ATOM      7  C   UNL     1      -3.149   0.352  24.824  0.00  0.00    +0.096 C 
ATOM      8  C   UNL     1      -2.786   1.072  25.001  0.00  0.00    +0.045 C 
ATOM      9  C   UNL     1      -1.970   0.953  24.998  0.00  0.00    +0.126 C 
ATOM     22  C   UNL     1      -1.828   0.160  24.820  0.00  0.00    +0.172 C 
ENDROOT
BRANCH   9  10
ATOM     10  N   UNL     1      -1.396   1.526  25.148  0.00  0.00    -0.186 NA
ATOM     11  C   UNL     1      -1.599   2.326  25.133  0.00  0.00    +0.344 C 
ATOM     12  O   UNL     1      -2.375   2.552  24.970  0.00  0.00    -0.249 OA
ATOM     13  N   UNL     1      -1.024   2.899  25.283  0.00  0.00    -0.159 NA
BRANCH  13  14
ATOM     14  C   UNL     1      -1.227   3.699  25.268  0.00  0.00    +0.102 A 
ATOM     15  C   UNL     1      -0.780   4.230  24.822  0.00  0.00    +0.158 A 
ATOM     16  F   UNL     1      -0.130   3.962  24.390  0.00  0.00    -0.203 F 
ATOM     17  C   UNL     1      -0.984   5.030  24.808  0.00  0.00    +0.061 A 
ATOM     18  C   UNL     1      -1.633   5.298  25.240  0.00  0.00    +0.142 A 
ATOM     19  F   UNL     1      -1.836   6.097  25.225  0.00  0.00    -0.204 F 
ATOM     20  C   UNL     1      -2.080   4.767  25.686  0.00  0.00    +0.031 A 
ATOM     21  C   UNL     1      -1.877   3.967  25.700  0.00  0.00    +0.021 A 
ENDBRANCH  13  14
ENDBRANCH   9  10
BRANCH  22  23
ATOM     23  C   UNL     1      -1.087  -0.199  24.760  0.00  0.00    +0.246 C 
ATOM     24  O   UNL     1      -0.800  -0.659  25.382  0.00  0.00    -0.273 OA
ATOM     25  N   UNL     1      -0.635  -0.098  24.078  0.00  0.00    -0.268 N 
ATOM     26  C   UNL     1      -0.922   0.361  23.456  0.00  0.00    +0.115 C 
BRANCH  25  27
ATOM     27  C   UNL     1       0.106  -0.457  24.018  0.00  0.00    +0.183 C 
BRANCH  27  28
ATOM     28  C   UNL     1       0.610  -0.261  23.395  0.00  0.00    +0.281 C 
ATOM     29  N   UNL     1       1.162   0.345  23.484  0.00  0.00    -0.086 NA
ATOM     30  O   UNL     1       0.559  -0.672  22.681  0.00  0.00    -0.270 OA
ENDBRANCH  27  28
ENDBRANCH  25  27
ENDBRANCH  22  23
BRANCH   4   3
ATOM      3  C   UNL     1      -3.439  -1.301  24.435  0.00  0.00    +0.143 C 
BRANCH   3   2
ATOM      1  C   UNL     1      -4.255  -2.377  23.966  0.00  0.00    +0.070 C 
ATOM      2  S   UNL     1      -3.558  -2.110  24.317  0.00  0.00    -0.130 S 
ENDBRANCH   3   2
ENDBRANCH   4   3
TORSDOF 7
ENDMDL
MODEL 5
REMARK VINA RESULT:      -8.4      2.745      5.284
REMARK  Name = 
REMARK  7 active torsions:
REMARK  status: ('A' for Active; 'I' for Inactive)
REMARK    1  A    between atoms: S_2  and  C_3
REMARK    2  A    between atoms: C_3  and  C_4
REMARK    3  A    between atoms: C_9  and  N_10
REMARK    4  A    between atoms: N_13  and  C_14
REMARK    5  A    between atoms: C_22  and  C_23
REMARK    6  A    between atoms: N_25  and  C_27
REMARK    7  A    between atoms: C_27  and  C_28
REMARK                            x       y       z     vdW  Elec       q    Type
REMARK                         _______ _______ _______ _____ _____    ______ ____
ROOT
ATOM      4  C   UNL     1      -2.729  -1.457  24.563  0.00  0.00    +0.237 C 
ATOM      5  O   UNL     1      -1.944  -1.528  24.806  0.00  0.00    -0.274 OA
ATOM      6  N   UNL     1      -3.086  -0.714  24.533  0.00  0.00    -0.271 N 
ATOM      7  C   UNL     1      -3.863  -0.557  24.302  0.00  0.00    +0.096 C 
ATOM      8  C   UNL     1      -3.985   0.258  24.356  0.00  0.00    +0.045 C 
ATOM      9  C   UNL     1      -3.284   0.604  24.620  0.00  0.00    +0.126 C 
ATOM     22  C   UNL     1      -2.729   0.004  24.730  0.00  0.00    +0.172 C 
ENDROOT
BRANCH   9  10
ATOM     10  N   UNL     1      -3.161   1.409  24.751  0.00  0.00    -0.186 NA
ATOM     11  C   UNL     1      -3.803   1.904  24.904  0.00  0.00    +0.344 C 
ATOM     12  O   UNL     1      -4.567   1.596  24.926  0.00  0.00    -0.249 OA
ATOM     13  N   UNL     1      -3.679   2.710  25.035  0.00  0.00    -0.159 NA
BRANCH  13  14
ATOM     14  C   UNL     1      -4.320   3.206  25.188  0.00  0.00    +0.102 A 
ATOM     15  C   UNL     1      -4.364   3.948  24.829  0.00  0.00    +0.158 A 
ATOM     16  F   UNL     1      -3.765   4.194  24.318  0.00  0.00    -0.203 F 
ATOM     17  C   UNL     1      -5.006   4.443  24.983  0.00  0.00    +0.061 A 
ATOM     18  C   UNL     1      -5.604   4.196  25.494  0.00  0.00    +0.142 A 
ATOM     19  F   UNL     1      -6.245   4.692  25.647  0.00  0.00    -0.204 F 
ATOM     20  C   UNL     1      -5.560   3.455  25.853  0.00  0.00    +0.031 A 
ATOM     21  C   UNL     1      -4.919   2.960  25.700  0.00  0.00    +0.021 A 
ENDBRANCH  13  14
ENDBRANCH   9  10
BRANCH  22  23
ATOM     23  C   UNL     1      -1.952   0.104  24.990  0.00  0.00    +0.246 C 
ATOM     24  O   UNL     1      -1.752  -0.076  25.770  0.00  0.00    -0.273 OA
ATOM     25  N   UNL     1      -1.376   0.384  24.470  0.00  0.00    -0.268 N 
ATOM     26  C   UNL     1      -1.576   0.564  23.690  0.00  0.00    +0.115 C 
BRANCH  25  27
ATOM     27  C   UNL     1      -0.599   0.484  24.730  0.00  0.00    +0.183 C 
BRANCH  27  28
ATOM     28  C   UNL     1      -0.041   0.835  24.235  0.00  0.00    +0.281 C 
ATOM     29  N   UNL     1       0.182   1.620  24.356  0.00  0.00    -0.086 NA
ATOM     30  O   UNL     1       0.294   0.401  23.619  0.00  0.00    -0.270 OA
ENDBRANCH  27  28
ENDBRANCH  25  27
ENDBRANCH  22  23
BRANCH   4   3
ATOM      3  C   UNL     1      -3.159  -2.128  24.349  0.00  0.00    +0.143 C 
BRANCH   3   2
ATOM      1  C   UNL     1      -3.334  -3.545  24.427  0.00  0.00    +0.070 C 
ATOM      2  S   UNL     1      -2.851  -2.879  24.502  0.00  0.00    -0.130 S 
ENDBRANCH   3   2
ENDBRANCH   4   3
TORSDOF 7
ENDMDL
MODEL 6
REMARK VINA RESULT:      -8.4      1.790      3.283
REMARK  Name = 
REMARK  7 active torsions:
REMARK  status: ('A' for Active; 'I' for Inactive)
REMARK    1  A    between atoms: S_2  and  C_3
REMARK    2  A    between atoms: C_3  and  C_4
REMARK    3  A    between atoms: C_9  and  N_10
REMARK    4  A    between atoms: N_13  and  C_14
REMARK    5  A    between atoms: C_22  and  C_23
REMARK    6  A    between atoms: N_25  and  C_27
REMARK    7  A    between atoms: C_27  and  C_28
REMARK                            x       y       z     vdW  Elec       q    Type
REMARK                         _______ _______ _______ _____ _____    ______ ____
ROOT
ATOM      4  C   UNL     1      -1.593   3.197  25.210  0.00  0.00    +0.237 C 
ATOM      5  O   UNL     1      -0.776   3.244  25.314  0.00  0.00    -0.274 OA
ATOM      6  N   UNL     1      -1.952   2.466  25.083  0.00  0.00    -0.271 N 
ATOM      7  C   UNL     1      -2.759   2.334  24.970  0.00  0.00    +0.096 C 
ATOM      8  C   UNL     1      -2.872   1.523  24.864  0.00  0.00    +0.045 C 
ATOM      9  C   UNL     1      -2.136   1.154  24.911  0.00  0.00    +0.126 C 
ATOM     22  C   UNL     1      -1.568   1.736  25.046  0.00  0.00    +0.172 C 
ENDROOT
BRANCH   9  10
ATOM     10  N   UNL     1      -1.993   0.345  24.836  0.00  0.00    -0.186 NA
ATOM     11  C   UNL     1      -2.612  -0.167  24.647  0.00  0.00    +0.344 C 
ATOM     12  O   UNL     1      -3.373   0.130  24.533  0.00  0.00    -0.249 OA
ATOM     13  N   UNL     1      -2.469  -0.976  24.571  0.00  0.00    -0.159 NA
BRANCH  13  14
ATOM     14  C   UNL     1      -3.088  -1.488  24.382  0.00  0.00    +0.102 A 
ATOM     15  C   UNL     1      -3.055  -2.279  24.615  0.00  0.00    +0.158 A 
ATOM     16  F   UNL     1      -2.403  -2.559  25.036  0.00  0.00    -0.203 F 
ATOM     17  C   UNL     1      -3.674  -2.790  24.425  0.00  0.00    +0.061 A 
ATOM     18  C   UNL     1      -4.326  -2.511  24.004  0.00  0.00    +0.142 A 
ATOM     19  F   UNL     1      -4.945  -3.023  23.815  0.00  0.00    -0.204 F 
ATOM     20  C   UNL     1      -4.358  -1.720  23.772  0.00  0.00    +0.031 A 
ATOM     21  C   UNL     1      -3.739  -1.209  23.961  0.00  0.00    +0.021 A 
ENDBRANCH  13  14
ENDBRANCH   9  10
BRANCH  22  23
ATOM     23  C   UNL     1      -0.756   1.612  25.130  0.00  0.00    +0.246 C 
ATOM     24  O   UNL     1      -0.419   1.578  25.882  0.00  0.00    -0.273 OA
ATOM     25  N   UNL     1      -0.282   1.521  24.461  0.00  0.00    -0.268 N 
ATOM     26  C   UNL     1      -0.618   1.555  23.709  0.00  0.00    +0.115 C 
BRANCH  25  27
ATOM     27  C   UNL     1       0.530   1.396  24.545  0.00  0.00    +0.183 C 
BRANCH  27  28
ATOM     28  C   UNL     1       0.986   1.196  23.888  0.00  0.00    +0.281 C 
ATOM     29  N   UNL     1       1.579   1.706  23.625  0.00  0.00    -0.086 NA
ATOM     30  O   UNL     1       0.848   0.485  23.493  0.00  0.00    -0.270 OA
ENDBRANCH  27  28
ENDBRANCH  25  27
ENDBRANCH  22  23
BRANCH   4   3
ATOM      3  C   UNL     1      -2.053   3.882  25.232  0.00  0.00    +0.143 C 
BRANCH   3   2
ATOM      1  C   UNL     1      -2.143   5.309  25.271  0.00  0.00    +0.070 C 
ATOM      2  S   UNL     1      -1.688   4.621  25.294  0.00  0.00    -0.130 S 
ENDBRANCH   3   2
ENDBRANCH   4   3
TORSDOF 7
ENDMDL
MODEL 7
REMARK VINA RESULT:      -8.0      2.817      4.566
REMARK  Name = 
REMARK  7 active torsions:
REMARK  status: ('A' for Active; 'I' for Inactive)
REMARK    1  A    between atoms: S_2  and  C_3
REMARK    2  A    between atoms: C_3  and  C_4
REMARK    3  A    between atoms: C_9  and  N_10
REMARK    4  A    between atoms: N_13  and  C_14
REMARK    5  A    between atoms: C_22  and  C_23
REMARK    6  A    between atoms: N_25  and  C_27
REMARK    7  A    between atoms: C_27  and  C_28
REMARK                            x       y       z     vdW  Elec       q    Type
REMARK                         _______ _______ _______ _____ _____    ______ ____
ROOT
ATOM      4  C   UNL     1      -4.443   1.218  25.001  0.00  0.00    +0.237 C 
ATOM      5  O   UNL     1      -4.787   0.559  25.357  0.00  0.00    -0.274 OA
ATOM      6  N   UNL     1      -3.682   1.169  24.688  0.00  0.00    -0.271 N 
ATOM      7  C   UNL     1      -3.269   1.779  24.317  0.00  0.00    +0.096 C 
ATOM      8  C   UNL     1      -2.531   1.486  24.090  0.00  0.00    +0.045 C 
ATOM      9  C   UNL     1      -2.489   0.695  24.320  0.00  0.00    +0.126 C 
ATOM     22  C   UNL     1      -3.200   0.499  24.689  0.00  0.00    +0.172 C 
ENDROOT
BRANCH   9  10
ATOM     10  N   UNL     1      -1.848   0.189  24.202  0.00  0.00    -0.186 NA
ATOM     11  C   UNL     1      -1.109   0.500  24.007  0.00  0.00    +0.344 C 
ATOM     12  O   UNL     1      -1.010   1.314  23.931  0.00  0.00    -0.249 OA
ATOM     13  N   UNL     1      -0.468  -0.007  23.888  0.00  0.00    -0.159 NA
BRANCH  13  14
ATOM     14  C   UNL     1       0.272   0.303  23.694  0.00  0.00    +0.102 A 
ATOM     15  C   UNL     1       0.753  -0.087  23.148  0.00  0.00    +0.158 A 
ATOM     16  F   UNL     1       0.494  -0.787  22.797  0.00  0.00    -0.203 F 
ATOM     17  C   UNL     1       1.492   0.224  22.954  0.00  0.00    +0.061 A 
ATOM     18  C   UNL     1       1.750   0.924  23.305  0.00  0.00    +0.142 A 
ATOM     19  F   UNL     1       2.489   1.234  23.110  0.00  0.00    -0.204 F 
ATOM     20  C   UNL     1       1.269   1.314  23.850  0.00  0.00    +0.031 A 
ATOM     21  C   UNL     1       0.530   1.003  24.045  0.00  0.00    +0.021 A 
ENDBRANCH  13  14
ENDBRANCH   9  10
BRANCH  22  23
ATOM     23  C   UNL     1      -3.395  -0.239  25.005  0.00  0.00    +0.246 C 
ATOM     24  O   UNL     1      -3.342  -0.367  25.818  0.00  0.00    -0.273 OA
ATOM     25  N   UNL     1      -3.643  -0.848  24.507  0.00  0.00    -0.268 N 
ATOM     26  C   UNL     1      -3.696  -0.720  23.693  0.00  0.00    +0.115 C 
BRANCH  25  27
ATOM     27  C   UNL     1      -3.838  -1.585  24.822  0.00  0.00    +0.183 C 
BRANCH  27  28
ATOM     28  C   UNL     1      -3.919  -2.238  24.324  0.00  0.00    +0.281 C 
ATOM     29  N   UNL     1      -3.367  -2.850  24.353  0.00  0.00    -0.086 NA
ATOM     30  O   UNL     1      -4.553  -2.278  23.798  0.00  0.00    -0.270 OA
ENDBRANCH  27  28
ENDBRANCH  25  27
ENDBRANCH  22  23
BRANCH   4   3
ATOM      3  C   UNL     1      -4.860   1.929  24.959  0.00  0.00    +0.143 C 
BRANCH   3   2
ATOM      1  C   UNL     1      -5.882   2.761  25.512  0.00  0.00    +0.070 C 
ATOM      2  S   UNL     1      -5.579   2.010  25.357  0.00  0.00    -0.130 S 
ENDBRANCH   3   2
ENDBRANCH   4   3
TORSDOF 7
ENDMDL
MODEL 8
REMARK VINA RESULT:      -7.9      2.613      4.018
REMARK  Name = 
REMARK  7 active torsions:
REMARK  status: ('A' for Active; 'I' for Inactive)
REMARK    1  A    between atoms: S_2  and  C_3
REMARK    2  A    between atoms: C_3  and  C_4
REMARK    3  A    between atoms: C_9  and  N_10
REMARK    4  A    between atoms: N_13  and  C_14
REMARK    5  A    between atoms: C_22  and  C_23
REMARK    6  A    between atoms: N_25  and  C_27
REMARK    7  A    between atoms: C_27  and  C_28
REMARK                            x       y       z     vdW  Elec       q    Type
REMARK                         _______ _______ _______ _____ _____    ______ ____
ROOT
ATOM      4  C   UNL     1      -0.041   1.011  23.980  0.00  0.00    +0.237 C 
ATOM      5  O   UNL     1       0.484   1.566  24.290  0.00  0.00    -0.274 OA
ATOM      6  N   UNL     1      -0.846   1.062  24.154  0.00  0.00    -0.271 N 
ATOM      7  C   UNL     1      -1.434   0.550  23.885  0.00  0.00    +0.096 C 
ATOM      8  C   UNL     1      -2.156   0.806  24.193  0.00  0.00    +0.045 C 
ATOM      9  C   UNL     1      -2.013   1.477  24.651  0.00  0.00    +0.126 C 
ATOM     22  C   UNL     1      -1.204   1.635  24.627  0.00  0.00    +0.172 C 
ENDROOT
BRANCH   9  10
ATOM     10  N   UNL     1      -2.581   1.914  25.061  0.00  0.00    -0.186 NA
ATOM     11  C   UNL     1      -3.383   1.769  24.934  0.00  0.00    +0.344 C 
ATOM     12  O   UNL     1      -3.618   1.189  24.398  0.00  0.00    -0.249 OA
ATOM     13  N   UNL     1      -3.950   2.206  25.345  0.00  0.00    -0.159 NA
BRANCH  13  14
ATOM     14  C   UNL     1      -4.753   2.061  25.218  0.00  0.00    +0.102 A 
ATOM     15  C   UNL     1      -5.270   2.690  25.084  0.00  0.00    +0.158 A 
ATOM     16  F   UNL     1      -4.985   3.464  25.077  0.00  0.00    -0.203 F 
ATOM     17  C   UNL     1      -6.072   2.544  24.957  0.00  0.00    +0.061 A 
ATOM     18  C   UNL     1      -6.357   1.770  24.964  0.00  0.00    +0.142 A 
ATOM     19  F   UNL     1      -7.159   1.625  24.837  0.00  0.00    -0.204 F 
ATOM     20  C   UNL     1      -5.840   1.142  25.098  0.00  0.00    +0.031 A 
ATOM     21  C   UNL     1      -5.038   1.287  25.225  0.00  0.00    +0.021 A 
ENDBRANCH  13  14
ENDBRANCH   9  10
BRANCH  22  23
ATOM     23  C   UNL     1      -0.820   2.258  25.010  0.00  0.00    +0.246 C 
ATOM     24  O   UNL     1      -0.417   2.122  25.717  0.00  0.00    -0.273 OA
ATOM     25  N   UNL     1      -0.838   3.016  24.684  0.00  0.00    -0.268 N 
ATOM     26  C   UNL     1      -1.241   3.151  23.977  0.00  0.00    +0.115 C 
BRANCH  25  27
ATOM     27  C   UNL     1      -0.454   3.638  25.067  0.00  0.00    +0.183 C 
BRANCH  27  28
ATOM     28  C   UNL     1      -0.618   4.418  24.852  0.00  0.00    +0.281 C 
ATOM     29  N   UNL     1      -1.186   4.849  25.266  0.00  0.00    -0.086 NA
ATOM     30  O   UNL     1      -0.214   4.764  24.222  0.00  0.00    -0.270 OA
ENDBRANCH  27  28
ENDBRANCH  25  27
ENDBRANCH  22  23
BRANCH   4   3
ATOM      3  C   UNL     1       0.237   0.403  23.496  0.00  0.00    +0.143 C 
BRANCH   3   2
ATOM      1  C   UNL     1       1.298  -0.161  22.720  0.00  0.00    +0.070 C 
ATOM      2  S   UNL     1       1.038   0.371  23.296  0.00  0.00    -0.130 S 
ENDBRANCH   3   2
ENDBRANCH   4   3
TORSDOF 7
ENDMDL
MODEL 9
REMARK VINA RESULT:      -7.8      2.190      3.252
REMARK  Name = 
REMARK  7 active torsions:
REMARK  status: ('A' for Active; 'I' for Inactive)
REMARK    1  A    between atoms: S_2  and  C_3
REMARK    2  A    between atoms: C_3  and  C_4
REMARK    3  A    between atoms: C_9  and  N_10
REMARK    4  A    between atoms: N_13  and  C_14
REMARK    5  A    between atoms: C_22  and  C_23
REMARK    6  A    between atoms: N_25  and  C_27
REMARK    7  A    between atoms: C_27  and  C_28
REMARK                            x       y       z     vdW  Elec       q    Type
REMARK                         _______ _______ _______ _____ _____    ______ ____
ROOT
ATOM      4  C   UNL     1      -4.159   3.422  25.382  0.00  0.00    +0.237 C 
ATOM      5  O   UNL     1      -3.803   4.053  25.776  0.00  0.00    -0.274 OA
ATOM      6  N   UNL     1      -3.700   2.792  25.113  0.00  0.00    -0.271 N 
ATOM      7  C   UNL     1      -3.977   2.126  24.712  0.00  0.00    +0.096 C 
ATOM      8  C   UNL     1      -3.330   1.639  24.549  0.00  0.00    +0.045 C 
ATOM      9  C   UNL     1      -2.654   2.004  24.849  0.00  0.00    +0.126 C 
ATOM     22  C   UNL     1      -2.882   2.716  25.197  0.00  0.00    +0.172 C 
ENDROOT
BRANCH   9  10
ATOM     10  N   UNL     1      -1.885   1.709  24.808  0.00  0.00    -0.186 NA
ATOM     11  C   UNL     1      -1.749   0.900  24.900  0.00  0.00    +0.344 C 
ATOM     12  O   UNL     1      -2.381   0.388  25.032  0.00  0.00    -0.249 OA
ATOM     13  N   UNL     1      -0.979   0.605  24.858  0.00  0.00    -0.159 NA
BRANCH  13  14
ATOM     14  C   UNL     1      -0.842  -0.203  24.950  0.00  0.00    +0.102 A 
ATOM     15  C   UNL     1      -0.431  -0.621  24.369  0.00  0.00    +0.158 A 
ATOM     16  F   UNL     1      -0.156  -0.230  23.696  0.00  0.00    -0.203 F 
ATOM     17  C   UNL     1      -0.295  -1.430  24.461  0.00  0.00    +0.061 A 
ATOM     18  C   UNL     1      -0.570  -1.820  25.134  0.00  0.00    +0.142 A 
ATOM     19  F   UNL     1      -0.434  -2.629  25.225  0.00  0.00    -0.204 F 
ATOM     20  C   UNL     1      -0.981  -1.403  25.714  0.00  0.00    +0.031 A 
ATOM     21  C   UNL     1      -1.117  -0.594  25.622  0.00  0.00    +0.021 A 
ENDBRANCH  13  14
ENDBRANCH   9  10
BRANCH  22  23
ATOM     23  C   UNL     1      -2.381   3.259  25.566  0.00  0.00    +0.246 C 
ATOM     24  O   UNL     1      -2.326   3.277  26.389  0.00  0.00    -0.273 OA
ATOM     25  N   UNL     1      -1.935   3.782  25.111  0.00  0.00    -0.268 N 
ATOM     26  C   UNL     1      -1.989   3.764  24.288  0.00  0.00    +0.115 C 
BRANCH  25  27
ATOM     27  C   UNL     1      -1.433   4.325  25.480  0.00  0.00    +0.183 C 
BRANCH  27  28
ATOM     28  C   UNL     1      -1.041   4.894  25.030  0.00  0.00    +0.281 C 
ATOM     29  N   UNL     1      -0.335   4.705  24.647  0.00  0.00    -0.086 NA
ATOM     30  O   UNL     1      -1.356   5.654  24.965  0.00  0.00    -0.270 OA
ENDBRANCH  27  28
ENDBRANCH  25  27
ENDBRANCH  22  23
BRANCH   4   3
ATOM      3  C   UNL     1      -4.974   3.420  25.256  0.00  0.00    +0.143 C 
BRANCH   3   2
ATOM      1  C   UNL     1      -6.271   3.923  25.589  0.00  0.00    +0.070 C 
ATOM      2  S   UNL     1      -5.449   3.987  25.625  0.00  0.00    -0.130 S 
ENDBRANCH   3   2
ENDBRANCH   4   3
TORSDOF 7
ENDMDL
