MODEL 1
REMARK VINA RESULT:     -13.0      0.000      0.000
REMARK  Name = 
REMARK  3 active torsions:
REMARK  status: ('A' for Active; 'I' for Inactive)
REMARK    1  A    between atoms: C_7  and  C_9
REMARK    2  A    between atoms: N_12  and  C_13
REMARK    3  A    between atoms: C_13  and  C_14
REMARK                            x       y       z     vdW  Elec       q    Type
REMARK                         _______ _______ _______ _____ _____    ______ ____
ROOT
ATOM      9  C   UNL     1      -3.072   1.852  24.351  0.00  0.00    +0.094 C 
ATOM     10  C   UNL     1      -3.187   1.539  23.597  0.00  0.00    +0.028 C 
ATOM     11  C   UNL     1      -3.676   0.878  23.665  0.00  0.00    +0.073 C 
ATOM     12  N   UNL     1      -3.863   0.782  24.463  0.00  0.00    -0.268 NA
ATOM     21  C   UNL     1      -3.490   1.384  24.887  0.00  0.00    +0.082 C 
ENDROOT
BRANCH   9   7
ATOM      1  F   UNL     1      -1.435   5.701  25.416  0.00  0.00    -0.204 F 
ATOM      2  C   UNL     1      -1.483   4.907  25.200  0.00  0.00    +0.142 A 
ATOM      3  C   UNL     1      -2.219   4.552  25.094  0.00  0.00    +0.052 A 
ATOM      4  C   UNL     1      -2.267   3.757  24.878  0.00  0.00    +0.121 A 
ATOM      5  C   UNL     1      -1.578   3.317  24.769  0.00  0.00    +0.165 A 
ATOM      6  O   UNL     1      -1.795   2.550  24.558  0.00  0.00    -0.438 OA
ATOM      7  C   UNL     1      -2.619   2.516  24.537  0.00  0.00    +0.207 A 
ATOM      8  N   UNL     1      -2.910   3.262  24.735  0.00  0.00    -0.212 NA
ATOM     22  C   UNL     1      -0.840   3.673  24.876  0.00  0.00    +0.041 A 
ATOM     23  C   UNL     1      -0.793   4.467  25.091  0.00  0.00    +0.033 A 
ENDBRANCH   9   7
BRANCH  12  13
ATOM     13  C   UNL     1      -4.340   0.189  24.781  0.00  0.00    +0.099 C 
BRANCH  13  14
ATOM     14  C   UNL     1      -4.071  -0.591  24.800  0.00  0.00    -0.006 A 
ATOM     15  C   UNL     1      -3.656  -0.870  25.456  0.00  0.00    -0.002 A 
ATOM     16  C   UNL     1      -3.388  -1.649  25.474  0.00  0.00    +0.011 A 
ATOM     17  C   UNL     1      -3.535  -2.151  24.836  0.00  0.00    +0.058 A 
ATOM     18 CL   UNL     1      -3.268  -2.931  24.855  0.00  0.00    -0.082 Cl
ATOM     19  C   UNL     1      -3.951  -1.873  24.180  0.00  0.00    +0.011 A 
ATOM     20  C   UNL     1      -4.219  -1.093  24.161  0.00  0.00    -0.002 A 
ENDBRANCH  13  14
ENDBRANCH  12  13
TORSDOF 3
ENDMDL
MODEL 2
REMARK VINA RESULT:     -12.8      2.780      5.253
REMARK  Name = 
REMARK  3 active torsions:
REMARK  status: ('A' for Active; 'I' for Inactive)
REMARK    1  A    between atoms: C_7  and  C_9
REMARK    2  A    between atoms: N_12  and  C_13
REMARK    3  A    between atoms: C_13  and  C_14
REMARK                            x       y       z     vdW  Elec       q    Type
REMARK                         _______ _______ _______ _____ _____    ______ ____
ROOT
ATOM      9  C   UNL     1      -4.507   0.900  24.870  0.00  0.00    +0.094 C 
ATOM     10  C   UNL     1      -5.102   1.207  25.352  0.00  0.00    +0.028 C 
ATOM     11  C   UNL     1      -5.105   2.028  25.263  0.00  0.00    +0.073 C 
ATOM     12  N   UNL     1      -4.513   2.227  24.725  0.00  0.00    -0.268 NA
ATOM     21  C   UNL     1      -4.143   1.531  24.482  0.00  0.00    +0.082 C 
ENDROOT
BRANCH   9   7
ATOM      1  F   UNL     1      -3.158  -3.186  25.207  0.00  0.00    -0.204 F 
ATOM      2  C   UNL     1      -3.499  -2.500  24.902  0.00  0.00    +0.142 A 
ATOM      3  C   UNL     1      -3.497  -1.806  25.346  0.00  0.00    +0.052 A 
ATOM      4  C   UNL     1      -3.838  -1.119  25.041  0.00  0.00    +0.121 A 
ATOM      5  C   UNL     1      -4.181  -1.128  24.291  0.00  0.00    +0.165 A 
ATOM      6  O   UNL     1      -4.474  -0.373  24.135  0.00  0.00    -0.438 OA
ATOM      7  C   UNL     1      -4.311   0.103  24.789  0.00  0.00    +0.207 A 
ATOM      8  N   UNL     1      -3.919  -0.359  25.348  0.00  0.00    -0.212 NA
ATOM     22  C   UNL     1      -4.183  -1.823  23.845  0.00  0.00    +0.041 A 
ATOM     23  C   UNL     1      -3.842  -2.509  24.151  0.00  0.00    +0.033 A 
ENDBRANCH   9   7
BRANCH  12  13
ATOM     13  C   UNL     1      -4.323   2.990  24.474  0.00  0.00    +0.099 C 
BRANCH  13  14
ATOM     14  C   UNL     1      -3.648   3.365  24.766  0.00  0.00    -0.006 A 
ATOM     15  C   UNL     1      -2.945   3.347  24.334  0.00  0.00    -0.002 A 
ATOM     16  C   UNL     1      -2.272   3.722  24.627  0.00  0.00    +0.011 A 
ATOM     17  C   UNL     1      -2.300   4.115  25.351  0.00  0.00    +0.058 A 
ATOM     18 CL   UNL     1      -1.626   4.490  25.644  0.00  0.00    -0.082 Cl
ATOM     19  C   UNL     1      -3.003   4.133  25.784  0.00  0.00    +0.011 A 
ATOM     20  C   UNL     1      -3.677   3.758  25.491  0.00  0.00    -0.002 A 
ENDBRANCH  13  14
ENDBRANCH  12  13
TORSDOF 3
ENDMDL
MODEL 3
REMARK VINA RESULT:     -12.1      3.022      5.453
REMARK  Name = 
REMARK  3 active torsions:
REMARK  status: ('A' for Active; 'I' for Inactive)
REMARK    1  A    between atoms: C_7  and  C_9
REMARK    2  A    between atoms: N_12  and  C_13
REMARK    3  A    between atoms: C_13  and  C_14
REMARK                            x       y       z     vdW  Elec       q    Type
REMARK                         _______ _______ _______ _____ _____    ______ ____
ROOT
ATOM      9  C   UNL     1      -1.528   0.481  24.806  0.00  0.00    +0.094 C 
ATOM     10  C   UNL     1      -0.863   0.631  24.341  0.00  0.00    +0.028 C 
ATOM     11  C   UNL     1      -0.467   1.278  24.664  0.00  0.00    +0.073 C 
ATOM     12  N   UNL     1      -0.887   1.529  25.328  0.00  0.00    -0.268 NA
ATOM     21  C   UNL     1      -1.543   1.035  25.416  0.00  0.00    +0.082 C 
ENDROOT
BRANCH   9   7
ATOM      1  F   UNL     1      -3.844  -3.149  24.492  0.00  0.00    -0.204 F 
ATOM      2  C   UNL     1      -3.627  -2.355  24.438  0.00  0.00    +0.142 A 
ATOM      3  C   UNL     1      -2.887  -2.111  24.706  0.00  0.00    +0.052 A 
ATOM      4  C   UNL     1      -2.669  -1.316  24.652  0.00  0.00    +0.121 A 
ATOM      5  C   UNL     1      -3.193  -0.767  24.330  0.00  0.00    +0.165 A 
ATOM      6  O   UNL     1      -2.830  -0.027  24.348  0.00  0.00    -0.438 OA
ATOM      7  C   UNL     1      -2.081  -0.119  24.682  0.00  0.00    +0.207 A 
ATOM      8  N   UNL     1      -1.983  -0.916  24.870  0.00  0.00    -0.212 NA
ATOM     22  C   UNL     1      -3.934  -1.011  24.060  0.00  0.00    +0.041 A 
ATOM     23  C   UNL     1      -4.151  -1.805  24.115  0.00  0.00    +0.033 A 
ENDBRANCH   9   7
BRANCH  12  13
ATOM     13  C   UNL     1      -0.687   2.160  25.819  0.00  0.00    +0.099 C 
BRANCH  13  14
ATOM     14  C   UNL     1      -0.931   2.925  25.628  0.00  0.00    -0.006 A 
ATOM     15  C   UNL     1      -1.651   3.212  25.913  0.00  0.00    -0.002 A 
ATOM     16  C   UNL     1      -1.895   3.976  25.722  0.00  0.00    +0.011 A 
ATOM     17  C   UNL     1      -1.420   4.455  25.247  0.00  0.00    +0.058 A 
ATOM     18 CL   UNL     1      -1.664   5.219  25.056  0.00  0.00    -0.082 Cl
ATOM     19  C   UNL     1      -0.700   4.168  24.962  0.00  0.00    +0.011 A 
ATOM     20  C   UNL     1      -0.455   3.403  25.153  0.00  0.00    -0.002 A 
ENDBRANCH  13  14
ENDBRANCH  12  13
TORSDOF 3
ENDMDL
