MODEL 1
REMARK VINA RESULT:      -9.9      0.000      0.000
REMARK  Name = 
REMARK  8 active torsions:
REMARK  status: ('A' for Active; 'I' for Inactive)
REMARK    1  A    between atoms: C_2  and  O_3
REMARK    2  A    between atoms: O_3  and  C_4
REMARK    3  A    between atoms: C_4  and  C_5
REMARK    4  A    between atoms: C_5  and  N_6
REMARK    5  A    between atoms: C_7  and  C_13
REMARK    6  A    between atoms: C_13  and  C_15
REMARK    7  A    between atoms: C_18  and  N_19
REMARK    8  A    between atoms: C_20  and  C_22
REMARK                            x       y       z     vdW  Elec       q    Type
REMARK                         _______ _______ _______ _____ _____    ______ ____
ROOT
ATOM     15  C   UNL     1      -3.824   1.999  24.119  0.00  0.00    +0.010 A 
ATOM     16  C   UNL     1      -3.112   1.697  23.830  0.00  0.00    -0.000 A 
ATOM     17  C   UNL     1      -3.002   0.881  23.776  0.00  0.00    +0.016 A 
ATOM     18  C   UNL     1      -3.604   0.367  24.010  0.00  0.00    +0.074 A 
ATOM     28  C   UNL     1      -4.315   0.669  24.299  0.00  0.00    +0.016 A 
ATOM     29  C   UNL     1      -4.425   1.485  24.353  0.00  0.00    -0.000 A 
ENDROOT
BRANCH  18  19
ATOM     19  N   UNL     1      -3.493  -0.449  23.956  0.00  0.00    -0.175 NA
ATOM     20  C   UNL     1      -3.218  -0.873  24.608  0.00  0.00    +0.270 C 
ATOM     21  O   UNL     1      -3.054  -0.481  25.314  0.00  0.00    -0.268 OA
BRANCH  20  22
ATOM     22  C   UNL     1      -3.108  -1.689  24.552  0.00  0.00    +0.075 A 
ATOM     23  C   UNL     1      -3.761  -2.191  24.509  0.00  0.00    +0.008 A 
ATOM     24  C   UNL     1      -3.651  -3.006  24.453  0.00  0.00    +0.021 A 
ATOM     25  C   UNL     1      -2.889  -3.320  24.440  0.00  0.00    +0.099 A 
ATOM     26  N   UNL     1      -2.235  -2.818  24.483  0.00  0.00    -0.242 NA
ATOM     27  C   UNL     1      -2.346  -2.002  24.539  0.00  0.00    +0.103 A 
ENDBRANCH  20  22
ENDBRANCH  18  19
BRANCH  15  13
ATOM     13  C   UNL     1      -3.934   2.815  24.174  0.00  0.00    +0.195 C 
ATOM     14  O   UNL     1      -3.799   3.294  23.516  0.00  0.00    -0.216 OA
BRANCH  13   7
ATOM      6  N   UNL     1      -3.646   3.580  25.345  0.00  0.00    -0.271 N 
ATOM      7  C   UNL     1      -4.180   3.152  24.886  0.00  0.00    +0.139 C 
ATOM      8  C   UNL     1      -4.960   3.059  25.137  0.00  0.00    +0.165 C 
ATOM      9  O   UNL     1      -5.206   3.396  25.849  0.00  0.00    -0.343 OA
ATOM     10  C   UNL     1      -4.671   3.825  26.310  0.00  0.00    +0.227 C 
ATOM     11  C   UNL     1      -3.891   3.917  26.057  0.00  0.00    +0.256 C 
ATOM     12  O   UNL     1      -3.356   4.345  26.517  0.00  0.00    -0.272 OA
BRANCH   6   5
ATOM      5  C   UNL     1      -2.865   3.672  25.093  0.00  0.00    +0.126 C 
BRANCH   5   4
ATOM      4  C   UNL     1      -2.420   4.314  25.355  0.00  0.00    +0.164 C 
BRANCH   4   3
ATOM      3  O   UNL     1      -1.607   4.335  25.220  0.00  0.00    -0.352 OA
BRANCH   3   2
ATOM      1  C   UNL     1      -0.497   5.045  24.663  0.00  0.00    +0.035 C 
ATOM      2  C   UNL     1      -1.238   5.048  25.026  0.00  0.00    +0.142 C 
ENDBRANCH   3   2
ENDBRANCH   4   3
ENDBRANCH   5   4
ENDBRANCH   6   5
ENDBRANCH  13   7
ENDBRANCH  15  13
TORSDOF 8
ENDMDL
MODEL 2
REMARK VINA RESULT:      -8.9      0.927      2.153
REMARK  Name = 
REMARK  8 active torsions:
REMARK  status: ('A' for Active; 'I' for Inactive)
REMARK    1  A    between atoms: C_2  and  O_3
REMARK    2  A    between atoms: O_3  and  C_4
REMARK    3  A    between atoms: C_4  and  C_5
REMARK    4  A    between atoms: C_5  and  N_6
REMARK    5  A    between atoms: C_7  and  C_13
REMARK    6  A    between atoms: C_13  and  C_15
REMARK    7  A    between atoms: C_18  and  N_19
REMARK    8  A    between atoms: C_20  and  C_22
REMARK                            x       y       z     vdW  Elec       q    Type
REMARK                         _______ _______ _______ _____ _____    ______ ____
ROOT
ATOM     15  C   UNL     1      -2.744   1.985  23.958  0.00  0.00    +0.010 A 
ATOM     16  C   UNL     1      -2.265   1.563  24.479  0.00  0.00    -0.000 A 
ATOM     17  C   UNL     1      -2.324   0.741  24.521  0.00  0.00    +0.016 A 
ATOM     18  C   UNL     1      -2.864   0.342  24.041  0.00  0.00    +0.074 A 
ATOM     28  C   UNL     1      -3.344   0.764  23.520  0.00  0.00    +0.016 A 
ATOM     29  C   UNL     1      -3.284   1.587  23.478  0.00  0.00    -0.000 A 
ENDROOT
BRANCH  18  19
ATOM     19  N   UNL     1      -2.924  -0.480  24.084  0.00  0.00    -0.175 NA
ATOM     20  C   UNL     1      -3.529  -0.828  24.523  0.00  0.00    +0.270 C 
ATOM     21  O   UNL     1      -4.074  -0.355  24.921  0.00  0.00    -0.268 OA
BRANCH  20  22
ATOM     22  C   UNL     1      -3.587  -1.650  24.565  0.00  0.00    +0.075 A 
ATOM     23  C   UNL     1      -3.991  -2.065  23.977  0.00  0.00    +0.008 A 
ATOM     24  C   UNL     1      -4.049  -2.886  24.018  0.00  0.00    +0.021 A 
ATOM     25  C   UNL     1      -3.705  -3.294  24.647  0.00  0.00    +0.099 A 
ATOM     26  N   UNL     1      -3.302  -2.880  25.235  0.00  0.00    -0.242 NA
ATOM     27  C   UNL     1      -3.243  -2.058  25.194  0.00  0.00    +0.103 A 
ENDBRANCH  20  22
ENDBRANCH  18  19
BRANCH  15  13
ATOM     13  C   UNL     1      -2.684   2.808  23.916  0.00  0.00    +0.195 C 
ATOM     14  O   UNL     1      -2.967   3.208  23.252  0.00  0.00    -0.216 OA
BRANCH  13   7
ATOM      6  N   UNL     1      -2.811   3.709  25.016  0.00  0.00    -0.271 N 
ATOM      7  C   UNL     1      -2.343   3.229  24.538  0.00  0.00    +0.139 C 
ATOM      8  C   UNL     1      -1.532   3.169  24.679  0.00  0.00    +0.165 C 
ATOM      9  O   UNL     1      -1.190   3.590  25.301  0.00  0.00    -0.343 OA
ATOM     10  C   UNL     1      -1.659   4.071  25.781  0.00  0.00    +0.227 C 
ATOM     11  C   UNL     1      -2.469   4.130  25.638  0.00  0.00    +0.256 C 
ATOM     12  O   UNL     1      -2.938   4.612  26.118  0.00  0.00    -0.272 OA
BRANCH   6   5
ATOM      5  C   UNL     1      -3.622   3.769  24.875  0.00  0.00    +0.126 C 
BRANCH   5   4
ATOM      4  C   UNL     1      -4.154   3.746  25.504  0.00  0.00    +0.164 C 
BRANCH   4   3
ATOM      3  O   UNL     1      -4.963   3.687  25.358  0.00  0.00    -0.352 OA
BRANCH   3   2
ATOM      1  C   UNL     1      -5.935   2.704  25.725  0.00  0.00    +0.035 C 
ATOM      2  C   UNL     1      -5.462   3.351  25.923  0.00  0.00    +0.142 C 
ENDBRANCH   3   2
ENDBRANCH   4   3
ENDBRANCH   5   4
ENDBRANCH   6   5
ENDBRANCH  13   7
ENDBRANCH  15  13
TORSDOF 8
ENDMDL
MODEL 3
REMARK VINA RESULT:      -8.2      1.968      6.076
REMARK  Name = 
REMARK  8 active torsions:
REMARK  status: ('A' for Active; 'I' for Inactive)
REMARK    1  A    between atoms: C_2  and  O_3
REMARK    2  A    between atoms: O_3  and  C_4
REMARK    3  A    between atoms: C_4  and  C_5
REMARK    4  A    between atoms: C_5  and  N_6
REMARK    5  A    between atoms: C_7  and  C_13
REMARK    6  A    between atoms: C_13  and  C_15
REMARK    7  A    between atoms: C_18  and  N_19
REMARK    8  A    between atoms: C_20  and  C_22
REMARK                            x       y       z     vdW  Elec       q    Type
REMARK                         _______ _______ _______ _____ _____    ______ ____
ROOT
ATOM     15  C   UNL     1      -1.649   0.331  25.466  0.00  0.00    +0.010 A 
ATOM     16  C   UNL     1      -2.165   0.719  24.952  0.00  0.00    -0.000 A 
ATOM     17  C   UNL     1      -2.041   1.512  24.762  0.00  0.00    +0.016 A 
ATOM     18  C   UNL     1      -1.398   1.917  25.086  0.00  0.00    +0.074 A 
ATOM     28  C   UNL     1      -0.882   1.529  25.600  0.00  0.00    +0.016 A 
ATOM     29  C   UNL     1      -1.008   0.735  25.790  0.00  0.00    -0.000 A 
ENDROOT
BRANCH  18  19
ATOM     19  N   UNL     1      -1.274   2.710  24.896  0.00  0.00    -0.175 NA
ATOM     20  C   UNL     1      -1.487   3.301  25.431  0.00  0.00    +0.270 C 
ATOM     21  O   UNL     1      -1.824   3.100  26.155  0.00  0.00    -0.268 OA
BRANCH  20  22
ATOM     22  C   UNL     1      -1.361   4.094  25.239  0.00  0.00    +0.075 A 
ATOM     23  C   UNL     1      -1.960   4.648  25.364  0.00  0.00    +0.008 A 
ATOM     24  C   UNL     1      -1.835   5.440  25.173  0.00  0.00    +0.021 A 
ATOM     25  C   UNL     1      -1.111   5.680  24.857  0.00  0.00    +0.099 A 
ATOM     26  N   UNL     1      -0.513   5.126  24.732  0.00  0.00    -0.242 NA
ATOM     27  C   UNL     1      -0.638   4.333  24.924  0.00  0.00    +0.103 A 
ENDBRANCH  20  22
ENDBRANCH  18  19
BRANCH  15  13
ATOM     13  C   UNL     1      -1.775  -0.463  25.656  0.00  0.00    +0.195 C 
ATOM     14  O   UNL     1      -2.323  -0.665  26.238  0.00  0.00    -0.216 OA
BRANCH  13   7
ATOM      6  N   UNL     1      -1.749  -1.697  24.937  0.00  0.00    -0.271 N 
ATOM      7  C   UNL     1      -1.352  -1.053  25.264  0.00  0.00    +0.139 C 
ATOM      8  C   UNL     1      -0.531  -0.998  25.199  0.00  0.00    +0.165 C 
ATOM      9  O   UNL     1      -0.108  -1.588  24.807  0.00  0.00    -0.343 OA
ATOM     10  C   UNL     1      -0.506  -2.233  24.480  0.00  0.00    +0.227 C 
ATOM     11  C   UNL     1      -1.326  -2.287  24.545  0.00  0.00    +0.256 C 
ATOM     12  O   UNL     1      -1.724  -2.932  24.218  0.00  0.00    -0.272 OA
BRANCH   6   5
ATOM      5  C   UNL     1      -2.570  -1.752  25.002  0.00  0.00    +0.126 C 
BRANCH   5   4
ATOM      4  C   UNL     1      -3.010  -2.093  24.394  0.00  0.00    +0.164 C 
BRANCH   4   3
ATOM      3  O   UNL     1      -3.826  -2.181  24.474  0.00  0.00    -0.352 OA
BRANCH   3   2
ATOM      1  C   UNL     1      -4.835  -2.497  23.512  0.00  0.00    +0.035 C 
ATOM      2  C   UNL     1      -4.329  -1.948  23.863  0.00  0.00    +0.142 C 
ENDBRANCH   3   2
ENDBRANCH   4   3
ENDBRANCH   5   4
ENDBRANCH   6   5
ENDBRANCH  13   7
ENDBRANCH  15  13
TORSDOF 8
ENDMDL
MODEL 4
REMARK VINA RESULT:      -8.1      1.641      5.552
REMARK  Name = 
REMARK  8 active torsions:
REMARK  status: ('A' for Active; 'I' for Inactive)
REMARK    1  A    between atoms: C_2  and  O_3
REMARK    2  A    between atoms: O_3  and  C_4
REMARK    3  A    between atoms: C_4  and  C_5
REMARK    4  A    between atoms: C_5  and  N_6
REMARK    5  A    between atoms: C_7  and  C_13
REMARK    6  A    between atoms: C_13  and  C_15
REMARK    7  A    between atoms: C_18  and  N_19
REMARK    8  A    between atoms: C_20  and  C_22
REMARK                            x       y       z     vdW  Elec       q    Type
REMARK                         _______ _______ _______ _____ _____    ______ ____
ROOT
ATOM     15  C   UNL     1      -3.138   0.327  25.288  0.00  0.00    +0.010 A 
ATOM     16  C   UNL     1      -3.668   0.952  25.385  0.00  0.00    -0.000 A 
ATOM     17  C   UNL     1      -3.426   1.726  25.235  0.00  0.00    +0.016 A 
ATOM     18  C   UNL     1      -2.653   1.875  24.987  0.00  0.00    +0.074 A 
ATOM     28  C   UNL     1      -2.123   1.251  24.890  0.00  0.00    +0.016 A 
ATOM     29  C   UNL     1      -2.366   0.476  25.040  0.00  0.00    -0.000 A 
ENDROOT
BRANCH  18  19
ATOM     19  N   UNL     1      -2.411   2.649  24.837  0.00  0.00    -0.175 NA
ATOM     20  C   UNL     1      -1.915   3.038  25.370  0.00  0.00    +0.270 C 
ATOM     21  O   UNL     1      -1.662   2.652  26.053  0.00  0.00    -0.268 OA
BRANCH  20  22
ATOM     22  C   UNL     1      -1.674   3.813  25.219  0.00  0.00    +0.075 A 
ATOM     23  C   UNL     1      -0.925   3.957  24.904  0.00  0.00    +0.008 A 
ATOM     24  C   UNL     1      -0.683   4.730  24.753  0.00  0.00    +0.021 A 
ATOM     25  C   UNL     1      -1.190   5.361  24.916  0.00  0.00    +0.099 A 
ATOM     26  N   UNL     1      -1.939   5.217  25.230  0.00  0.00    -0.242 NA
ATOM     27  C   UNL     1      -2.181   4.442  25.381  0.00  0.00    +0.103 A 
ENDBRANCH  20  22
ENDBRANCH  18  19
BRANCH  15  13
ATOM     13  C   UNL     1      -3.381  -0.448  25.438  0.00  0.00    +0.195 C 
ATOM     14  O   UNL     1      -3.294  -0.767  26.194  0.00  0.00    -0.216 OA
BRANCH  13   7
ATOM      6  N   UNL     1      -3.406  -1.650  24.668  0.00  0.00    -0.271 N 
ATOM      7  C   UNL     1      -3.710  -0.902  24.833  0.00  0.00    +0.139 C 
ATOM      8  C   UNL     1      -4.342  -0.606  24.393  0.00  0.00    +0.165 C 
ATOM      9  O   UNL     1      -4.671  -1.061  23.788  0.00  0.00    -0.343 OA
ATOM     10  C   UNL     1      -4.367  -1.811  23.623  0.00  0.00    +0.227 C 
ATOM     11  C   UNL     1      -3.735  -2.105  24.063  0.00  0.00    +0.256 C 
ATOM     12  O   UNL     1      -3.431  -2.855  23.898  0.00  0.00    -0.272 OA
BRANCH   6   5
ATOM      5  C   UNL     1      -2.773  -1.946  25.108  0.00  0.00    +0.126 C 
BRANCH   5   4
ATOM      4  C   UNL     1      -2.142  -2.315  24.728  0.00  0.00    +0.164 C 
BRANCH   4   3
ATOM      3  O   UNL     1      -1.473  -2.533  25.156  0.00  0.00    -0.352 OA
BRANCH   3   2
ATOM      1  C   UNL     1      -0.068  -2.275  25.224  0.00  0.00    +0.035 C 
ATOM      2  C   UNL     1      -0.730  -2.521  24.797  0.00  0.00    +0.142 C 
ENDBRANCH   3   2
ENDBRANCH   4   3
ENDBRANCH   5   4
ENDBRANCH   6   5
ENDBRANCH  13   7
ENDBRANCH  15  13
TORSDOF 8
ENDMDL
MODEL 5
REMARK VINA RESULT:      -8.0      2.750      5.232
REMARK  Name = 
REMARK  8 active torsions:
REMARK  status: ('A' for Active; 'I' for Inactive)
REMARK    1  A    between atoms: C_2  and  O_3
REMARK    2  A    between atoms: O_3  and  C_4
REMARK    3  A    between atoms: C_4  and  C_5
REMARK    4  A    between atoms: C_5  and  N_6
REMARK    5  A    between atoms: C_7  and  C_13
REMARK    6  A    between atoms: C_13  and  C_15
REMARK    7  A    between atoms: C_18  and  N_19
REMARK    8  A    between atoms: C_20  and  C_22
REMARK                            x       y       z     vdW  Elec       q    Type
REMARK                         _______ _______ _______ _____ _____    ______ ____
ROOT
ATOM     15  C   UNL     1      -1.170   1.651  24.721  0.00  0.00    +0.010 A 
ATOM     16  C   UNL     1      -1.291   2.090  25.409  0.00  0.00    -0.000 A 
ATOM     17  C   UNL     1      -1.977   2.540  25.497  0.00  0.00    +0.016 A 
ATOM     18  C   UNL     1      -2.543   2.549  24.897  0.00  0.00    +0.074 A 
ATOM     28  C   UNL     1      -2.423   2.110  24.209  0.00  0.00    +0.016 A 
ATOM     29  C   UNL     1      -1.736   1.661  24.121  0.00  0.00    -0.000 A 
ENDROOT
BRANCH  18  19
ATOM     19  N   UNL     1      -3.230   2.998  24.985  0.00  0.00    -0.175 NA
ATOM     20  C   UNL     1      -3.924   2.643  25.254  0.00  0.00    +0.270 C 
ATOM     21  O   UNL     1      -3.932   1.839  25.434  0.00  0.00    -0.268 OA
BRANCH  20  22
ATOM     22  C   UNL     1      -4.610   3.093  25.342  0.00  0.00    +0.075 A 
ATOM     23  C   UNL     1      -5.334   2.720  25.469  0.00  0.00    +0.008 A 
ATOM     24  C   UNL     1      -6.020   3.169  25.557  0.00  0.00    +0.021 A 
ATOM     25  C   UNL     1      -5.982   3.993  25.517  0.00  0.00    +0.099 A 
ATOM     26  N   UNL     1      -5.257   4.366  25.390  0.00  0.00    -0.242 NA
ATOM     27  C   UNL     1      -4.572   3.916  25.302  0.00  0.00    +0.103 A 
ENDBRANCH  20  22
ENDBRANCH  18  19
BRANCH  15  13
ATOM     13  C   UNL     1      -0.483   1.202  24.633  0.00  0.00    +0.195 C 
ATOM     14  O   UNL     1       0.228   1.571  24.436  0.00  0.00    -0.216 OA
BRANCH  13   7
ATOM      6  N   UNL     1      -0.154  -0.116  24.191  0.00  0.00    -0.271 N 
ATOM      7  C   UNL     1      -0.508   0.384  24.742  0.00  0.00    +0.139 C 
ATOM      8  C   UNL     1      -0.887   0.068  25.404  0.00  0.00    +0.165 C 
ATOM      9  O   UNL     1      -0.911  -0.749  25.513  0.00  0.00    -0.343 OA
ATOM     10  C   UNL     1      -0.557  -1.250  24.961  0.00  0.00    +0.227 C 
ATOM     11  C   UNL     1      -0.179  -0.933  24.300  0.00  0.00    +0.256 C 
ATOM     12  O   UNL     1       0.175  -1.434  23.747  0.00  0.00    -0.272 OA
BRANCH   6   5
ATOM      5  C   UNL     1       0.224   0.200  23.529  0.00  0.00    +0.126 C 
BRANCH   5   4
ATOM      4  C   UNL     1       0.919  -0.143  23.247  0.00  0.00    +0.164 C 
BRANCH   4   3
ATOM      3  O   UNL     1       1.385   0.259  22.699  0.00  0.00    -0.352 OA
BRANCH   3   2
ATOM      1  C   UNL     1       2.778   0.314  22.381  0.00  0.00    +0.035 C 
ATOM      2  C   UNL     1       2.063  -0.097  22.392  0.00  0.00    +0.142 C 
ENDBRANCH   3   2
ENDBRANCH   4   3
ENDBRANCH   5   4
ENDBRANCH   6   5
ENDBRANCH  13   7
ENDBRANCH  15  13
TORSDOF 8
ENDMDL
MODEL 6
REMARK VINA RESULT:      -7.8      3.046      5.029
REMARK  Name = 
REMARK  8 active torsions:
REMARK  status: ('A' for Active; 'I' for Inactive)
REMARK    1  A    between atoms: C_2  and  O_3
REMARK    2  A    between atoms: O_3  and  C_4
REMARK    3  A    between atoms: C_4  and  C_5
REMARK    4  A    between atoms: C_5  and  N_6
REMARK    5  A    between atoms: C_7  and  C_13
REMARK    6  A    between atoms: C_13  and  C_15
REMARK    7  A    between atoms: C_18  and  N_19
REMARK    8  A    between atoms: C_20  and  C_22
REMARK                            x       y       z     vdW  Elec       q    Type
REMARK                         _______ _______ _______ _____ _____    ______ ____
ROOT
ATOM     15  C   UNL     1      -1.651  -0.667  25.031  0.00  0.00    +0.010 A 
ATOM     16  C   UNL     1      -1.055  -1.237  25.011  0.00  0.00    -0.000 A 
ATOM     17  C   UNL     1      -0.312  -1.048  24.706  0.00  0.00    +0.016 A 
ATOM     18  C   UNL     1      -0.166  -0.287  24.421  0.00  0.00    +0.074 A 
ATOM     28  C   UNL     1      -0.762   0.283  24.441  0.00  0.00    +0.016 A 
ATOM     29  C   UNL     1      -1.505   0.093  24.746  0.00  0.00    -0.000 A 
ENDROOT
BRANCH  18  19
ATOM     19  N   UNL     1       0.577  -0.098  24.115  0.00  0.00    -0.175 NA
ATOM     20  C   UNL     1       0.700  -0.098  23.300  0.00  0.00    +0.270 C 
ATOM     21  O   UNL     1       0.082  -0.288  22.789  0.00  0.00    -0.268 OA
BRANCH  20  22
ATOM     22  C   UNL     1       1.444   0.091  22.996  0.00  0.00    +0.075 A 
ATOM     23  C   UNL     1       1.901   0.675  23.358  0.00  0.00    +0.008 A 
ATOM     24  C   UNL     1       2.643   0.864  23.055  0.00  0.00    +0.021 A 
ATOM     25  C   UNL     1       2.930   0.471  22.389  0.00  0.00    +0.099 A 
ATOM     26  N   UNL     1       2.474  -0.113  22.026  0.00  0.00    -0.242 NA
ATOM     27  C   UNL     1       1.730  -0.302  22.330  0.00  0.00    +0.103 A 
ENDBRANCH  20  22
ENDBRANCH  18  19
BRANCH  15  13
ATOM     13  C   UNL     1      -2.394  -0.857  25.337  0.00  0.00    +0.195 C 
ATOM     14  O   UNL     1      -2.578  -0.669  26.119  0.00  0.00    -0.216 OA
BRANCH  13   7
ATOM      6  N   UNL     1      -3.702  -0.904  24.765  0.00  0.00    -0.271 N 
ATOM      7  C   UNL     1      -2.952  -1.234  24.860  0.00  0.00    +0.139 C 
ATOM      8  C   UNL     1      -2.759  -1.940  24.480  0.00  0.00    +0.165 C 
ATOM      9  O   UNL     1      -3.318  -2.317  24.003  0.00  0.00    -0.343 OA
ATOM     10  C   UNL     1      -4.069  -1.987  23.907  0.00  0.00    +0.227 C 
ATOM     11  C   UNL     1      -4.260  -1.281  24.288  0.00  0.00    +0.256 C 
ATOM     12  O   UNL     1      -5.011  -0.951  24.192  0.00  0.00    -0.272 OA
BRANCH   6   5
ATOM      5  C   UNL     1      -3.895  -0.198  25.145  0.00  0.00    +0.126 C 
BRANCH   5   4
ATOM      4  C   UNL     1      -4.454   0.310  24.815  0.00  0.00    +0.164 C 
BRANCH   4   3
ATOM      3  O   UNL     1      -4.699   0.979  25.230  0.00  0.00    -0.352 OA
BRANCH   3   2
ATOM      1  C   UNL     1      -5.252   2.298  25.223  0.00  0.00    +0.035 C 
ATOM      2  C   UNL     1      -4.907   1.665  24.821  0.00  0.00    +0.142 C 
ENDBRANCH   3   2
ENDBRANCH   4   3
ENDBRANCH   5   4
ENDBRANCH   6   5
ENDBRANCH  13   7
ENDBRANCH  15  13
TORSDOF 8
ENDMDL
