MODEL 1
REMARK VINA RESULT:     -11.4      0.000      0.000
REMARK  Name = 
REMARK  5 active torsions:
REMARK  status: ('A' for Active; 'I' for Inactive)
REMARK    1  A    between atoms: C_4  and  N_18
REMARK    2  A    between atoms: C_6  and  C_7
REMARK    3  A    between atoms: C_9  and  C_12
REMARK    4  A    between atoms: N_18  and  S_19
REMARK    5  A    between atoms: S_19  and  C_22
REMARK                            x       y       z     vdW  Elec       q    Type
REMARK                         _______ _______ _______ _____ _____    ______ ____
ROOT
ATOM      1  C   UNL     1       0.181   0.871  23.897  0.00  0.00    +0.090 C 
ATOM      2  N   UNL     1      -0.274   0.497  24.474  0.00  0.00    -0.264 NA
ATOM      3  C   UNL     1      -0.476  -0.303  24.489  0.00  0.00    +0.092 C 
ATOM      4  C   UNL     1      -0.934  -0.437  25.163  0.00  0.00    +0.115 C 
ATOM      5  C   UNL     1      -1.014   0.279  25.564  0.00  0.00    +0.046 C 
ATOM      6  C   UNL     1      -0.606   0.857  25.138  0.00  0.00    +0.139 C 
ENDROOT
BRANCH   6   7
ATOM      7  C   UNL     1      -0.542   1.653  25.341  0.00  0.00    +0.251 A 
ATOM      8  N   UNL     1      -1.078   2.249  25.143  0.00  0.00    -0.188 NA
ATOM      9  C   UNL     1      -0.797   2.958  25.457  0.00  0.00    +0.223 A 
ATOM     10  N   UNL     1      -0.089   2.801  25.849  0.00  0.00    -0.054 NA
ATOM     11  O   UNL     1       0.069   1.995  25.778  0.00  0.00    -0.336 OA
BRANCH   9  12
ATOM     12  C   UNL     1      -1.162   3.696  25.390  0.00  0.00    +0.139 A 
ATOM     13  C   UNL     1      -0.754   4.328  25.053  0.00  0.00    +0.121 A 
ATOM     14  N   UNL     1      -1.118   5.066  24.986  0.00  0.00    -0.239 NA
ATOM     15  C   UNL     1      -1.891   5.170  25.257  0.00  0.00    +0.120 A 
ATOM     16  C   UNL     1      -2.299   4.537  25.594  0.00  0.00    +0.120 A 
ATOM     17  N   UNL     1      -1.934   3.800  25.660  0.00  0.00    -0.237 NA
ENDBRANCH   9  12
ENDBRANCH   6   7
BRANCH   4  18
ATOM     18  N   UNL     1      -1.255  -1.161  25.394  0.00  0.00    -0.078 NA
BRANCH  18  19
ATOM     19  S   UNL     1      -1.959  -1.428  25.055  0.00  0.00    +0.077 S 
ATOM     20  O   UNL     1      -1.528  -1.819  24.470  0.00  0.00    -0.152 OA
ATOM     21  O   UNL     1      -2.388  -1.037  25.640  0.00  0.00    -0.152 OA
BRANCH  19  22
ATOM     22  C   UNL     1      -2.661  -1.695  24.716  0.00  0.00    +0.124 A 
ATOM     23  C   UNL     1      -2.773  -2.501  24.580  0.00  0.00    +0.020 A 
ATOM     24  C   UNL     1      -3.476  -2.769  24.241  0.00  0.00    -0.003 A 
ATOM     25  C   UNL     1      -4.067  -2.231  24.038  0.00  0.00    -0.022 A 
ATOM     26  C   UNL     1      -4.770  -2.498  23.698  0.00  0.00    +0.031 C 
ATOM     27  C   UNL     1      -3.955  -1.424  24.174  0.00  0.00    -0.003 A 
ATOM     28  C   UNL     1      -3.253  -1.157  24.513  0.00  0.00    +0.020 A 
ENDBRANCH  19  22
ENDBRANCH  18  19
ENDBRANCH   4  18
TORSDOF 5
ENDMDL
MODEL 2
REMARK VINA RESULT:     -10.8      1.328      5.274
REMARK  Name = 
REMARK  5 active torsions:
REMARK  status: ('A' for Active; 'I' for Inactive)
REMARK    1  A    between atoms: C_4  and  N_18
REMARK    2  A    between atoms: C_6  and  C_7
REMARK    3  A    between atoms: C_9  and  C_12
REMARK    4  A    between atoms: N_18  and  S_19
REMARK    5  A    between atoms: S_19  and  C_22
REMARK                            x       y       z     vdW  Elec       q    Type
REMARK                         _______ _______ _______ _____ _____    ______ ____
ROOT
ATOM      1  C   UNL     1      -0.038   0.140  23.521  0.00  0.00    +0.090 C 
ATOM      2  N   UNL     1      -0.195   0.527  24.232  0.00  0.00    -0.264 NA
ATOM      3  C   UNL     1       0.124   1.248  24.473  0.00  0.00    +0.092 C 
ATOM      4  C   UNL     1      -0.183   1.428  25.218  0.00  0.00    +0.115 C 
ATOM      5  C   UNL     1      -0.692   0.817  25.438  0.00  0.00    +0.046 C 
ATOM      6  C   UNL     1      -0.700   0.260  24.829  0.00  0.00    +0.139 C 
ENDROOT
BRANCH   6   7
ATOM      7  C   UNL     1      -1.136  -0.440  24.818  0.00  0.00    +0.251 A 
ATOM      8  N   UNL     1      -1.912  -0.525  24.550  0.00  0.00    -0.188 NA
ATOM      9  C   UNL     1      -2.127  -1.316  24.639  0.00  0.00    +0.223 A 
ATOM     10  N   UNL     1      -1.485  -1.721  24.962  0.00  0.00    -0.054 NA
ATOM     11  O   UNL     1      -0.872  -1.180  25.072  0.00  0.00    -0.336 OA
BRANCH   9  12
ATOM     12  C   UNL     1      -2.858  -1.644  24.441  0.00  0.00    +0.139 A 
ATOM     13  C   UNL     1      -2.964  -2.462  24.471  0.00  0.00    +0.121 A 
ATOM     14  N   UNL     1      -3.694  -2.791  24.272  0.00  0.00    -0.239 NA
ATOM     15  C   UNL     1      -4.318  -2.302  24.044  0.00  0.00    +0.120 A 
ATOM     16  C   UNL     1      -4.213  -1.485  24.014  0.00  0.00    +0.120 A 
ATOM     17  N   UNL     1      -3.482  -1.156  24.212  0.00  0.00    -0.237 NA
ENDBRANCH   9  12
ENDBRANCH   6   7
BRANCH   4  18
ATOM     18  N   UNL     1      -0.011   2.100  25.664  0.00  0.00    -0.078 NA
BRANCH  18  19
ATOM     19  S   UNL     1      -0.449   2.790  25.556  0.00  0.00    +0.077 S 
ATOM     20  O   UNL     1      -0.876   2.625  26.243  0.00  0.00    -0.152 OA
ATOM     21  O   UNL     1      -0.022   2.954  24.870  0.00  0.00    -0.152 OA
BRANCH  19  22
ATOM     22  C   UNL     1      -0.888   3.480  25.449  0.00  0.00    +0.124 A 
ATOM     23  C   UNL     1      -1.662   3.525  25.733  0.00  0.00    +0.020 A 
ATOM     24  C   UNL     1      -2.101   4.215  25.626  0.00  0.00    -0.003 A 
ATOM     25  C   UNL     1      -1.767   4.860  25.237  0.00  0.00    -0.022 A 
ATOM     26  C   UNL     1      -2.207   5.551  25.130  0.00  0.00    +0.031 C 
ATOM     27  C   UNL     1      -0.993   4.816  24.953  0.00  0.00    -0.003 A 
ATOM     28  C   UNL     1      -0.554   4.127  25.059  0.00  0.00    +0.020 A 
ENDBRANCH  19  22
ENDBRANCH  18  19
ENDBRANCH   4  18
TORSDOF 5
ENDMDL
MODEL 3
REMARK VINA RESULT:     -10.3      2.203      3.065
REMARK  Name = 
REMARK  5 active torsions:
REMARK  status: ('A' for Active; 'I' for Inactive)
REMARK    1  A    between atoms: C_4  and  N_18
REMARK    2  A    between atoms: C_6  and  C_7
REMARK    3  A    between atoms: C_9  and  C_12
REMARK    4  A    between atoms: N_18  and  S_19
REMARK    5  A    between atoms: S_19  and  C_22
REMARK                            x       y       z     vdW  Elec       q    Type
REMARK                         _______ _______ _______ _____ _____    ______ ____
ROOT
ATOM      1  C   UNL     1      -5.286   2.709  25.829  0.00  0.00    +0.090 C 
ATOM      2  N   UNL     1      -4.983   2.084  25.384  0.00  0.00    -0.264 NA
ATOM      3  C   UNL     1      -5.267   1.310  25.377  0.00  0.00    +0.092 C 
ATOM      4  C   UNL     1      -4.802   0.871  24.855  0.00  0.00    +0.115 C 
ATOM      5  C   UNL     1      -4.230   1.374  24.539  0.00  0.00    +0.046 C 
ATOM      6  C   UNL     1      -4.341   2.124  24.866  0.00  0.00    +0.139 C 
ENDROOT
BRANCH   6   7
ATOM      7  C   UNL     1      -3.891   2.795  24.703  0.00  0.00    +0.251 A 
ATOM      8  N   UNL     1      -3.124   2.942  24.971  0.00  0.00    -0.188 NA
ATOM      9  C   UNL     1      -2.887   3.675  24.678  0.00  0.00    +0.223 A 
ATOM     10  N   UNL     1      -3.508   3.983  24.228  0.00  0.00    -0.054 NA
ATOM     11  O   UNL     1      -4.128   3.439  24.244  0.00  0.00    -0.336 OA
BRANCH   9  12
ATOM     12  C   UNL     1      -2.158   4.038  24.810  0.00  0.00    +0.139 A 
ATOM     13  C   UNL     1      -2.128   4.806  25.108  0.00  0.00    +0.121 A 
ATOM     14  N   UNL     1      -1.398   5.169  25.241  0.00  0.00    -0.239 NA
ATOM     15  C   UNL     1      -0.700   4.763  25.075  0.00  0.00    +0.120 A 
ATOM     16  C   UNL     1      -0.730   3.995  24.776  0.00  0.00    +0.120 A 
ATOM     17  N   UNL     1      -1.459   3.632  24.644  0.00  0.00    -0.237 NA
ENDBRANCH   9  12
ENDBRANCH   6   7
BRANCH   4  18
ATOM     18  N   UNL     1      -4.894   0.070  24.681  0.00  0.00    -0.078 NA
BRANCH  18  19
ATOM     19  S   UNL     1      -4.244  -0.437  24.717  0.00  0.00    +0.077 S 
ATOM     20  O   UNL     1      -4.161  -0.387  23.897  0.00  0.00    -0.152 OA
ATOM     21  O   UNL     1      -4.327  -0.486  25.535  0.00  0.00    -0.152 OA
BRANCH  19  22
ATOM     22  C   UNL     1      -3.594  -0.944  24.751  0.00  0.00    +0.124 A 
ATOM     23  C   UNL     1      -3.574  -1.621  24.280  0.00  0.00    +0.020 A 
ATOM     24  C   UNL     1      -2.924  -2.129  24.315  0.00  0.00    -0.003 A 
ATOM     25  C   UNL     1      -2.295  -1.959  24.819  0.00  0.00    -0.022 A 
ATOM     26  C   UNL     1      -1.645  -2.466  24.853  0.00  0.00    +0.031 C 
ATOM     27  C   UNL     1      -2.314  -1.281  25.290  0.00  0.00    -0.003 A 
ATOM     28  C   UNL     1      -2.963  -0.774  25.256  0.00  0.00    +0.020 A 
ENDBRANCH  19  22
ENDBRANCH  18  19
ENDBRANCH   4  18
TORSDOF 5
ENDMDL
MODEL 4
REMARK VINA RESULT:     -10.2      2.544      5.980
REMARK  Name = 
REMARK  5 active torsions:
REMARK  status: ('A' for Active; 'I' for Inactive)
REMARK    1  A    between atoms: C_4  and  N_18
REMARK    2  A    between atoms: C_6  and  C_7
REMARK    3  A    between atoms: C_9  and  C_12
REMARK    4  A    between atoms: N_18  and  S_19
REMARK    5  A    between atoms: S_19  and  C_22
REMARK                            x       y       z     vdW  Elec       q    Type
REMARK                         _______ _______ _______ _____ _____    ______ ____
ROOT
ATOM      1  C   UNL     1      -5.667   1.784  24.657  0.00  0.00    +0.090 C 
ATOM      2  N   UNL     1      -4.961   2.082  24.962  0.00  0.00    -0.264 NA
ATOM      3  C   UNL     1      -4.872   2.789  25.378  0.00  0.00    +0.092 C 
ATOM      4  C   UNL     1      -4.076   2.869  25.578  0.00  0.00    +0.115 C 
ATOM      5  C   UNL     1      -3.672   2.211  25.286  0.00  0.00    +0.046 C 
ATOM      6  C   UNL     1      -4.219   1.724  24.906  0.00  0.00    +0.139 C 
ENDROOT
BRANCH   6   7
ATOM      7  C   UNL     1      -4.054   1.007  24.534  0.00  0.00    +0.251 A 
ATOM      8  N   UNL     1      -4.069   0.262  24.888  0.00  0.00    -0.188 NA
ATOM      9  C   UNL     1      -3.869  -0.297  24.316  0.00  0.00    +0.223 A 
ATOM     10  N   UNL     1      -3.730   0.103  23.607  0.00  0.00    -0.054 NA
ATOM     11  O   UNL     1      -3.844   0.909  23.742  0.00  0.00    -0.336 OA
BRANCH   9  12
ATOM     12  C   UNL     1      -3.816  -1.112  24.431  0.00  0.00    +0.139 A 
ATOM     13  C   UNL     1      -4.184  -1.628  23.902  0.00  0.00    +0.121 A 
ATOM     14  N   UNL     1      -4.132  -2.443  24.018  0.00  0.00    -0.239 NA
ATOM     15  C   UNL     1      -3.712  -2.742  24.662  0.00  0.00    +0.120 A 
ATOM     16  C   UNL     1      -3.345  -2.227  25.191  0.00  0.00    +0.120 A 
ATOM     17  N   UNL     1      -3.397  -1.411  25.075  0.00  0.00    -0.237 NA
ENDBRANCH   9  12
ENDBRANCH   6   7
BRANCH   4  18
ATOM     18  N   UNL     1      -3.742   3.496  25.997  0.00  0.00    -0.078 NA
BRANCH  18  19
ATOM     19  S   UNL     1      -3.041   3.842  25.733  0.00  0.00    +0.077 S 
ATOM     20  O   UNL     1      -2.622   3.437  26.317  0.00  0.00    -0.152 OA
ATOM     21  O   UNL     1      -3.460   4.246  25.149  0.00  0.00    -0.152 OA
BRANCH  19  22
ATOM     22  C   UNL     1      -2.340   4.187  25.470  0.00  0.00    +0.124 A 
ATOM     23  C   UNL     1      -1.657   3.730  25.397  0.00  0.00    +0.020 A 
ATOM     24  C   UNL     1      -0.955   4.075  25.133  0.00  0.00    -0.003 A 
ATOM     25  C   UNL     1      -0.936   4.877  24.944  0.00  0.00    -0.022 A 
ATOM     26  C   UNL     1      -0.234   5.222  24.680  0.00  0.00    +0.031 C 
ATOM     27  C   UNL     1      -1.619   5.335  25.017  0.00  0.00    -0.003 A 
ATOM     28  C   UNL     1      -2.320   4.990  25.279  0.00  0.00    +0.020 A 
ENDBRANCH  19  22
ENDBRANCH  18  19
ENDBRANCH   4  18
TORSDOF 5
ENDMDL
MODEL 5
REMARK VINA RESULT:      -9.6      2.443      4.645
REMARK  Name = 
REMARK  5 active torsions:
REMARK  status: ('A' for Active; 'I' for Inactive)
REMARK    1  A    between atoms: C_4  and  N_18
REMARK    2  A    between atoms: C_6  and  C_7
REMARK    3  A    between atoms: C_9  and  C_12
REMARK    4  A    between atoms: N_18  and  S_19
REMARK    5  A    between atoms: S_19  and  C_22
REMARK                            x       y       z     vdW  Elec       q    Type
REMARK                         _______ _______ _______ _____ _____    ______ ____
ROOT
ATOM      1  C   UNL     1      -0.213   2.453  25.751  0.00  0.00    +0.090 C 
ATOM      2  N   UNL     1      -0.932   2.538  25.356  0.00  0.00    -0.264 NA
ATOM      3  C   UNL     1      -1.417   3.204  25.370  0.00  0.00    +0.092 C 
ATOM      4  C   UNL     1      -2.078   3.050  24.900  0.00  0.00    +0.115 C 
ATOM      5  C   UNL     1      -2.001   2.287  24.595  0.00  0.00    +0.046 C 
ATOM      6  C   UNL     1      -1.292   1.970  24.877  0.00  0.00    +0.139 C 
ENDROOT
BRANCH   6   7
ATOM      7  C   UNL     1      -0.997   1.219  24.709  0.00  0.00    +0.251 A 
ATOM      8  N   UNL     1      -1.348   0.502  24.916  0.00  0.00    -0.188 NA
ATOM      9  C   UNL     1      -0.866  -0.107  24.639  0.00  0.00    +0.223 A 
ATOM     10  N   UNL     1      -0.216   0.233  24.262  0.00  0.00    -0.054 NA
ATOM     11  O   UNL     1      -0.296   1.053  24.305  0.00  0.00    -0.336 OA
BRANCH   9  12
ATOM     12  C   UNL     1      -1.009  -0.916  24.726  0.00  0.00    +0.139 A 
ATOM     13  C   UNL     1      -0.589  -1.351  25.286  0.00  0.00    +0.121 A 
ATOM     14  N   UNL     1      -0.731  -2.159  25.373  0.00  0.00    -0.239 NA
ATOM     15  C   UNL     1      -1.294  -2.532  24.898  0.00  0.00    +0.120 A 
ATOM     16  C   UNL     1      -1.714  -2.097  24.337  0.00  0.00    +0.120 A 
ATOM     17  N   UNL     1      -1.572  -1.288  24.251  0.00  0.00    -0.237 NA
ENDBRANCH   9  12
ENDBRANCH   6   7
BRANCH   4  18
ATOM     18  N   UNL     1      -2.705   3.567  24.760  0.00  0.00    -0.078 NA
BRANCH  18  19
ATOM     19  S   UNL     1      -3.481   3.323  24.901  0.00  0.00    +0.077 S 
ATOM     20  O   UNL     1      -3.572   3.152  24.098  0.00  0.00    -0.152 OA
ATOM     21  O   UNL     1      -3.389   3.493  25.702  0.00  0.00    -0.152 OA
BRANCH  19  22
ATOM     22  C   UNL     1      -4.256   3.078  25.040  0.00  0.00    +0.124 A 
ATOM     23  C   UNL     1      -4.574   2.451  24.608  0.00  0.00    +0.020 A 
ATOM     24  C   UNL     1      -5.350   2.206  24.747  0.00  0.00    -0.003 A 
ATOM     25  C   UNL     1      -5.807   2.588  25.318  0.00  0.00    -0.022 A 
ATOM     26  C   UNL     1      -6.583   2.344  25.457  0.00  0.00    +0.031 C 
ATOM     27  C   UNL     1      -5.489   3.216  25.749  0.00  0.00    -0.003 A 
ATOM     28  C   UNL     1      -4.714   3.460  25.611  0.00  0.00    +0.020 A 
ENDBRANCH  19  22
ENDBRANCH  18  19
ENDBRANCH   4  18
TORSDOF 5
ENDMDL
MODEL 6
REMARK VINA RESULT:      -8.9     15.769     17.855
REMARK  Name = 
REMARK  5 active torsions:
REMARK  status: ('A' for Active; 'I' for Inactive)
REMARK    1  A    between atoms: C_4  and  N_18
REMARK    2  A    between atoms: C_6  and  C_7
REMARK    3  A    between atoms: C_9  and  C_12
REMARK    4  A    between atoms: N_18  and  S_19
REMARK    5  A    between atoms: S_19  and  C_22
REMARK                            x       y       z     vdW  Elec       q    Type
REMARK                         _______ _______ _______ _____ _____    ______ ____
ROOT
ATOM      1  C   UNL     1      11.479   6.594  20.551  0.00  0.00    +0.090 C 
ATOM      2  N   UNL     1      12.193   7.008  20.519  0.00  0.00    -0.264 NA
ATOM      3  C   UNL     1      12.864   6.853  20.973  0.00  0.00    +0.092 C 
ATOM      4  C   UNL     1      13.446   7.399  20.762  0.00  0.00    +0.115 C 
ATOM      5  C   UNL     1      13.134   7.891  20.178  0.00  0.00    +0.046 C 
ATOM      6  C   UNL     1      12.359   7.650  20.028  0.00  0.00    +0.139 C 
ENDROOT
BRANCH   6   7
ATOM      7  C   UNL     1      11.843   7.990  19.483  0.00  0.00    +0.251 A 
ATOM      8  N   UNL     1      11.944   8.007  18.664  0.00  0.00    -0.188 NA
ATOM      9  C   UNL     1      11.298   8.400  18.335  0.00  0.00    +0.223 A 
ATOM     10  N   UNL     1      10.797   8.627  18.951  0.00  0.00    -0.054 NA
ATOM     11  O   UNL     1      11.134   8.373  19.660  0.00  0.00    -0.336 OA
BRANCH   9  12
ATOM     12  C   UNL     1      11.174   8.543  17.532  0.00  0.00    +0.139 A 
ATOM     13  C   UNL     1      11.786   8.843  17.067  0.00  0.00    +0.121 A 
ATOM     14  N   UNL     1      11.662   8.985  16.264  0.00  0.00    -0.239 NA
ATOM     15  C   UNL     1      10.926   8.827  15.926  0.00  0.00    +0.120 A 
ATOM     16  C   UNL     1      10.314   8.527  16.390  0.00  0.00    +0.120 A 
ATOM     17  N   UNL     1      10.438   8.385  17.194  0.00  0.00    -0.237 NA
ENDBRANCH   9  12
ENDBRANCH   6   7
BRANCH   4  18
ATOM     18  N   UNL     1      14.206   7.444  21.080  0.00  0.00    -0.078 NA
BRANCH  18  19
ATOM     19  S   UNL     1      14.845   7.125  20.667  0.00  0.00    +0.077 S 
ATOM     20  O   UNL     1      15.012   7.870  20.353  0.00  0.00    -0.152 OA
ATOM     21  O   UNL     1      14.678   6.381  20.981  0.00  0.00    -0.152 OA
BRANCH  19  22
ATOM     22  C   UNL     1      15.484   6.808  20.254  0.00  0.00    +0.124 A 
ATOM     23  C   UNL     1      16.149   6.541  20.665  0.00  0.00    +0.020 A 
ATOM     24  C   UNL     1      16.789   6.223  20.252  0.00  0.00    -0.003 A 
ATOM     25  C   UNL     1      16.765   6.172  19.429  0.00  0.00    -0.022 A 
ATOM     26  C   UNL     1      17.405   5.855  19.016  0.00  0.00    +0.031 C 
ATOM     27  C   UNL     1      16.100   6.439  19.018  0.00  0.00    -0.003 A 
ATOM     28  C   UNL     1      15.461   6.756  19.430  0.00  0.00    +0.020 A 
ENDBRANCH  19  22
ENDBRANCH  18  19
ENDBRANCH   4  18
TORSDOF 5
ENDMDL
MODEL 7
REMARK VINA RESULT:      -8.6     15.760     17.900
REMARK  Name = 
REMARK  5 active torsions:
REMARK  status: ('A' for Active; 'I' for Inactive)
REMARK    1  A    between atoms: C_4  and  N_18
REMARK    2  A    between atoms: C_6  and  C_7
REMARK    3  A    between atoms: C_9  and  C_12
REMARK    4  A    between atoms: N_18  and  S_19
REMARK    5  A    between atoms: S_19  and  C_22
REMARK                            x       y       z     vdW  Elec       q    Type
REMARK                         _______ _______ _______ _____ _____    ______ ____
ROOT
ATOM      1  C   UNL     1      11.986   7.238  17.820  0.00  0.00    +0.090 C 
ATOM      2  N   UNL     1      12.636   7.604  18.172  0.00  0.00    -0.264 NA
ATOM      3  C   UNL     1      13.410   7.597  17.886  0.00  0.00    +0.092 C 
ATOM      4  C   UNL     1      13.879   8.030  18.409  0.00  0.00    +0.115 C 
ATOM      5  C   UNL     1      13.395   8.305  19.018  0.00  0.00    +0.046 C 
ATOM      6  C   UNL     1      12.626   8.042  18.872  0.00  0.00    +0.139 C 
ENDROOT
BRANCH   6   7
ATOM      7  C   UNL     1      11.965   8.189  19.342  0.00  0.00    +0.251 A 
ATOM      8  N   UNL     1      11.935   8.140  20.165  0.00  0.00    -0.188 NA
ATOM      9  C   UNL     1      11.169   8.333  20.403  0.00  0.00    +0.223 A 
ATOM     10  N   UNL     1      10.726   8.502  19.728  0.00  0.00    -0.054 NA
ATOM     11  O   UNL     1      11.218   8.413  19.072  0.00  0.00    -0.336 OA
BRANCH   9  12
ATOM     12  C   UNL     1      10.894   8.354  21.181  0.00  0.00    +0.139 A 
ATOM     13  C   UNL     1      10.667   7.655  21.557  0.00  0.00    +0.121 A 
ATOM     14  N   UNL     1      10.392   7.676  22.335  0.00  0.00    -0.239 NA
ATOM     15  C   UNL     1      10.344   8.395  22.736  0.00  0.00    +0.120 A 
ATOM     16  C   UNL     1      10.571   9.093  22.361  0.00  0.00    +0.120 A 
ATOM     17  N   UNL     1      10.846   9.072  21.583  0.00  0.00    -0.237 NA
ENDBRANCH   9  12
ENDBRANCH   6   7
BRANCH   4  18
ATOM     18  N   UNL     1      14.689   8.165  18.336  0.00  0.00    -0.078 NA
BRANCH  18  19
ATOM     19  S   UNL     1      15.216   7.811  18.863  0.00  0.00    +0.077 S 
ATOM     20  O   UNL     1      15.259   8.516  19.291  0.00  0.00    -0.152 OA
ATOM     21  O   UNL     1      15.172   7.108  18.436  0.00  0.00    -0.152 OA
BRANCH  19  22
ATOM     22  C   UNL     1      15.742   7.459  19.391  0.00  0.00    +0.124 A 
ATOM     23  C   UNL     1      16.022   7.884  20.041  0.00  0.00    +0.020 A 
ATOM     24  C   UNL     1      16.549   7.532  20.570  0.00  0.00    -0.003 A 
ATOM     25  C   UNL     1      16.796   6.755  20.449  0.00  0.00    -0.022 A 
ATOM     26  C   UNL     1      17.323   6.403  20.978  0.00  0.00    +0.031 C 
ATOM     27  C   UNL     1      16.517   6.329  19.799  0.00  0.00    -0.003 A 
ATOM     28  C   UNL     1      15.991   6.681  19.271  0.00  0.00    +0.020 A 
ENDBRANCH  19  22
ENDBRANCH  18  19
ENDBRANCH   4  18
TORSDOF 5
ENDMDL
MODEL 8
REMARK VINA RESULT:      -7.9     16.057     17.968
REMARK  Name = 
REMARK  5 active torsions:
REMARK  status: ('A' for Active; 'I' for Inactive)
REMARK    1  A    between atoms: C_4  and  N_18
REMARK    2  A    between atoms: C_6  and  C_7
REMARK    3  A    between atoms: C_9  and  C_12
REMARK    4  A    between atoms: N_18  and  S_19
REMARK    5  A    between atoms: S_19  and  C_22
REMARK                            x       y       z     vdW  Elec       q    Type
REMARK                         _______ _______ _______ _____ _____    ______ ____
ROOT
ATOM      1  C   UNL     1      12.482   6.119  20.822  0.00  0.00    +0.090 C 
ATOM      2  N   UNL     1      12.469   6.863  20.465  0.00  0.00    -0.264 NA
ATOM      3  C   UNL     1      11.798   7.264  20.203  0.00  0.00    +0.092 C 
ATOM      4  C   UNL     1      12.040   7.985  19.883  0.00  0.00    +0.115 C 
ATOM      5  C   UNL     1      12.861   8.030  19.948  0.00  0.00    +0.046 C 
ATOM      6  C   UNL     1      13.127   7.336  20.307  0.00  0.00    +0.139 C 
ENDROOT
BRANCH   6   7
ATOM      7  C   UNL     1      13.911   7.149  20.479  0.00  0.00    +0.251 A 
ATOM      8  N   UNL     1      14.473   6.872  19.942  0.00  0.00    -0.188 NA
ATOM      9  C   UNL     1      15.181   6.757  20.349  0.00  0.00    +0.223 A 
ATOM     10  N   UNL     1      15.057   6.964  21.139  0.00  0.00    -0.054 NA
ATOM     11  O   UNL     1      14.273   7.206  21.219  0.00  0.00    -0.336 OA
BRANCH   9  12
ATOM     12  C   UNL     1      15.889   6.484  20.024  0.00  0.00    +0.139 A 
ATOM     13  C   UNL     1      16.574   6.468  20.483  0.00  0.00    +0.121 A 
ATOM     14  N   UNL     1      17.281   6.195  20.158  0.00  0.00    -0.239 NA
ATOM     15  C   UNL     1      17.304   5.939  19.375  0.00  0.00    +0.120 A 
ATOM     16  C   UNL     1      16.619   5.955  18.915  0.00  0.00    +0.120 A 
ATOM     17  N   UNL     1      15.911   6.228  19.240  0.00  0.00    -0.237 NA
ENDBRANCH   9  12
ENDBRANCH   6   7
BRANCH   4  18
ATOM     18  N   UNL     1      11.547   8.560  19.556  0.00  0.00    -0.078 NA
BRANCH  18  19
ATOM     19  S   UNL     1      11.494   8.641  18.737  0.00  0.00    +0.077 S 
ATOM     20  O   UNL     1      12.188   9.087  18.736  0.00  0.00    -0.152 OA
ATOM     21  O   UNL     1      10.801   8.195  18.737  0.00  0.00    -0.152 OA
BRANCH  19  22
ATOM     22  C   UNL     1      11.442   8.722  17.918  0.00  0.00    +0.124 A 
ATOM     23  C   UNL     1      10.740   8.529  17.528  0.00  0.00    +0.020 A 
ATOM     24  C   UNL     1      10.688   8.610  16.708  0.00  0.00    -0.003 A 
ATOM     25  C   UNL     1      11.336   8.884  16.279  0.00  0.00    -0.022 A 
ATOM     26  C   UNL     1      11.283   8.966  15.459  0.00  0.00    +0.031 C 
ATOM     27  C   UNL     1      12.037   9.078  16.668  0.00  0.00    -0.003 A 
ATOM     28  C   UNL     1      12.090   8.997  17.487  0.00  0.00    +0.020 A 
ENDBRANCH  19  22
ENDBRANCH  18  19
ENDBRANCH   4  18
TORSDOF 5
ENDMDL
