MODEL 1
REMARK VINA RESULT:      -9.6      0.000      0.000
REMARK  Name = 
REMARK  8 active torsions:
REMARK  status: ('A' for Active; 'I' for Inactive)
REMARK    1  A    between atoms: C_2  and  C_3
REMARK    2  A    between atoms: C_8  and  C_9
REMARK    3  A    between atoms: C_9  and  C_10
REMARK    4  A    between atoms: N_12  and  C_14
REMARK    5  A    between atoms: C_14  and  C_15
REMARK    6  A    between atoms: C_15  and  C_16
REMARK    7  A    between atoms: N_20  and  C_21
REMARK    8  A    between atoms: C_23  and  C_27
REMARK                            x       y       z     vdW  Elec       q    Type
REMARK                         _______ _______ _______ _____ _____    ______ ____
ROOT
ATOM      3  C   UNL     1      -1.276   0.513  24.663  0.00  0.00    +0.020 C 
ATOM      4  C   UNL     1      -1.962   0.955  24.789  0.00  0.00    +0.095 C 
ATOM      5  N   UNL     1      -2.161   1.565  24.271  0.00  0.00    -0.263 N 
ATOM      6  C   UNL     1      -1.674   1.734  23.626  0.00  0.00    +0.095 C 
ATOM      7  C   UNL     1      -0.988   1.293  23.500  0.00  0.00    +0.022 C 
ATOM      8  C   UNL     1      -0.789   0.683  24.018  0.00  0.00    +0.012 C 
ATOM     18  C   UNL     1      -2.847   2.006  24.397  0.00  0.00    +0.327 C 
ATOM     19  O   UNL     1      -3.046   2.616  23.878  0.00  0.00    -0.250 OA
ATOM     20  N   UNL     1      -3.333   1.837  25.041  0.00  0.00    -0.162 NA
ENDROOT
BRANCH  20  21
ATOM     21  C   UNL     1      -4.019   2.277  25.167  0.00  0.00    +0.075 A 
ATOM     22  C   UNL     1      -4.759   1.925  25.077  0.00  0.00    +0.021 A 
ATOM     23  C   UNL     1      -5.445   2.366  25.203  0.00  0.00    +0.073 A 
ATOM     24  C   UNL     1      -5.390   3.160  25.421  0.00  0.00    +0.004 A 
ATOM     25  C   UNL     1      -4.649   3.512  25.512  0.00  0.00    +0.001 A 
ATOM     26  C   UNL     1      -3.964   3.071  25.385  0.00  0.00    +0.017 A 
BRANCH  23  27
ATOM     27  C   UNL     1      -6.185   2.013  25.113  0.00  0.00    +0.419 C 
ATOM     28  F   UNL     1      -6.925   1.660  25.022  0.00  0.00    -0.166 F 
ATOM     29  F   UNL     1      -6.217   1.871  25.925  0.00  0.00    -0.166 F 
ATOM     30  F   UNL     1      -6.153   2.155  24.300  0.00  0.00    -0.166 F 
ENDBRANCH  23  27
ENDBRANCH  20  21
BRANCH   3   2
ATOM      1  C   UNL     1      -1.669  -0.504  25.587  0.00  0.00    +0.000 C 
ATOM      2  C   UNL     1      -1.077  -0.097  25.181  0.00  0.00    +0.002 C 
ENDBRANCH   3   2
BRANCH   8   9
ATOM      9  C   UNL     1      -0.103   0.242  23.892  0.00  0.00    +0.085 C 
BRANCH   9  10
ATOM     10  C   UNL     1       0.597   0.622  23.680  0.00  0.00    +0.226 C 
ATOM     11  O   UNL     1       0.745   1.391  23.939  0.00  0.00    -0.275 OA
ATOM     12  N   UNL     1       1.151   0.231  23.208  0.00  0.00    -0.277 N 
ATOM     13  C   UNL     1       1.003  -0.538  22.949  0.00  0.00    +0.115 C 
BRANCH  12  14
ATOM     14  C   UNL     1       1.851   0.612  22.995  0.00  0.00    +0.110 C 
BRANCH  14  15
ATOM     15  C   UNL     1       2.470   0.179  22.661  0.00  0.00    +0.127 C 
BRANCH  15  16
ATOM     16  C   UNL     1       3.219   0.517  22.592  0.00  0.00    +0.075 C 
ATOM     17  N   UNL     1       3.968   0.857  22.523  0.00  0.00    -0.196 NA
ENDBRANCH  15  16
ENDBRANCH  14  15
ENDBRANCH  12  14
ENDBRANCH   9  10
ENDBRANCH   8   9
TORSDOF 8
ENDMDL
MODEL 2
REMARK VINA RESULT:      -9.4      3.608      5.081
REMARK  Name = 
REMARK  8 active torsions:
REMARK  status: ('A' for Active; 'I' for Inactive)
REMARK    1  A    between atoms: C_2  and  C_3
REMARK    2  A    between atoms: C_8  and  C_9
REMARK    3  A    between atoms: C_9  and  C_10
REMARK    4  A    between atoms: N_12  and  C_14
REMARK    5  A    between atoms: C_14  and  C_15
REMARK    6  A    between atoms: C_15  and  C_16
REMARK    7  A    between atoms: N_20  and  C_21
REMARK    8  A    between atoms: C_23  and  C_27
REMARK                            x       y       z     vdW  Elec       q    Type
REMARK                         _______ _______ _______ _____ _____    ______ ____
ROOT
ATOM      3  C   UNL     1      -4.508   1.871  25.076  0.00  0.00    +0.020 C 
ATOM      4  C   UNL     1      -4.413   1.073  24.889  0.00  0.00    +0.095 C 
ATOM      5  N   UNL     1      -3.750   0.824  24.466  0.00  0.00    -0.263 N 
ATOM      6  C   UNL     1      -3.181   1.373  24.230  0.00  0.00    +0.095 C 
ATOM      7  C   UNL     1      -3.275   2.172  24.416  0.00  0.00    +0.022 C 
ATOM      8  C   UNL     1      -3.938   2.421  24.839  0.00  0.00    +0.012 C 
ATOM     18  C   UNL     1      -3.656   0.026  24.280  0.00  0.00    +0.327 C 
ATOM     19  O   UNL     1      -2.993  -0.223  23.857  0.00  0.00    -0.250 OA
ATOM     20  N   UNL     1      -4.224  -0.523  24.517  0.00  0.00    -0.162 NA
ENDROOT
BRANCH  20  21
ATOM     21  C   UNL     1      -4.130  -1.321  24.330  0.00  0.00    +0.075 A 
ATOM     22  C   UNL     1      -3.622  -1.792  24.777  0.00  0.00    +0.021 A 
ATOM     23  C   UNL     1      -3.528  -2.591  24.591  0.00  0.00    +0.073 A 
ATOM     24  C   UNL     1      -3.943  -2.917  23.957  0.00  0.00    +0.004 A 
ATOM     25  C   UNL     1      -4.451  -2.445  23.511  0.00  0.00    +0.001 A 
ATOM     26  C   UNL     1      -4.545  -1.648  23.697  0.00  0.00    +0.017 A 
BRANCH  23  27
ATOM     27  C   UNL     1      -3.020  -3.062  25.038  0.00  0.00    +0.419 C 
ATOM     28  F   UNL     1      -2.510  -3.534  25.485  0.00  0.00    -0.166 F 
ATOM     29  F   UNL     1      -3.574  -3.083  25.648  0.00  0.00    -0.166 F 
ATOM     30  F   UNL     1      -2.464  -3.042  24.428  0.00  0.00    -0.166 F 
ENDBRANCH  23  27
ENDBRANCH  20  21
BRANCH   3   2
ATOM      1  C   UNL     1      -5.905   1.769  25.361  0.00  0.00    +0.000 C 
ATOM      2  C   UNL     1      -5.171   2.120  25.499  0.00  0.00    +0.002 C 
ENDBRANCH   3   2
BRANCH   8   9
ATOM      9  C   UNL     1      -4.034   3.219  25.026  0.00  0.00    +0.085 C 
BRANCH   9  10
ATOM     10  C   UNL     1      -3.492   3.774  24.745  0.00  0.00    +0.226 C 
ATOM     11  O   UNL     1      -3.385   3.872  23.933  0.00  0.00    -0.275 OA
ATOM     12  N   UNL     1      -3.058   4.231  25.278  0.00  0.00    -0.277 N 
ATOM     13  C   UNL     1      -3.165   4.133  26.090  0.00  0.00    +0.115 C 
BRANCH  12  14
ATOM     14  C   UNL     1      -2.516   4.787  24.997  0.00  0.00    +0.110 C 
BRANCH  14  15
ATOM     15  C   UNL     1      -1.830   4.947  25.428  0.00  0.00    +0.127 C 
BRANCH  15  16
ATOM     16  C   UNL     1      -1.163   5.245  25.044  0.00  0.00    +0.075 C 
ATOM     17  N   UNL     1      -0.496   5.542  24.659  0.00  0.00    -0.196 NA
ENDBRANCH  15  16
ENDBRANCH  14  15
ENDBRANCH  12  14
ENDBRANCH   9  10
ENDBRANCH   8   9
TORSDOF 8
ENDMDL
MODEL 3
REMARK VINA RESULT:      -8.0      2.782      3.307
REMARK  Name = 
REMARK  8 active torsions:
REMARK  status: ('A' for Active; 'I' for Inactive)
REMARK    1  A    between atoms: C_2  and  C_3
REMARK    2  A    between atoms: C_8  and  C_9
REMARK    3  A    between atoms: C_9  and  C_10
REMARK    4  A    between atoms: N_12  and  C_14
REMARK    5  A    between atoms: C_14  and  C_15
REMARK    6  A    between atoms: C_15  and  C_16
REMARK    7  A    between atoms: N_20  and  C_21
REMARK    8  A    between atoms: C_23  and  C_27
REMARK                            x       y       z     vdW  Elec       q    Type
REMARK                         _______ _______ _______ _____ _____    ______ ____
ROOT
ATOM      3  C   UNL     1       0.122   0.775  23.732  0.00  0.00    +0.020 C 
ATOM      4  C   UNL     1      -0.536   0.365  24.015  0.00  0.00    +0.095 C 
ATOM      5  N   UNL     1      -0.523  -0.459  24.054  0.00  0.00    -0.263 N 
ATOM      6  C   UNL     1       0.148  -0.873  23.811  0.00  0.00    +0.095 C 
ATOM      7  C   UNL     1       0.806  -0.464  23.528  0.00  0.00    +0.022 C 
ATOM      8  C   UNL     1       0.794   0.360  23.489  0.00  0.00    +0.012 C 
ATOM     18  C   UNL     1      -1.181  -0.868  24.337  0.00  0.00    +0.327 C 
ATOM     19  O   UNL     1      -1.168  -1.692  24.377  0.00  0.00    -0.250 OA
ATOM     20  N   UNL     1      -1.851  -0.455  24.580  0.00  0.00    -0.162 NA
ENDROOT
BRANCH  20  21
ATOM     21  C   UNL     1      -2.509  -0.864  24.863  0.00  0.00    +0.075 A 
ATOM     22  C   UNL     1      -3.054  -1.186  24.334  0.00  0.00    +0.021 A 
ATOM     23  C   UNL     1      -3.712  -1.596  24.617  0.00  0.00    +0.073 A 
ATOM     24  C   UNL     1      -3.826  -1.682  25.430  0.00  0.00    +0.004 A 
ATOM     25  C   UNL     1      -3.280  -1.359  25.958  0.00  0.00    +0.001 A 
ATOM     26  C   UNL     1      -2.623  -0.950  25.675  0.00  0.00    +0.017 A 
BRANCH  23  27
ATOM     27  C   UNL     1      -4.256  -1.918  24.088  0.00  0.00    +0.419 C 
ATOM     28  F   UNL     1      -4.801  -2.241  23.559  0.00  0.00    -0.166 F 
ATOM     29  F   UNL     1      -4.528  -1.161  23.905  0.00  0.00    -0.166 F 
ATOM     30  F   UNL     1      -3.986  -2.676  24.271  0.00  0.00    -0.166 F 
ENDBRANCH  23  27
ENDBRANCH  20  21
BRANCH   3   2
ATOM      1  C   UNL     1      -0.435   2.026  24.143  0.00  0.00    +0.000 C 
ATOM      2  C   UNL     1       0.109   1.599  23.692  0.00  0.00    +0.002 C 
ENDBRANCH   3   2
BRANCH   8   9
ATOM      9  C   UNL     1       1.451   0.771  23.206  0.00  0.00    +0.085 C 
BRANCH   9  10
ATOM     10  C   UNL     1       2.144   0.362  23.023  0.00  0.00    +0.226 C 
ATOM     11  O   UNL     1       2.121  -0.453  22.896  0.00  0.00    -0.275 OA
ATOM     12  N   UNL     1       2.860   0.768  22.968  0.00  0.00    -0.277 N 
ATOM     13  C   UNL     1       2.883   1.583  23.095  0.00  0.00    +0.115 C 
BRANCH  12  14
ATOM     14  C   UNL     1       3.553   0.359  22.785  0.00  0.00    +0.110 C 
BRANCH  14  15
ATOM     15  C   UNL     1       4.285   0.729  22.875  0.00  0.00    +0.127 C 
BRANCH  15  16
ATOM     16  C   UNL     1       4.950   0.283  23.073  0.00  0.00    +0.075 C 
ATOM     17  N   UNL     1       5.615  -0.164  23.269  0.00  0.00    -0.196 NA
ENDBRANCH  15  16
ENDBRANCH  14  15
ENDBRANCH  12  14
ENDBRANCH   9  10
ENDBRANCH   8   9
TORSDOF 8
ENDMDL
MODEL 4
REMARK VINA RESULT:      -7.7      2.871      4.393
REMARK  Name = 
REMARK  8 active torsions:
REMARK  status: ('A' for Active; 'I' for Inactive)
REMARK    1  A    between atoms: C_2  and  C_3
REMARK    2  A    between atoms: C_8  and  C_9
REMARK    3  A    between atoms: C_9  and  C_10
REMARK    4  A    between atoms: N_12  and  C_14
REMARK    5  A    between atoms: C_14  and  C_15
REMARK    6  A    between atoms: C_15  and  C_16
REMARK    7  A    between atoms: N_20  and  C_21
REMARK    8  A    between atoms: C_23  and  C_27
REMARK                            x       y       z     vdW  Elec       q    Type
REMARK                         _______ _______ _______ _____ _____    ______ ____
ROOT
ATOM      3  C   UNL     1      -0.601   0.817  24.443  0.00  0.00    +0.020 C 
ATOM      4  C   UNL     1      -1.116   0.176  24.518  0.00  0.00    +0.095 C 
ATOM      5  N   UNL     1      -1.772   0.230  25.014  0.00  0.00    -0.263 N 
ATOM      6  C   UNL     1      -1.913   0.925  25.437  0.00  0.00    +0.095 C 
ATOM      7  C   UNL     1      -1.399   1.566  25.363  0.00  0.00    +0.022 C 
ATOM      8  C   UNL     1      -0.743   1.512  24.867  0.00  0.00    +0.012 C 
ATOM     18  C   UNL     1      -2.287  -0.410  25.088  0.00  0.00    +0.327 C 
ATOM     19  O   UNL     1      -2.943  -0.356  25.585  0.00  0.00    -0.250 OA
ATOM     20  N   UNL     1      -2.145  -1.103  24.666  0.00  0.00    -0.162 NA
ENDROOT
BRANCH  20  21
ATOM     21  C   UNL     1      -2.660  -1.744  24.739  0.00  0.00    +0.075 A 
ATOM     22  C   UNL     1      -3.262  -1.856  24.188  0.00  0.00    +0.021 A 
ATOM     23  C   UNL     1      -3.777  -2.497  24.261  0.00  0.00    +0.073 A 
ATOM     24  C   UNL     1      -3.688  -3.026  24.888  0.00  0.00    +0.004 A 
ATOM     25  C   UNL     1      -3.085  -2.914  25.440  0.00  0.00    +0.001 A 
ATOM     26  C   UNL     1      -2.571  -2.274  25.366  0.00  0.00    +0.017 A 
BRANCH  23  27
ATOM     27  C   UNL     1      -4.379  -2.608  23.710  0.00  0.00    +0.419 C 
ATOM     28  F   UNL     1      -4.983  -2.720  23.157  0.00  0.00    -0.166 F 
ATOM     29  F   UNL     1      -4.018  -3.305  23.455  0.00  0.00    -0.166 F 
ATOM     30  F   UNL     1      -4.741  -1.912  23.964  0.00  0.00    -0.166 F 
ENDBRANCH  23  27
ENDBRANCH  20  21
BRANCH   3   2
ATOM      1  C   UNL     1       0.238   0.047  23.579  0.00  0.00    +0.000 C 
ATOM      2  C   UNL     1       0.056   0.764  23.946  0.00  0.00    +0.002 C 
ENDBRANCH   3   2
BRANCH   8   9
ATOM      9  C   UNL     1      -0.227   2.152  24.792  0.00  0.00    +0.085 C 
BRANCH   9  10
ATOM     10  C   UNL     1      -0.392   2.860  25.183  0.00  0.00    +0.226 C 
ATOM     11  O   UNL     1      -0.557   2.857  25.991  0.00  0.00    -0.275 OA
ATOM     12  N   UNL     1      -0.390   3.571  24.764  0.00  0.00    -0.277 N 
ATOM     13  C   UNL     1      -0.224   3.574  23.956  0.00  0.00    +0.115 C 
BRANCH  12  14
ATOM     14  C   UNL     1      -0.554   4.279  25.155  0.00  0.00    +0.110 C 
BRANCH  14  15
ATOM     15  C   UNL     1      -0.764   4.950  24.721  0.00  0.00    +0.127 C 
BRANCH  15  16
ATOM     16  C   UNL     1      -1.353   5.454  25.003  0.00  0.00    +0.075 C 
ATOM     17  N   UNL     1      -1.943   5.958  25.285  0.00  0.00    -0.196 NA
ENDBRANCH  15  16
ENDBRANCH  14  15
ENDBRANCH  12  14
ENDBRANCH   9  10
ENDBRANCH   8   9
TORSDOF 8
ENDMDL
MODEL 5
REMARK VINA RESULT:      -7.2      4.186      7.102
REMARK  Name = 
REMARK  8 active torsions:
REMARK  status: ('A' for Active; 'I' for Inactive)
REMARK    1  A    between atoms: C_2  and  C_3
REMARK    2  A    between atoms: C_8  and  C_9
REMARK    3  A    between atoms: C_9  and  C_10
REMARK    4  A    between atoms: N_12  and  C_14
REMARK    5  A    between atoms: C_14  and  C_15
REMARK    6  A    between atoms: C_15  and  C_16
REMARK    7  A    between atoms: N_20  and  C_21
REMARK    8  A    between atoms: C_23  and  C_27
REMARK                            x       y       z     vdW  Elec       q    Type
REMARK                         _______ _______ _______ _____ _____    ______ ____
ROOT
ATOM      3  C   UNL     1       0.131   1.155  24.150  0.00  0.00    +0.020 C 
ATOM      4  C   UNL     1       0.902   1.041  23.876  0.00  0.00    +0.095 C 
ATOM      5  N   UNL     1       1.078   0.392  23.398  0.00  0.00    -0.263 N 
ATOM      6  C   UNL     1       0.484  -0.143  23.194  0.00  0.00    +0.095 C 
ATOM      7  C   UNL     1      -0.286  -0.030  23.468  0.00  0.00    +0.022 C 
ATOM      8  C   UNL     1      -0.463   0.619  23.946  0.00  0.00    +0.012 C 
ATOM     18  C   UNL     1       1.848   0.279  23.125  0.00  0.00    +0.327 C 
ATOM     19  O   UNL     1       2.024  -0.370  22.647  0.00  0.00    -0.250 OA
ATOM     20  N   UNL     1       2.441   0.813  23.329  0.00  0.00    -0.162 NA
ENDROOT
BRANCH  20  21
ATOM     21  C   UNL     1       3.211   0.700  23.056  0.00  0.00    +0.075 A 
ATOM     22  C   UNL     1       3.798   0.437  23.572  0.00  0.00    +0.021 A 
ATOM     23  C   UNL     1       4.569   0.324  23.299  0.00  0.00    +0.073 A 
ATOM     24  C   UNL     1       4.751   0.475  22.508  0.00  0.00    +0.004 A 
ATOM     25  C   UNL     1       4.164   0.738  21.992  0.00  0.00    +0.001 A 
ATOM     26  C   UNL     1       3.394   0.850  22.266  0.00  0.00    +0.017 A 
BRANCH  23  27
ATOM     27  C   UNL     1       5.155   0.062  23.814  0.00  0.00    +0.419 C 
ATOM     28  F   UNL     1       5.743  -0.202  24.331  0.00  0.00    -0.166 F 
ATOM     29  F   UNL     1       5.355   0.843  23.987  0.00  0.00    -0.166 F 
ATOM     30  F   UNL     1       4.957  -0.721  23.643  0.00  0.00    -0.166 F 
ENDBRANCH  23  27
ENDBRANCH  20  21
BRANCH   3   2
ATOM      1  C   UNL     1       0.313   2.533  24.483  0.00  0.00    +0.000 C 
ATOM      2  C   UNL     1      -0.045   1.804  24.628  0.00  0.00    +0.002 C 
ENDBRANCH   3   2
BRANCH   8   9
ATOM      9  C   UNL     1      -1.232   0.733  24.219  0.00  0.00    +0.085 C 
BRANCH   9  10
ATOM     10  C   UNL     1      -1.708   0.082  24.394  0.00  0.00    +0.226 C 
ATOM     11  O   UNL     1      -1.365  -0.620  24.659  0.00  0.00    -0.275 OA
ATOM     12  N   UNL     1      -2.527   0.133  24.302  0.00  0.00    -0.277 N 
ATOM     13  C   UNL     1      -2.869   0.836  24.037  0.00  0.00    +0.115 C 
BRANCH  12  14
ATOM     14  C   UNL     1      -3.002  -0.518  24.477  0.00  0.00    +0.110 C 
BRANCH  14  15
ATOM     15  C   UNL     1      -3.773  -0.555  24.184  0.00  0.00    +0.127 C 
BRANCH  15  16
ATOM     16  C   UNL     1      -4.127  -1.288  24.048  0.00  0.00    +0.075 C 
ATOM     17  N   UNL     1      -4.480  -2.022  23.913  0.00  0.00    -0.196 NA
ENDBRANCH  15  16
ENDBRANCH  14  15
ENDBRANCH  12  14
ENDBRANCH   9  10
ENDBRANCH   8   9
TORSDOF 8
ENDMDL
MODEL 6
REMARK VINA RESULT:      -7.2      3.435      6.638
REMARK  Name = 
REMARK  8 active torsions:
REMARK  status: ('A' for Active; 'I' for Inactive)
REMARK    1  A    between atoms: C_2  and  C_3
REMARK    2  A    between atoms: C_8  and  C_9
REMARK    3  A    between atoms: C_9  and  C_10
REMARK    4  A    between atoms: N_12  and  C_14
REMARK    5  A    between atoms: C_14  and  C_15
REMARK    6  A    between atoms: C_15  and  C_16
REMARK    7  A    between atoms: N_20  and  C_21
REMARK    8  A    between atoms: C_23  and  C_27
REMARK                            x       y       z     vdW  Elec       q    Type
REMARK                         _______ _______ _______ _____ _____    ______ ____
ROOT
ATOM      3  C   UNL     1      -1.029  -0.289  24.699  0.00  0.00    +0.020 C 
ATOM      4  C   UNL     1      -0.347  -0.222  24.239  0.00  0.00    +0.095 C 
ATOM      5  N   UNL     1      -0.287   0.378  23.675  0.00  0.00    -0.263 N 
ATOM      6  C   UNL     1      -0.908   0.910  23.572  0.00  0.00    +0.095 C 
ATOM      7  C   UNL     1      -1.590   0.844  24.032  0.00  0.00    +0.022 C 
ATOM      8  C   UNL     1      -1.651   0.245  24.595  0.00  0.00    +0.012 C 
ATOM     18  C   UNL     1       0.395   0.444  23.216  0.00  0.00    +0.327 C 
ATOM     19  O   UNL     1       0.455   1.044  22.652  0.00  0.00    -0.250 OA
ATOM     20  N   UNL     1       1.015  -0.089  23.319  0.00  0.00    -0.162 NA
ENDROOT
BRANCH  20  21
ATOM     21  C   UNL     1       1.697  -0.023  22.859  0.00  0.00    +0.075 A 
ATOM     22  C   UNL     1       2.385   0.297  23.184  0.00  0.00    +0.021 A 
ATOM     23  C   UNL     1       3.067   0.363  22.724  0.00  0.00    +0.073 A 
ATOM     24  C   UNL     1       3.061   0.109  21.939  0.00  0.00    +0.004 A 
ATOM     25  C   UNL     1       2.373  -0.211  21.615  0.00  0.00    +0.001 A 
ATOM     26  C   UNL     1       1.691  -0.276  22.074  0.00  0.00    +0.017 A 
BRANCH  23  27
ATOM     27  C   UNL     1       3.754   0.682  23.048  0.00  0.00    +0.419 C 
ATOM     28  F   UNL     1       4.442   1.002  23.373  0.00  0.00    -0.166 F 
ATOM     29  F   UNL     1       4.032  -0.077  23.210  0.00  0.00    -0.166 F 
ATOM     30  F   UNL     1       3.478   1.443  22.887  0.00  0.00    -0.166 F 
ENDBRANCH  23  27
ENDBRANCH  20  21
BRANCH   3   2
ATOM      1  C   UNL     1      -0.576  -1.534  25.235  0.00  0.00    +0.000 C 
ATOM      2  C   UNL     1      -1.090  -0.888  25.262  0.00  0.00    +0.002 C 
ENDBRANCH   3   2
BRANCH   8   9
ATOM      9  C   UNL     1      -2.332   0.178  25.055  0.00  0.00    +0.085 C 
BRANCH   9  10
ATOM     10  C   UNL     1      -2.874   0.799  25.082  0.00  0.00    +0.226 C 
ATOM     11  O   UNL     1      -2.607   1.580  25.085  0.00  0.00    -0.275 OA
ATOM     12  N   UNL     1      -3.684   0.640  25.104  0.00  0.00    -0.277 N 
ATOM     13  C   UNL     1      -3.951  -0.141  25.101  0.00  0.00    +0.115 C 
BRANCH  12  14
ATOM     14  C   UNL     1      -4.225   1.261  25.131  0.00  0.00    +0.110 C 
BRANCH  14  15
ATOM     15  C   UNL     1      -5.035   1.102  25.139  0.00  0.00    +0.127 C 
BRANCH  15  16
ATOM     16  C   UNL     1      -5.576   1.721  25.206  0.00  0.00    +0.075 C 
ATOM     17  N   UNL     1      -6.117   2.341  25.274  0.00  0.00    -0.196 NA
ENDBRANCH  15  16
ENDBRANCH  14  15
ENDBRANCH  12  14
ENDBRANCH   9  10
ENDBRANCH   8   9
TORSDOF 8
ENDMDL
MODEL 7
REMARK VINA RESULT:      -7.1      3.208      4.702
REMARK  Name = 
REMARK  8 active torsions:
REMARK  status: ('A' for Active; 'I' for Inactive)
REMARK    1  A    between atoms: C_2  and  C_3
REMARK    2  A    between atoms: C_8  and  C_9
REMARK    3  A    between atoms: C_9  and  C_10
REMARK    4  A    between atoms: N_12  and  C_14
REMARK    5  A    between atoms: C_14  and  C_15
REMARK    6  A    between atoms: C_15  and  C_16
REMARK    7  A    between atoms: N_20  and  C_21
REMARK    8  A    between atoms: C_23  and  C_27
REMARK                            x       y       z     vdW  Elec       q    Type
REMARK                         _______ _______ _______ _____ _____    ______ ____
ROOT
ATOM      3  C   UNL     1      -3.834   1.109  24.802  0.00  0.00    +0.020 C 
ATOM      4  C   UNL     1      -3.296   1.735  24.802  0.00  0.00    +0.095 C 
ATOM      5  N   UNL     1      -2.497   1.592  24.953  0.00  0.00    -0.263 N 
ATOM      6  C   UNL     1      -2.237   0.823  25.102  0.00  0.00    +0.095 C 
ATOM      7  C   UNL     1      -2.775   0.197  25.101  0.00  0.00    +0.022 C 
ATOM      8  C   UNL     1      -3.573   0.340  24.951  0.00  0.00    +0.012 C 
ATOM     18  C   UNL     1      -1.960   2.217  24.953  0.00  0.00    +0.327 C 
ATOM     19  O   UNL     1      -1.161   2.074  25.104  0.00  0.00    -0.250 OA
ATOM     20  N   UNL     1      -2.220   2.985  24.804  0.00  0.00    -0.162 NA
ENDROOT
BRANCH  20  21
ATOM     21  C   UNL     1      -1.682   3.611  24.805  0.00  0.00    +0.075 A 
ATOM     22  C   UNL     1      -1.930   4.368  25.016  0.00  0.00    +0.021 A 
ATOM     23  C   UNL     1      -1.392   4.994  25.017  0.00  0.00    +0.073 A 
ATOM     24  C   UNL     1      -0.606   4.862  24.806  0.00  0.00    +0.004 A 
ATOM     25  C   UNL     1      -0.358   4.104  24.594  0.00  0.00    +0.001 A 
ATOM     26  C   UNL     1      -0.896   3.479  24.594  0.00  0.00    +0.017 A 
BRANCH  23  27
ATOM     27  C   UNL     1      -1.640   5.751  25.228  0.00  0.00    +0.419 C 
ATOM     28  F   UNL     1      -1.889   6.510  25.440  0.00  0.00    -0.166 F 
ATOM     29  F   UNL     1      -2.110   5.432  25.827  0.00  0.00    -0.166 F 
ATOM     30  F   UNL     1      -1.171   6.073  24.630  0.00  0.00    -0.166 F 
ENDBRANCH  23  27
ENDBRANCH  20  21
BRANCH   3   2
ATOM      1  C   UNL     1      -4.943   2.011  24.754  0.00  0.00    +0.000 C 
ATOM      2  C   UNL     1      -4.633   1.252  24.651  0.00  0.00    +0.002 C 
ENDBRANCH   3   2
BRANCH   8   9
ATOM      9  C   UNL     1      -4.112  -0.285  24.950  0.00  0.00    +0.085 C 
BRANCH   9  10
ATOM     10  C   UNL     1      -3.863  -1.042  25.160  0.00  0.00    +0.226 C 
ATOM     11  O   UNL     1      -3.489  -1.168  25.885  0.00  0.00    -0.275 OA
ATOM     12  N   UNL     1      -3.988  -1.675  24.645  0.00  0.00    -0.277 N 
ATOM     13  C   UNL     1      -4.363  -1.549  23.921  0.00  0.00    +0.115 C 
BRANCH  12  14
ATOM     14  C   UNL     1      -3.740  -2.433  24.855  0.00  0.00    +0.110 C 
BRANCH  14  15
ATOM     15  C   UNL     1      -3.582  -2.992  24.269  0.00  0.00    +0.127 C 
BRANCH  15  16
ATOM     16  C   UNL     1      -2.818  -3.290  24.179  0.00  0.00    +0.075 C 
ATOM     17  N   UNL     1      -2.053  -3.588  24.090  0.00  0.00    -0.196 NA
ENDBRANCH  15  16
ENDBRANCH  14  15
ENDBRANCH  12  14
ENDBRANCH   9  10
ENDBRANCH   8   9
TORSDOF 8
ENDMDL
