MODEL 1
REMARK VINA RESULT:     -10.7      0.000      0.000
REMARK  Name = 
REMARK  6 active torsions:
REMARK  status: ('A' for Active; 'I' for Inactive)
REMARK    1  A    between atoms: C_2  and  O_5
REMARK    2  A    between atoms: O_5  and  C_6
REMARK    3  A    between atoms: C_9  and  C_10
REMARK    4  A    between atoms: C_10  and  N_11
REMARK    5  A    between atoms: C_16  and  O_18
REMARK    6  A    between atoms: O_18  and  C_19
REMARK                            x       y       z     vdW  Elec       q    Type
REMARK                         _______ _______ _______ _____ _____    ______ ____
ROOT
ATOM     11  N   UNL     1      -3.446   1.804  24.378  0.00  0.00    -0.264 NA
ATOM     12  C   UNL     1      -4.233   1.986  24.208  0.00  0.00    +0.105 C 
ATOM     13  C   UNL     1      -4.691   2.608  24.497  0.00  0.00    +0.160 C 
ATOM     14  O   UNL     1      -4.476   3.201  25.029  0.00  0.00    -0.348 OA
ATOM     15  C   UNL     1      -3.750   3.318  25.402  0.00  0.00    +0.187 C 
ATOM     16  C   UNL     1      -3.059   2.872  25.336  0.00  0.00    +0.213 C 
ATOM     17  C   UNL     1      -2.925   2.198  24.880  0.00  0.00    +0.119 C 
ENDROOT
BRANCH  11  10
ATOM     10  C   UNL     1      -3.142   1.139  23.996  0.00  0.00    +0.099 C 
BRANCH  10   9
ATOM      6  C   UNL     1      -3.652  -1.126  24.854  0.00  0.00    +0.147 A 
ATOM      7  C   UNL     1      -4.129  -0.787  24.273  0.00  0.00    +0.037 A 
ATOM      8  C   UNL     1      -3.960  -0.033  23.987  0.00  0.00    +0.000 A 
ATOM      9  C   UNL     1      -3.312   0.384  24.282  0.00  0.00    -0.006 A 
ATOM     25  C   UNL     1      -2.834   0.046  24.864  0.00  0.00    +0.000 A 
ATOM     26  C   UNL     1      -3.003  -0.708  25.149  0.00  0.00    +0.037 A 
BRANCH   6   5
ATOM      5  O   UNL     1      -3.822  -1.881  25.140  0.00  0.00    -0.404 OA
BRANCH   5   2
ATOM      1  F   UNL     1      -3.327  -3.212  24.301  0.00  0.00    -0.133 F 
ATOM      2  C   UNL     1      -3.574  -2.547  24.720  0.00  0.00    +0.575 C 
ATOM      3  F   UNL     1      -2.872  -2.558  25.153  0.00  0.00    -0.133 F 
ATOM      4  F   UNL     1      -4.277  -2.535  24.288  0.00  0.00    -0.133 F 
ENDBRANCH   5   2
ENDBRANCH   6   5
ENDBRANCH  10   9
ENDBRANCH  11  10
BRANCH  16  18
ATOM     18  O   UNL     1      -2.419   3.135  25.786  0.00  0.00    -0.459 OA
BRANCH  18  19
ATOM     19  C   UNL     1      -1.920   3.720  25.488  0.00  0.00    +0.245 A 
ATOM     20  C   UNL     1      -2.127   4.516  25.565  0.00  0.00    +0.156 A 
ATOM     21  N   UNL     1      -1.627   5.102  25.267  0.00  0.00    -0.236 NA
ATOM     22  C   UNL     1      -0.922   4.892  24.893  0.00  0.00    +0.120 A 
ATOM     23  C   UNL     1      -0.716   4.097  24.817  0.00  0.00    +0.123 A 
ATOM     24  N   UNL     1      -1.215   3.512  25.115  0.00  0.00    -0.207 NA
ENDBRANCH  18  19
ENDBRANCH  16  18
TORSDOF 6
ENDMDL
MODEL 2
REMARK VINA RESULT:     -10.4      1.729      2.521
REMARK  Name = 
REMARK  6 active torsions:
REMARK  status: ('A' for Active; 'I' for Inactive)
REMARK    1  A    between atoms: C_2  and  O_5
REMARK    2  A    between atoms: O_5  and  C_6
REMARK    3  A    between atoms: C_9  and  C_10
REMARK    4  A    between atoms: C_10  and  N_11
REMARK    5  A    between atoms: C_16  and  O_18
REMARK    6  A    between atoms: O_18  and  C_19
REMARK                            x       y       z     vdW  Elec       q    Type
REMARK                         _______ _______ _______ _____ _____    ______ ____
ROOT
ATOM     11  N   UNL     1      -0.832   0.027  25.231  0.00  0.00    -0.264 NA
ATOM     12  C   UNL     1      -0.549  -0.158  24.478  0.00  0.00    +0.105 C 
ATOM     13  C   UNL     1      -0.214   0.344  23.917  0.00  0.00    +0.160 C 
ATOM     14  O   UNL     1      -0.079   1.156  23.968  0.00  0.00    -0.348 OA
ATOM     15  C   UNL     1      -0.246   1.666  24.594  0.00  0.00    +0.187 C 
ATOM     16  C   UNL     1      -0.589   1.490  25.324  0.00  0.00    +0.213 C 
ATOM     17  C   UNL     1      -0.850   0.761  25.606  0.00  0.00    +0.119 C 
ENDROOT
BRANCH  11  10
ATOM     10  C   UNL     1      -1.138  -0.605  25.663  0.00  0.00    +0.099 C 
BRANCH  10   9
ATOM      6  C   UNL     1      -3.282  -1.644  24.993  0.00  0.00    +0.147 A 
ATOM      7  C   UNL     1      -2.568  -1.959  24.725  0.00  0.00    +0.037 A 
ATOM      8  C   UNL     1      -1.854  -1.613  24.948  0.00  0.00    +0.000 A 
ATOM      9  C   UNL     1      -1.852  -0.952  25.440  0.00  0.00    -0.006 A 
ATOM     25  C   UNL     1      -2.566  -0.636  25.709  0.00  0.00    +0.000 A 
ATOM     26  C   UNL     1      -3.280  -0.982  25.486  0.00  0.00    +0.037 A 
BRANCH   6   5
ATOM      5  O   UNL     1      -3.996  -1.991  24.770  0.00  0.00    -0.404 OA
BRANCH   5   2
ATOM      1  F   UNL     1      -4.443  -2.010  23.182  0.00  0.00    -0.133 F 
ATOM      2  C   UNL     1      -4.220  -2.000  23.975  0.00  0.00    +0.575 C 
ATOM      3  F   UNL     1      -3.944  -2.775  23.908  0.00  0.00    -0.133 F 
ATOM      4  F   UNL     1      -4.496  -1.226  24.044  0.00  0.00    -0.133 F 
ENDBRANCH   5   2
ENDBRANCH   6   5
ENDBRANCH  10   9
ENDBRANCH  11  10
BRANCH  16  18
ATOM     18  O   UNL     1      -0.684   2.129  25.838  0.00  0.00    -0.459 OA
BRANCH  18  19
ATOM     19  C   UNL     1      -1.137   2.778  25.609  0.00  0.00    +0.245 A 
ATOM     20  C   UNL     1      -0.766   3.482  25.388  0.00  0.00    +0.156 A 
ATOM     21  N   UNL     1      -1.219   4.133  25.158  0.00  0.00    -0.236 NA
ATOM     22  C   UNL     1      -2.043   4.079  25.148  0.00  0.00    +0.120 A 
ATOM     23  C   UNL     1      -2.413   3.376  25.368  0.00  0.00    +0.123 A 
ATOM     24  N   UNL     1      -1.960   2.726  25.598  0.00  0.00    -0.207 NA
ENDBRANCH  18  19
ENDBRANCH  16  18
TORSDOF 6
ENDMDL
MODEL 3
REMARK VINA RESULT:     -10.2      3.038      5.021
REMARK  Name = 
REMARK  6 active torsions:
REMARK  status: ('A' for Active; 'I' for Inactive)
REMARK    1  A    between atoms: C_2  and  O_5
REMARK    2  A    between atoms: O_5  and  C_6
REMARK    3  A    between atoms: C_9  and  C_10
REMARK    4  A    between atoms: C_10  and  N_11
REMARK    5  A    between atoms: C_16  and  O_18
REMARK    6  A    between atoms: O_18  and  C_19
REMARK                            x       y       z     vdW  Elec       q    Type
REMARK                         _______ _______ _______ _____ _____    ______ ____
ROOT
ATOM     11  N   UNL     1      -4.501   2.454  24.613  0.00  0.00    -0.264 NA
ATOM     12  C   UNL     1      -5.074   2.682  25.162  0.00  0.00    +0.105 C 
ATOM     13  C   UNL     1      -5.553   2.205  25.633  0.00  0.00    +0.160 C 
ATOM     14  O   UNL     1      -5.579   1.381  25.673  0.00  0.00    -0.348 OA
ATOM     15  C   UNL     1      -5.131   0.832  25.251  0.00  0.00    +0.187 C 
ATOM     16  C   UNL     1      -4.548   0.971  24.684  0.00  0.00    +0.213 C 
ATOM     17  C   UNL     1      -4.268   1.692  24.401  0.00  0.00    +0.119 C 
ENDROOT
BRANCH  11  10
ATOM     10  C   UNL     1      -4.112   3.069  24.225  0.00  0.00    +0.099 C 
BRANCH  10   9
ATOM      6  C   UNL     1      -2.060   4.048  25.204  0.00  0.00    +0.147 A 
ATOM      7  C   UNL     1      -2.800   4.247  25.511  0.00  0.00    +0.037 A 
ATOM      8  C   UNL     1      -3.483   3.921  25.185  0.00  0.00    +0.000 A 
ATOM      9  C   UNL     1      -3.428   3.396  24.552  0.00  0.00    -0.006 A 
ATOM     25  C   UNL     1      -2.688   3.197  24.244  0.00  0.00    +0.000 A 
ATOM     26  C   UNL     1      -2.005   3.523  24.570  0.00  0.00    +0.037 A 
BRANCH   6   5
ATOM      5  O   UNL     1      -1.377   4.375  25.531  0.00  0.00    -0.404 OA
BRANCH   5   2
ATOM      1  F   UNL     1      -0.545   5.539  24.709  0.00  0.00    -0.133 F 
ATOM      2  C   UNL     1      -0.960   4.957  25.120  0.00  0.00    +0.575 C 
ATOM      3  F   UNL     1      -1.468   5.533  25.423  0.00  0.00    -0.133 F 
ATOM      4  F   UNL     1      -0.454   4.381  24.817  0.00  0.00    -0.133 F 
ENDBRANCH   5   2
ENDBRANCH   6   5
ENDBRANCH  10   9
ENDBRANCH  11  10
BRANCH  16  18
ATOM     18  O   UNL     1      -4.198   0.297  24.359  0.00  0.00    -0.459 OA
BRANCH  18  19
ATOM     19  C   UNL     1      -3.688  -0.163  24.815  0.00  0.00    +0.245 A 
ATOM     20  C   UNL     1      -3.985  -0.797  25.252  0.00  0.00    +0.156 A 
ATOM     21  N   UNL     1      -3.474  -1.258  25.709  0.00  0.00    -0.236 NA
ATOM     22  C   UNL     1      -2.667  -1.084  25.728  0.00  0.00    +0.120 A 
ATOM     23  C   UNL     1      -2.371  -0.450  25.292  0.00  0.00    +0.123 A 
ATOM     24  N   UNL     1      -2.882   0.010  24.835  0.00  0.00    -0.207 NA
ENDBRANCH  18  19
ENDBRANCH  16  18
TORSDOF 6
ENDMDL
MODEL 4
REMARK VINA RESULT:     -10.2      3.233      5.636
REMARK  Name = 
REMARK  6 active torsions:
REMARK  status: ('A' for Active; 'I' for Inactive)
REMARK    1  A    between atoms: C_2  and  O_5
REMARK    2  A    between atoms: O_5  and  C_6
REMARK    3  A    between atoms: C_9  and  C_10
REMARK    4  A    between atoms: C_10  and  N_11
REMARK    5  A    between atoms: C_16  and  O_18
REMARK    6  A    between atoms: O_18  and  C_19
REMARK                            x       y       z     vdW  Elec       q    Type
REMARK                         _______ _______ _______ _____ _____    ______ ____
ROOT
ATOM     11  N   UNL     1      -1.521   0.757  24.236  0.00  0.00    -0.264 NA
ATOM     12  C   UNL     1      -0.726   0.555  24.147  0.00  0.00    +0.105 C 
ATOM     13  C   UNL     1      -0.336  -0.125  24.403  0.00  0.00    +0.160 C 
ATOM     14  O   UNL     1      -0.645  -0.772  24.813  0.00  0.00    -0.348 OA
ATOM     15  C   UNL     1      -1.420  -0.896  25.067  0.00  0.00    +0.187 C 
ATOM     16  C   UNL     1      -2.077  -0.406  24.974  0.00  0.00    +0.213 C 
ATOM     17  C   UNL     1      -2.121   0.329  24.604  0.00  0.00    +0.119 C 
ENDROOT
BRANCH  11  10
ATOM     10  C   UNL     1      -1.743   1.483  23.914  0.00  0.00    +0.099 C 
BRANCH  10   9
ATOM      6  C   UNL     1      -1.231   3.582  25.122  0.00  0.00    +0.147 A 
ATOM      7  C   UNL     1      -1.935   3.180  25.272  0.00  0.00    +0.037 A 
ATOM      8  C   UNL     1      -2.106   2.482  24.871  0.00  0.00    +0.000 A 
ATOM      9  C   UNL     1      -1.572   2.183  24.317  0.00  0.00    -0.006 A 
ATOM     25  C   UNL     1      -0.867   2.585  24.165  0.00  0.00    +0.000 A 
ATOM     26  C   UNL     1      -0.696   3.283  24.567  0.00  0.00    +0.037 A 
BRANCH   6   5
ATOM      5  O   UNL     1      -1.060   4.282  25.524  0.00  0.00    -0.404 OA
BRANCH   5   2
ATOM      1  F   UNL     1      -1.505   5.734  24.880  0.00  0.00    -0.133 F 
ATOM      2  C   UNL     1      -1.283   5.009  25.202  0.00  0.00    +0.575 C 
ATOM      3  F   UNL     1      -2.000   4.967  25.607  0.00  0.00    -0.133 F 
ATOM      4  F   UNL     1      -0.565   5.049  24.798  0.00  0.00    -0.133 F 
ENDBRANCH   5   2
ENDBRANCH   6   5
ENDBRANCH  10   9
ENDBRANCH  11  10
BRANCH  16  18
ATOM     18  O   UNL     1      -2.783  -0.691  25.294  0.00  0.00    -0.459 OA
BRANCH  18  19
ATOM     19  C   UNL     1      -3.213  -1.269  24.893  0.00  0.00    +0.245 A 
ATOM     20  C   UNL     1      -3.092  -2.067  25.065  0.00  0.00    +0.156 A 
ATOM     21  N   UNL     1      -3.523  -2.645  24.664  0.00  0.00    -0.236 NA
ATOM     22  C   UNL     1      -4.074  -2.426  24.090  0.00  0.00    +0.120 A 
ATOM     23  C   UNL     1      -4.195  -1.628  23.918  0.00  0.00    +0.123 A 
ATOM     24  N   UNL     1      -3.764  -1.050  24.320  0.00  0.00    -0.207 NA
ENDBRANCH  18  19
ENDBRANCH  16  18
TORSDOF 6
ENDMDL
MODEL 5
REMARK VINA RESULT:     -10.1      1.289      2.380
REMARK  Name = 
REMARK  6 active torsions:
REMARK  status: ('A' for Active; 'I' for Inactive)
REMARK    1  A    between atoms: C_2  and  O_5
REMARK    2  A    between atoms: O_5  and  C_6
REMARK    3  A    between atoms: C_9  and  C_10
REMARK    4  A    between atoms: C_10  and  N_11
REMARK    5  A    between atoms: C_16  and  O_18
REMARK    6  A    between atoms: O_18  and  C_19
REMARK                            x       y       z     vdW  Elec       q    Type
REMARK                         _______ _______ _______ _____ _____    ______ ____
ROOT
ATOM     11  N   UNL     1      -2.323   1.494  24.404  0.00  0.00    -0.264 NA
ATOM     12  C   UNL     1      -1.693   1.603  24.926  0.00  0.00    +0.105 C 
ATOM     13  C   UNL     1      -1.556   2.230  25.443  0.00  0.00    +0.160 C 
ATOM     14  O   UNL     1      -2.015   2.905  25.568  0.00  0.00    -0.348 OA
ATOM     15  C   UNL     1      -2.724   3.117  25.204  0.00  0.00    +0.187 C 
ATOM     16  C   UNL     1      -3.150   2.708  24.628  0.00  0.00    +0.213 C 
ATOM     17  C   UNL     1      -2.971   1.987  24.272  0.00  0.00    +0.119 C 
ENDROOT
BRANCH  11  10
ATOM     10  C   UNL     1      -2.302   0.802  23.956  0.00  0.00    +0.099 C 
BRANCH  10   9
ATOM      6  C   UNL     1      -3.437  -1.239  24.775  0.00  0.00    +0.147 A 
ATOM      7  C   UNL     1      -2.742  -0.980  25.136  0.00  0.00    +0.037 A 
ATOM      8  C   UNL     1      -2.364  -0.301  24.863  0.00  0.00    +0.000 A 
ATOM      9  C   UNL     1      -2.680   0.122  24.229  0.00  0.00    -0.006 A 
ATOM     25  C   UNL     1      -3.376  -0.137  23.867  0.00  0.00    +0.000 A 
ATOM     26  C   UNL     1      -3.754  -0.817  24.140  0.00  0.00    +0.037 A 
BRANCH   6   5
ATOM      5  O   UNL     1      -3.816  -1.920  25.047  0.00  0.00    -0.404 OA
BRANCH   5   2
ATOM      1  F   UNL     1      -3.616  -3.351  24.251  0.00  0.00    -0.133 F 
ATOM      2  C   UNL     1      -3.716  -2.636  24.649  0.00  0.00    +0.575 C 
ATOM      3  F   UNL     1      -3.086  -2.824  25.147  0.00  0.00    -0.133 F 
ATOM      4  F   UNL     1      -4.346  -2.447  24.151  0.00  0.00    -0.133 F 
ENDBRANCH   5   2
ENDBRANCH   6   5
ENDBRANCH  10   9
ENDBRANCH  11  10
BRANCH  16  18
ATOM     18  O   UNL     1      -3.847   3.071  24.373  0.00  0.00    -0.459 OA
BRANCH  18  19
ATOM     19  C   UNL     1      -4.523   3.039  24.845  0.00  0.00    +0.245 A 
ATOM     20  C   UNL     1      -4.656   3.622  25.414  0.00  0.00    +0.156 A 
ATOM     21  N   UNL     1      -5.333   3.591  25.886  0.00  0.00    -0.236 NA
ATOM     22  C   UNL     1      -5.875   2.976  25.789  0.00  0.00    +0.120 A 
ATOM     23  C   UNL     1      -5.742   2.394  25.220  0.00  0.00    +0.123 A 
ATOM     24  N   UNL     1      -5.065   2.426  24.749  0.00  0.00    -0.207 NA
ENDBRANCH  18  19
ENDBRANCH  16  18
TORSDOF 6
ENDMDL
MODEL 6
REMARK VINA RESULT:     -10.0      2.466      4.362
REMARK  Name = 
REMARK  6 active torsions:
REMARK  status: ('A' for Active; 'I' for Inactive)
REMARK    1  A    between atoms: C_2  and  O_5
REMARK    2  A    between atoms: O_5  and  C_6
REMARK    3  A    between atoms: C_9  and  C_10
REMARK    4  A    between atoms: C_10  and  N_11
REMARK    5  A    between atoms: C_16  and  O_18
REMARK    6  A    between atoms: O_18  and  C_19
REMARK                            x       y       z     vdW  Elec       q    Type
REMARK                         _______ _______ _______ _____ _____    ______ ____
ROOT
ATOM     11  N   UNL     1      -1.716   2.806  24.838  0.00  0.00    -0.264 NA
ATOM     12  C   UNL     1      -1.412   3.095  25.548  0.00  0.00    +0.105 C 
ATOM     13  C   UNL     1      -0.851   2.752  26.045  0.00  0.00    +0.160 C 
ATOM     14  O   UNL     1      -0.455   2.033  25.956  0.00  0.00    -0.348 OA
ATOM     15  C   UNL     1      -0.523   1.482  25.346  0.00  0.00    +0.187 C 
ATOM     16  C   UNL     1      -1.004   1.512  24.676  0.00  0.00    +0.213 C 
ATOM     17  C   UNL     1      -1.534   2.101  24.450  0.00  0.00    +0.119 C 
ENDROOT
BRANCH  11  10
ATOM     10  C   UNL     1      -2.276   3.285  24.467  0.00  0.00    +0.099 C 
BRANCH  10   9
ATOM      6  C   UNL     1      -4.664   3.112  25.094  0.00  0.00    +0.147 A 
ATOM      7  C   UNL     1      -4.140   3.530  25.575  0.00  0.00    +0.037 A 
ATOM      8  C   UNL     1      -3.345   3.587  25.366  0.00  0.00    +0.000 A 
ATOM      9  C   UNL     1      -3.072   3.227  24.676  0.00  0.00    -0.006 A 
ATOM     25  C   UNL     1      -3.596   2.809  24.194  0.00  0.00    +0.000 A 
ATOM     26  C   UNL     1      -4.391   2.751  24.403  0.00  0.00    +0.037 A 
BRANCH   6   5
ATOM      5  O   UNL     1      -5.460   3.054  25.303  0.00  0.00    -0.404 OA
BRANCH   5   2
ATOM      1  F   UNL     1      -6.008   1.720  26.105  0.00  0.00    -0.133 F 
ATOM      2  C   UNL     1      -5.734   2.387  25.704  0.00  0.00    +0.575 C 
ATOM      3  F   UNL     1      -5.919   2.030  24.984  0.00  0.00    -0.133 F 
ATOM      4  F   UNL     1      -5.549   2.745  26.424  0.00  0.00    -0.133 F 
ENDBRANCH   5   2
ENDBRANCH   6   5
ENDBRANCH  10   9
ENDBRANCH  11  10
BRANCH  16  18
ATOM     18  O   UNL     1      -0.945   0.867  24.164  0.00  0.00    -0.459 OA
BRANCH  18  19
ATOM     19  C   UNL     1      -1.131   0.110  24.433  0.00  0.00    +0.245 A 
ATOM     20  C   UNL     1      -0.526  -0.416  24.632  0.00  0.00    +0.156 A 
ATOM     21  N   UNL     1      -0.712  -1.174  24.902  0.00  0.00    -0.236 NA
ATOM     22  C   UNL     1      -1.501  -1.405  24.972  0.00  0.00    +0.120 A 
ATOM     23  C   UNL     1      -2.104  -0.880  24.773  0.00  0.00    +0.123 A 
ATOM     24  N   UNL     1      -1.919  -0.122  24.503  0.00  0.00    -0.207 NA
ENDBRANCH  18  19
ENDBRANCH  16  18
TORSDOF 6
ENDMDL
