MODEL 1
REMARK VINA RESULT:     -11.2      0.000      0.000
REMARK  Name = 
REMARK  1 active torsions:
REMARK  status: ('A' for Active; 'I' for Inactive)
REMARK    1  A    between atoms: N_10  and  C_13
REMARK                            x       y       z     vdW  Elec       q    Type
REMARK                         _______ _______ _______ _____ _____    ______ ____
ROOT
ATOM      1  C   UNL     1      -4.940   3.830  25.389  0.00  0.00    +0.095 C 
ATOM      2  C   UNL     1      -5.162   3.054  25.559  0.00  0.00    +0.226 C 
ATOM      3  O   UNL     1      -5.804   2.908  26.056  0.00  0.00    -0.275 OA
ATOM      4  N   UNL     1      -4.742   2.424  25.231  0.00  0.00    -0.276 N 
ATOM      5  C   UNL     1      -4.100   2.570  24.734  0.00  0.00    +0.115 C 
ATOM      6  C   UNL     1      -3.680   1.940  24.407  0.00  0.00    +0.116 C 
ATOM      7  N   UNL     1      -3.902   1.163  24.576  0.00  0.00    -0.260 N 
ATOM      8  C   UNL     1      -4.544   1.017  25.073  0.00  0.00    +0.117 C 
ATOM      9  C   UNL     1      -4.634   0.200  25.140  0.00  0.00    +0.121 C 
ATOM     10  N   UNL     1      -4.048  -0.159  24.685  0.00  0.00    -0.241 N 
ATOM     11  C   UNL     1      -3.596   0.436  24.336  0.00  0.00    +0.311 C 
ATOM     12  O   UNL     1      -2.950   0.324  23.835  0.00  0.00    -0.252 OA
ATOM     19  C   UNL     1      -4.964   1.648  25.401  0.00  0.00    +0.115 C 
ENDROOT
BRANCH  10  13
ATOM     13  C   UNL     1      -3.933  -0.971  24.594  0.00  0.00    +0.055 A 
ATOM     14  C   UNL     1      -3.486  -1.390  25.147  0.00  0.00    +0.015 A 
ATOM     15  C   UNL     1      -3.371  -2.202  25.056  0.00  0.00    +0.001 A 
ATOM     16  C   UNL     1      -3.705  -2.595  24.412  0.00  0.00    +0.000 A 
ATOM     17  C   UNL     1      -4.152  -2.177  23.859  0.00  0.00    +0.001 A 
ATOM     18  C   UNL     1      -4.266  -1.365  23.950  0.00  0.00    +0.015 A 
ENDBRANCH  10  13
TORSDOF 1
ENDMDL
MODEL 2
REMARK VINA RESULT:     -10.4      1.279      1.657
REMARK  Name = 
REMARK  1 active torsions:
REMARK  status: ('A' for Active; 'I' for Inactive)
REMARK    1  A    between atoms: N_10  and  C_13
REMARK                            x       y       z     vdW  Elec       q    Type
REMARK                         _______ _______ _______ _____ _____    ______ ____
ROOT
ATOM      1  C   UNL     1      -2.975   4.173  24.966  0.00  0.00    +0.095 C 
ATOM      2  C   UNL     1      -2.624   3.444  24.808  0.00  0.00    +0.226 C 
ATOM      3  O   UNL     1      -1.822   3.405  24.617  0.00  0.00    -0.275 OA
ATOM      4  N   UNL     1      -3.075   2.753  24.841  0.00  0.00    -0.276 N 
ATOM      5  C   UNL     1      -3.877   2.793  25.032  0.00  0.00    +0.115 C 
ATOM      6  C   UNL     1      -4.327   2.103  25.065  0.00  0.00    +0.116 C 
ATOM      7  N   UNL     1      -3.976   1.373  24.907  0.00  0.00    -0.260 N 
ATOM      8  C   UNL     1      -3.175   1.333  24.716  0.00  0.00    +0.117 C 
ATOM      9  C   UNL     1      -2.982   0.542  24.588  0.00  0.00    +0.121 C 
ATOM     10  N   UNL     1      -3.664   0.092  24.700  0.00  0.00    -0.241 N 
ATOM     11  C   UNL     1      -4.278   0.606  24.897  0.00  0.00    +0.311 C 
ATOM     12  O   UNL     1      -5.058   0.390  25.056  0.00  0.00    -0.252 OA
ATOM     19  C   UNL     1      -2.724   2.024  24.683  0.00  0.00    +0.115 C 
ENDROOT
BRANCH  10  13
ATOM     13  C   UNL     1      -3.721  -0.728  24.627  0.00  0.00    +0.055 A 
ATOM     14  C   UNL     1      -3.441  -1.216  25.231  0.00  0.00    +0.015 A 
ATOM     15  C   UNL     1      -3.498  -2.036  25.159  0.00  0.00    +0.001 A 
ATOM     16  C   UNL     1      -3.836  -2.367  24.483  0.00  0.00    +0.000 A 
ATOM     17  C   UNL     1      -4.116  -1.880  23.880  0.00  0.00    +0.001 A 
ATOM     18  C   UNL     1      -4.058  -1.060  23.952  0.00  0.00    +0.015 A 
ENDBRANCH  10  13
TORSDOF 1
ENDMDL
