MODEL 1
REMARK VINA RESULT:      -9.8      0.000      0.000
REMARK  Name = 
REMARK  10 active torsions:
REMARK  status: ('A' for Active; 'I' for Inactive)
REMARK    1  A    between atoms: O_2  and  C_3
REMARK    2  A    between atoms: C_5  and  N_6
REMARK    3  A    between atoms: N_9  and  C_10
REMARK    4  A    between atoms: C_10  and  C_11
REMARK    5  A    between atoms: C_15  and  C_16
REMARK    6  A    between atoms: C_16  and  C_17
REMARK    7  A    between atoms: N_19  and  C_20
REMARK    8  A    between atoms: C_20  and  C_21
REMARK    9  A    between atoms: C_24  and  C_27
REMARK   10  A    between atoms: C_30  and  C_31
REMARK                            x       y       z     vdW  Elec       q    Type
REMARK                         _______ _______ _______ _____ _____    ______ ____
ROOT
ATOM     11  C   UNL     1      -0.379   0.439  24.111  0.00  0.00    +0.043 C 
ATOM     12  C   UNL     1      -0.472  -0.375  24.201  0.00  0.00    -0.033 C 
ATOM     13  C   UNL     1      -1.189  -0.681  24.473  0.00  0.00    -0.048 C 
ATOM     14  C   UNL     1      -1.283  -1.496  24.563  0.00  0.00    +0.026 C 
ATOM     15  C   UNL     1      -1.812  -0.171  24.655  0.00  0.00    +0.027 C 
ATOM     29  C   UNL     1      -1.718   0.644  24.565  0.00  0.00    +0.005 C 
ATOM     30  C   UNL     1      -1.001   0.949  24.293  0.00  0.00    +0.006 C 
ENDROOT
BRANCH  30  31
ATOM     31  C   UNL     1      -0.908   1.763  24.203  0.00  0.00    +0.000 C 
ATOM     32  C   UNL     1      -1.081   2.121  23.479  0.00  0.00    +0.000 C 
ATOM     33  C   UNL     1      -0.643   2.220  24.835  0.00  0.00    +0.000 C 
ENDBRANCH  30  31
BRANCH  11  10
ATOM     10  C   UNL     1       0.337   0.744  23.839  0.00  0.00    +0.121 C 
BRANCH  10   9
ATOM      6  N   UNL     1       2.157  -0.013  22.900  0.00  0.00    -0.161 NA
ATOM      7  C   UNL     1       1.647   0.461  23.343  0.00  0.00    +0.344 C 
ATOM      8  O   UNL     1       1.940   1.127  23.735  0.00  0.00    -0.249 OA
ATOM      9  N   UNL     1       0.847   0.271  23.396  0.00  0.00    -0.187 NA
BRANCH   6   5
ATOM      3  C   UNL     1       4.319  -0.089  23.192  0.00  0.00    +0.140 A 
ATOM      4  C   UNL     1       3.518  -0.280  23.245  0.00  0.00    +0.054 A 
ATOM      5  C   UNL     1       2.957   0.178  22.847  0.00  0.00    +0.078 A 
ATOM     34  C   UNL     1       3.199   0.827  22.398  0.00  0.00    +0.017 A 
ATOM     35  C   UNL     1       3.999   1.018  22.346  0.00  0.00    +0.004 A 
ATOM     36  C   UNL     1       4.560   0.559  22.743  0.00  0.00    +0.037 A 
BRANCH   3   2
ATOM      1  C   UNL     1       5.500  -0.183  23.992  0.00  0.00    +0.252 C 
ATOM      2  O   UNL     1       4.879  -0.547  23.589  0.00  0.00    -0.471 OA
ENDBRANCH   3   2
ENDBRANCH   6   5
ENDBRANCH  10   9
ENDBRANCH  11  10
BRANCH  15  16
ATOM     16  C   UNL     1      -2.529  -0.477  24.927  0.00  0.00    +0.091 C 
BRANCH  16  17
ATOM     17  C   UNL     1      -3.238  -0.223  24.591  0.00  0.00    +0.242 C 
ATOM     18  O   UNL     1      -3.484  -0.528  23.864  0.00  0.00    -0.273 OA
ATOM     19  N   UNL     1      -3.702   0.336  24.982  0.00  0.00    -0.201 NA
BRANCH  19  20
ATOM     20  C   UNL     1      -4.412   0.590  24.646  0.00  0.00    +0.141 C 
BRANCH  20  21
ATOM     21  C   UNL     1      -4.741   1.311  24.875  0.00  0.00    -0.001 A 
ATOM     22  C   UNL     1      -4.578   1.995  24.442  0.00  0.00    -0.002 A 
ATOM     23  C   UNL     1      -4.907   2.715  24.672  0.00  0.00    +0.010 A 
ATOM     24  C   UNL     1      -5.398   2.753  25.332  0.00  0.00    +0.068 A 
ATOM     25  C   UNL     1      -5.562   2.070  25.764  0.00  0.00    +0.010 A 
ATOM     26  C   UNL     1      -5.233   1.348  25.535  0.00  0.00    -0.002 A 
BRANCH  24  27
ATOM     27  C   UNL     1      -5.728   3.475  25.561  0.00  0.00    +0.100 C 
ATOM     28  N   UNL     1      -6.056   4.196  25.790  0.00  0.00    -0.191 NA
ENDBRANCH  24  27
ENDBRANCH  20  21
ENDBRANCH  19  20
ENDBRANCH  16  17
ENDBRANCH  15  16
TORSDOF 10
ENDMDL
MODEL 2
REMARK VINA RESULT:      -8.9      1.471      7.413
REMARK  Name = 
REMARK  10 active torsions:
REMARK  status: ('A' for Active; 'I' for Inactive)
REMARK    1  A    between atoms: O_2  and  C_3
REMARK    2  A    between atoms: C_5  and  N_6
REMARK    3  A    between atoms: N_9  and  C_10
REMARK    4  A    between atoms: C_10  and  C_11
REMARK    5  A    between atoms: C_15  and  C_16
REMARK    6  A    between atoms: C_16  and  C_17
REMARK    7  A    between atoms: N_19  and  C_20
REMARK    8  A    between atoms: C_20  and  C_21
REMARK    9  A    between atoms: C_24  and  C_27
REMARK   10  A    between atoms: C_30  and  C_31
REMARK                            x       y       z     vdW  Elec       q    Type
REMARK                         _______ _______ _______ _____ _____    ______ ____
ROOT
ATOM     11  C   UNL     1      -1.192   1.345  24.466  0.00  0.00    +0.043 C 
ATOM     12  C   UNL     1      -1.460   0.599  24.237  0.00  0.00    -0.033 C 
ATOM     13  C   UNL     1      -0.924   0.032  23.967  0.00  0.00    -0.048 C 
ATOM     14  C   UNL     1      -1.192  -0.714  23.738  0.00  0.00    +0.026 C 
ATOM     15  C   UNL     1      -0.120   0.212  23.926  0.00  0.00    +0.027 C 
ATOM     29  C   UNL     1       0.149   0.958  24.155  0.00  0.00    +0.005 C 
ATOM     30  C   UNL     1      -0.388   1.524  24.425  0.00  0.00    +0.006 C 
ENDROOT
BRANCH  30  31
ATOM     31  C   UNL     1      -0.119   2.269  24.654  0.00  0.00    +0.000 C 
ATOM     32  C   UNL     1       0.129   2.398  25.431  0.00  0.00    +0.000 C 
ATOM     33  C   UNL     1      -0.096   2.886  24.107  0.00  0.00    +0.000 C 
ENDBRANCH  30  31
BRANCH  11  10
ATOM     10  C   UNL     1      -1.727   1.911  24.735  0.00  0.00    +0.121 C 
BRANCH  10   9
ATOM      6  N   UNL     1      -3.831   2.388  24.404  0.00  0.00    -0.161 NA
ATOM      7  C   UNL     1      -3.102   2.297  24.779  0.00  0.00    +0.344 C 
ATOM      8  O   UNL     1      -3.019   2.501  25.575  0.00  0.00    -0.249 OA
ATOM      9  N   UNL     1      -2.456   2.002  24.360  0.00  0.00    -0.187 NA
BRANCH   6   5
ATOM      3  C   UNL     1      -5.716   2.465  25.503  0.00  0.00    +0.140 A 
ATOM      4  C   UNL     1      -5.069   2.170  25.084  0.00  0.00    +0.054 A 
ATOM      5  C   UNL     1      -4.477   2.683  24.823  0.00  0.00    +0.078 A 
ATOM     34  C   UNL     1      -4.533   3.491  24.981  0.00  0.00    +0.017 A 
ATOM     35  C   UNL     1      -5.179   3.786  25.400  0.00  0.00    +0.004 A 
ATOM     36  C   UNL     1      -5.771   3.272  25.661  0.00  0.00    +0.037 A 
BRANCH   3   2
ATOM      1  C   UNL     1      -6.371   1.769  26.565  0.00  0.00    +0.252 C 
ATOM      2  O   UNL     1      -6.307   1.953  25.764  0.00  0.00    -0.471 OA
ENDBRANCH   3   2
ENDBRANCH   6   5
ENDBRANCH  10   9
ENDBRANCH  11  10
BRANCH  15  16
ATOM     16  C   UNL     1       0.416  -0.355  23.656  0.00  0.00    +0.091 C 
BRANCH  16  17
ATOM     17  C   UNL     1       0.963  -0.158  23.071  0.00  0.00    +0.242 C 
ATOM     18  O   UNL     1       0.705   0.017  22.307  0.00  0.00    -0.273 OA
ATOM     19  N   UNL     1       1.768  -0.137  23.250  0.00  0.00    -0.201 NA
BRANCH  19  20
ATOM     20  C   UNL     1       2.315   0.060  22.664  0.00  0.00    +0.141 C 
BRANCH  20  21
ATOM     21  C   UNL     1       3.119   0.099  22.848  0.00  0.00    -0.001 A 
ATOM     22  C   UNL     1       3.538   0.798  22.717  0.00  0.00    -0.002 A 
ATOM     23  C   UNL     1       4.341   0.838  22.901  0.00  0.00    +0.010 A 
ATOM     24  C   UNL     1       4.725   0.180  23.215  0.00  0.00    +0.068 A 
ATOM     25  C   UNL     1       4.307  -0.519  23.346  0.00  0.00    +0.010 A 
ATOM     26  C   UNL     1       3.503  -0.559  23.162  0.00  0.00    -0.002 A 
BRANCH  24  27
ATOM     27  C   UNL     1       5.529   0.219  23.399  0.00  0.00    +0.100 C 
ATOM     28  N   UNL     1       6.331   0.259  23.583  0.00  0.00    -0.191 NA
ENDBRANCH  24  27
ENDBRANCH  20  21
ENDBRANCH  19  20
ENDBRANCH  16  17
ENDBRANCH  15  16
TORSDOF 10
ENDMDL
MODEL 3
REMARK VINA RESULT:      -8.9      1.594      2.773
REMARK  Name = 
REMARK  10 active torsions:
REMARK  status: ('A' for Active; 'I' for Inactive)
REMARK    1  A    between atoms: O_2  and  C_3
REMARK    2  A    between atoms: C_5  and  N_6
REMARK    3  A    between atoms: N_9  and  C_10
REMARK    4  A    between atoms: C_10  and  C_11
REMARK    5  A    between atoms: C_15  and  C_16
REMARK    6  A    between atoms: C_16  and  C_17
REMARK    7  A    between atoms: N_19  and  C_20
REMARK    8  A    between atoms: C_20  and  C_21
REMARK    9  A    between atoms: C_24  and  C_27
REMARK   10  A    between atoms: C_30  and  C_31
REMARK                            x       y       z     vdW  Elec       q    Type
REMARK                         _______ _______ _______ _____ _____    ______ ____
ROOT
ATOM     11  C   UNL     1      -0.509   1.765  24.089  0.00  0.00    +0.043 C 
ATOM     12  C   UNL     1      -0.893   1.788  23.360  0.00  0.00    -0.033 C 
ATOM     13  C   UNL     1      -1.706   1.926  23.325  0.00  0.00    -0.048 C 
ATOM     14  C   UNL     1      -2.090   1.948  22.595  0.00  0.00    +0.026 C 
ATOM     15  C   UNL     1      -2.134   2.041  24.020  0.00  0.00    +0.027 C 
ATOM     29  C   UNL     1      -1.750   2.019  24.751  0.00  0.00    +0.005 C 
ATOM     30  C   UNL     1      -0.938   1.881  24.785  0.00  0.00    +0.006 C 
ENDROOT
BRANCH  30  31
ATOM     31  C   UNL     1      -0.554   1.859  25.515  0.00  0.00    +0.000 C 
ATOM     32  C   UNL     1      -0.513   1.150  25.937  0.00  0.00    +0.000 C 
ATOM     33  C   UNL     1      -0.213   2.542  25.823  0.00  0.00    +0.000 C 
ENDBRANCH  30  31
BRANCH  11  10
ATOM     10  C   UNL     1       0.303   1.627  24.124  0.00  0.00    +0.121 C 
BRANCH  10   9
ATOM      6  N   UNL     1       1.825   0.515  23.023  0.00  0.00    -0.161 NA
ATOM      7  C   UNL     1       1.475   1.053  23.541  0.00  0.00    +0.344 C 
ATOM      8  O   UNL     1       1.947   1.555  23.996  0.00  0.00    -0.249 OA
ATOM      9  N   UNL     1       0.654   1.089  23.606  0.00  0.00    -0.187 NA
BRANCH   6   5
ATOM      3  C   UNL     1       3.875  -0.217  23.179  0.00  0.00    +0.140 A 
ATOM      4  C   UNL     1       3.054  -0.181  23.243  0.00  0.00    +0.054 A 
ATOM      5  C   UNL     1       2.646   0.478  22.958  0.00  0.00    +0.078 A 
ATOM     34  C   UNL     1       3.061   1.100  22.609  0.00  0.00    +0.017 A 
ATOM     35  C   UNL     1       3.882   1.064  22.545  0.00  0.00    +0.004 A 
ATOM     36  C   UNL     1       4.290   0.404  22.830  0.00  0.00    +0.037 A 
BRANCH   3   2
ATOM      1  C   UNL     1       4.995  -0.778  23.868  0.00  0.00    +0.252 C 
ATOM      2  O   UNL     1       4.283  -0.876  23.463  0.00  0.00    -0.471 OA
ENDBRANCH   3   2
ENDBRANCH   6   5
ENDBRANCH  10   9
ENDBRANCH  11  10
BRANCH  15  16
ATOM     16  C   UNL     1      -2.948   2.179  23.986  0.00  0.00    +0.091 C 
BRANCH  16  17
ATOM     17  C   UNL     1      -3.465   1.702  24.416  0.00  0.00    +0.242 C 
ATOM     18  O   UNL     1      -3.861   2.008  25.072  0.00  0.00    -0.273 OA
ATOM     19  N   UNL     1      -3.586   0.918  24.189  0.00  0.00    -0.201 NA
BRANCH  19  20
ATOM     20  C   UNL     1      -4.103   0.440  24.619  0.00  0.00    +0.141 C 
BRANCH  20  21
ATOM     21  C   UNL     1      -4.014  -0.380  24.605  0.00  0.00    -0.001 A 
ATOM     22  C   UNL     1      -3.711  -0.774  25.264  0.00  0.00    -0.002 A 
ATOM     23  C   UNL     1      -3.622  -1.594  25.250  0.00  0.00    +0.010 A 
ATOM     24  C   UNL     1      -3.835  -2.020  24.578  0.00  0.00    +0.068 A 
ATOM     25  C   UNL     1      -4.138  -1.628  23.919  0.00  0.00    +0.010 A 
ATOM     26  C   UNL     1      -4.227  -0.807  23.933  0.00  0.00    -0.002 A 
BRANCH  24  27
ATOM     27  C   UNL     1      -3.746  -2.841  24.564  0.00  0.00    +0.100 C 
ATOM     28  N   UNL     1      -3.657  -3.660  24.550  0.00  0.00    -0.191 NA
ENDBRANCH  24  27
ENDBRANCH  20  21
ENDBRANCH  19  20
ENDBRANCH  16  17
ENDBRANCH  15  16
TORSDOF 10
ENDMDL
MODEL 4
REMARK VINA RESULT:      -7.9      3.516      5.661
REMARK  Name = 
REMARK  10 active torsions:
REMARK  status: ('A' for Active; 'I' for Inactive)
REMARK    1  A    between atoms: O_2  and  C_3
REMARK    2  A    between atoms: C_5  and  N_6
REMARK    3  A    between atoms: N_9  and  C_10
REMARK    4  A    between atoms: C_10  and  C_11
REMARK    5  A    between atoms: C_15  and  C_16
REMARK    6  A    between atoms: C_16  and  C_17
REMARK    7  A    between atoms: N_19  and  C_20
REMARK    8  A    between atoms: C_20  and  C_21
REMARK    9  A    between atoms: C_24  and  C_27
REMARK   10  A    between atoms: C_30  and  C_31
REMARK                            x       y       z     vdW  Elec       q    Type
REMARK                         _______ _______ _______ _____ _____    ______ ____
ROOT
ATOM     11  C   UNL     1      -4.683   1.332  24.379  0.00  0.00    +0.043 C 
ATOM     12  C   UNL     1      -4.129   1.476  23.785  0.00  0.00    -0.033 C 
ATOM     13  C   UNL     1      -3.907   2.250  23.606  0.00  0.00    -0.048 C 
ATOM     14  C   UNL     1      -3.352   2.395  23.013  0.00  0.00    +0.026 C 
ATOM     15  C   UNL     1      -4.239   2.881  24.022  0.00  0.00    +0.027 C 
ATOM     29  C   UNL     1      -4.794   2.737  24.616  0.00  0.00    +0.005 C 
ATOM     30  C   UNL     1      -5.016   1.963  24.794  0.00  0.00    +0.006 C 
ENDROOT
BRANCH  30  31
ATOM     31  C   UNL     1      -5.570   1.819  25.388  0.00  0.00    +0.000 C 
ATOM     32  C   UNL     1      -5.331   1.798  26.178  0.00  0.00    +0.000 C 
ATOM     33  C   UNL     1      -6.361   1.698  25.193  0.00  0.00    +0.000 C 
ENDBRANCH  30  31
BRANCH  11  10
ATOM     10  C   UNL     1      -4.905   0.558  24.557  0.00  0.00    +0.121 C 
BRANCH  10   9
ATOM      6  N   UNL     1      -4.020  -1.315  23.869  0.00  0.00    -0.161 NA
ATOM      7  C   UNL     1      -4.246  -0.695  24.364  0.00  0.00    +0.344 C 
ATOM      8  O   UNL     1      -4.040  -0.710  25.164  0.00  0.00    -0.249 OA
ATOM      9  N   UNL     1      -4.678  -0.061  24.062  0.00  0.00    -0.187 NA
BRANCH   6   5
ATOM      3  C   UNL     1      -2.331  -2.562  24.465  0.00  0.00    +0.140 A 
ATOM      4  C   UNL     1      -2.762  -1.927  24.162  0.00  0.00    +0.054 A 
ATOM      5  C   UNL     1      -3.588  -1.949  24.171  0.00  0.00    +0.078 A 
ATOM     34  C   UNL     1      -3.980  -2.604  24.483  0.00  0.00    +0.017 A 
ATOM     35  C   UNL     1      -3.548  -3.238  24.785  0.00  0.00    +0.004 A 
ATOM     36  C   UNL     1      -2.723  -3.217  24.776  0.00  0.00    +0.037 A 
BRANCH   3   2
ATOM      1  C   UNL     1      -1.095  -2.178  25.073  0.00  0.00    +0.252 C 
ATOM      2  O   UNL     1      -1.506  -2.541  24.456  0.00  0.00    -0.471 OA
ENDBRANCH   3   2
ENDBRANCH   6   5
ENDBRANCH  10   9
ENDBRANCH  11  10
BRANCH  15  16
ATOM     16  C   UNL     1      -4.017   3.656  23.843  0.00  0.00    +0.091 C 
BRANCH  16  17
ATOM     17  C   UNL     1      -3.551   4.083  24.373  0.00  0.00    +0.242 C 
ATOM     18  O   UNL     1      -3.864   4.739  24.763  0.00  0.00    -0.273 OA
ATOM     19  N   UNL     1      -2.771   3.853  24.512  0.00  0.00    -0.201 NA
BRANCH  19  20
ATOM     20  C   UNL     1      -2.304   4.280  25.042  0.00  0.00    +0.141 C 
BRANCH  20  21
ATOM     21  C   UNL     1      -1.648   3.924  25.392  0.00  0.00    -0.001 A 
ATOM     22  C   UNL     1      -0.905   3.990  25.038  0.00  0.00    -0.002 A 
ATOM     23  C   UNL     1      -0.248   3.634  25.388  0.00  0.00    +0.010 A 
ATOM     24  C   UNL     1      -0.334   3.212  26.090  0.00  0.00    +0.068 A 
ATOM     25  C   UNL     1      -1.075   3.145  26.444  0.00  0.00    +0.010 A 
ATOM     26  C   UNL     1      -1.733   3.502  26.095  0.00  0.00    -0.002 A 
BRANCH  24  27
ATOM     27  C   UNL     1       0.324   2.855  26.440  0.00  0.00    +0.100 C 
ATOM     28  N   UNL     1       0.980   2.499  26.790  0.00  0.00    -0.191 NA
ENDBRANCH  24  27
ENDBRANCH  20  21
ENDBRANCH  19  20
ENDBRANCH  16  17
ENDBRANCH  15  16
TORSDOF 10
ENDMDL
MODEL 5
REMARK VINA RESULT:      -7.8      1.586      2.494
REMARK  Name = 
REMARK  10 active torsions:
REMARK  status: ('A' for Active; 'I' for Inactive)
REMARK    1  A    between atoms: O_2  and  C_3
REMARK    2  A    between atoms: C_5  and  N_6
REMARK    3  A    between atoms: N_9  and  C_10
REMARK    4  A    between atoms: C_10  and  C_11
REMARK    5  A    between atoms: C_15  and  C_16
REMARK    6  A    between atoms: C_16  and  C_17
REMARK    7  A    between atoms: N_19  and  C_20
REMARK    8  A    between atoms: C_20  and  C_21
REMARK    9  A    between atoms: C_24  and  C_27
REMARK   10  A    between atoms: C_30  and  C_31
REMARK                            x       y       z     vdW  Elec       q    Type
REMARK                         _______ _______ _______ _____ _____    ______ ____
ROOT
ATOM     11  C   UNL     1      -0.158   2.085  24.672  0.00  0.00    +0.043 C 
ATOM     12  C   UNL     1       0.074   2.873  24.741  0.00  0.00    -0.033 C 
ATOM     13  C   UNL     1      -0.415   3.415  25.127  0.00  0.00    -0.048 C 
ATOM     14  C   UNL     1      -0.184   4.204  25.196  0.00  0.00    +0.026 C 
ATOM     15  C   UNL     1      -1.135   3.167  25.444  0.00  0.00    +0.027 C 
ATOM     29  C   UNL     1      -1.367   2.378  25.375  0.00  0.00    +0.005 C 
ATOM     30  C   UNL     1      -0.878   1.837  24.989  0.00  0.00    +0.006 C 
ENDROOT
BRANCH  30  31
ATOM     31  C   UNL     1      -1.110   1.048  24.921  0.00  0.00    +0.000 C 
ATOM     32  C   UNL     1      -0.965   0.521  25.540  0.00  0.00    +0.000 C 
ATOM     33  C   UNL     1      -1.486   0.787  24.236  0.00  0.00    +0.000 C 
ENDBRANCH  30  31
BRANCH  11  10
ATOM     10  C   UNL     1       0.331   1.543  24.287  0.00  0.00    +0.121 C 
BRANCH  10   9
ATOM      6  N   UNL     1       2.238   1.523  23.224  0.00  0.00    -0.161 NA
ATOM      7  C   UNL     1       1.564   1.262  23.622  0.00  0.00    +0.344 C 
ATOM      8  O   UNL     1       1.450   0.454  23.754  0.00  0.00    -0.249 OA
ATOM      9  N   UNL     1       1.004   1.805  23.889  0.00  0.00    -0.187 NA
BRANCH   6   5
ATOM      3  C   UNL     1       4.147   0.512  22.918  0.00  0.00    +0.140 A 
ATOM      4  C   UNL     1       3.588   1.056  23.185  0.00  0.00    +0.054 A 
ATOM      5  C   UNL     1       2.797   0.980  22.958  0.00  0.00    +0.078 A 
ATOM     34  C   UNL     1       2.568   0.359  22.465  0.00  0.00    +0.017 A 
ATOM     35  C   UNL     1       3.128  -0.185  22.198  0.00  0.00    +0.004 A 
ATOM     36  C   UNL     1       3.918  -0.108  22.425  0.00  0.00    +0.037 A 
BRANCH   3   2
ATOM      1  C   UNL     1       5.310  -0.022  23.554  0.00  0.00    +0.252 C 
ATOM      2  O   UNL     1       4.937   0.588  23.144  0.00  0.00    -0.471 OA
ENDBRANCH   3   2
ENDBRANCH   6   5
ENDBRANCH  10   9
ENDBRANCH  11  10
BRANCH  15  16
ATOM     16  C   UNL     1      -1.624   3.709  25.830  0.00  0.00    +0.091 C 
BRANCH  16  17
ATOM     17  C   UNL     1      -2.318   3.969  25.466  0.00  0.00    +0.242 C 
ATOM     18  O   UNL     1      -2.292   4.593  24.927  0.00  0.00    -0.273 OA
ATOM     19  N   UNL     1      -3.036   3.605  25.643  0.00  0.00    -0.201 NA
BRANCH  19  20
ATOM     20  C   UNL     1      -3.731   3.866  25.280  0.00  0.00    +0.141 C 
BRANCH  20  21
ATOM     21  C   UNL     1      -4.378   3.359  25.218  0.00  0.00    -0.001 A 
ATOM     22  C   UNL     1      -4.497   2.923  24.527  0.00  0.00    -0.002 A 
ATOM     23  C   UNL     1      -5.144   2.416  24.466  0.00  0.00    +0.010 A 
ATOM     24  C   UNL     1      -5.673   2.345  25.094  0.00  0.00    +0.068 A 
ATOM     25  C   UNL     1      -5.556   2.780  25.784  0.00  0.00    +0.010 A 
ATOM     26  C   UNL     1      -4.907   3.287  25.846  0.00  0.00    -0.002 A 
BRANCH  24  27
ATOM     27  C   UNL     1      -6.322   1.837  25.032  0.00  0.00    +0.100 C 
ATOM     28  N   UNL     1      -6.969   1.330  24.970  0.00  0.00    -0.191 NA
ENDBRANCH  24  27
ENDBRANCH  20  21
ENDBRANCH  19  20
ENDBRANCH  16  17
ENDBRANCH  15  16
TORSDOF 10
ENDMDL
MODEL 6
REMARK VINA RESULT:      -7.5      2.563      4.726
REMARK  Name = 
REMARK  10 active torsions:
REMARK  status: ('A' for Active; 'I' for Inactive)
REMARK    1  A    between atoms: O_2  and  C_3
REMARK    2  A    between atoms: C_5  and  N_6
REMARK    3  A    between atoms: N_9  and  C_10
REMARK    4  A    between atoms: C_10  and  C_11
REMARK    5  A    between atoms: C_15  and  C_16
REMARK    6  A    between atoms: C_16  and  C_17
REMARK    7  A    between atoms: N_19  and  C_20
REMARK    8  A    between atoms: C_20  and  C_21
REMARK    9  A    between atoms: C_24  and  C_27
REMARK   10  A    between atoms: C_30  and  C_31
REMARK                            x       y       z     vdW  Elec       q    Type
REMARK                         _______ _______ _______ _____ _____    ______ ____
ROOT
ATOM     11  C   UNL     1      -0.372   1.107  24.919  0.00  0.00    +0.043 C 
ATOM     12  C   UNL     1      -0.354   1.326  25.713  0.00  0.00    -0.033 C 
ATOM     13  C   UNL     1      -0.302   2.123  25.921  0.00  0.00    -0.048 C 
ATOM     14  C   UNL     1      -0.284   2.342  26.717  0.00  0.00    +0.026 C 
ATOM     15  C   UNL     1      -0.269   2.700  25.334  0.00  0.00    +0.027 C 
ATOM     29  C   UNL     1      -0.286   2.482  24.538  0.00  0.00    +0.005 C 
ATOM     30  C   UNL     1      -0.338   1.685  24.331  0.00  0.00    +0.006 C 
ENDROOT
BRANCH  30  31
ATOM     31  C   UNL     1      -0.356   1.466  23.536  0.00  0.00    +0.000 C 
ATOM     32  C   UNL     1      -1.050   1.558  23.099  0.00  0.00    +0.000 C 
ATOM     33  C   UNL     1       0.319   1.157  23.178  0.00  0.00    +0.000 C 
ENDBRANCH  30  31
BRANCH  11  10
ATOM     10  C   UNL     1      -0.423   0.311  24.711  0.00  0.00    +0.121 C 
BRANCH  10   9
ATOM      6  N   UNL     1      -1.686  -1.350  25.356  0.00  0.00    -0.161 NA
ATOM      7  C   UNL     1      -1.282  -0.821  24.868  0.00  0.00    +0.344 C 
ATOM      8  O   UNL     1      -1.334  -0.895  24.047  0.00  0.00    -0.249 OA
ATOM      9  N   UNL     1      -0.827  -0.218  25.199  0.00  0.00    -0.187 NA
BRANCH   6   5
ATOM      3  C   UNL     1      -3.411  -2.453  24.598  0.00  0.00    +0.140 A 
ATOM      4  C   UNL     1      -2.956  -1.849  24.930  0.00  0.00    +0.054 A 
ATOM      5  C   UNL     1      -2.142  -1.952  25.024  0.00  0.00    +0.078 A 
ATOM     34  C   UNL     1      -1.785  -2.657  24.787  0.00  0.00    +0.017 A 
ATOM     35  C   UNL     1      -2.240  -3.259  24.456  0.00  0.00    +0.004 A 
ATOM     36  C   UNL     1      -3.054  -3.157  24.361  0.00  0.00    +0.037 A 
BRANCH   3   2
ATOM      1  C   UNL     1      -4.530  -2.135  23.768  0.00  0.00    +0.252 C 
ATOM      2  O   UNL     1      -4.224  -2.350  24.503  0.00  0.00    -0.471 OA
ENDBRANCH   3   2
ENDBRANCH   6   5
ENDBRANCH  10   9
ENDBRANCH  11  10
BRANCH  15  16
ATOM     16  C   UNL     1      -0.217   3.498  25.541  0.00  0.00    +0.091 C 
BRANCH  16  17
ATOM     17  C   UNL     1      -0.811   4.022  25.312  0.00  0.00    +0.242 C 
ATOM     18  O   UNL     1      -0.634   4.654  24.812  0.00  0.00    -0.273 OA
ATOM     19  N   UNL     1      -1.582   3.914  25.583  0.00  0.00    -0.201 NA
BRANCH  19  20
ATOM     20  C   UNL     1      -2.178   4.438  25.354  0.00  0.00    +0.141 C 
BRANCH  20  21
ATOM     21  C   UNL     1      -2.969   4.216  25.418  0.00  0.00    -0.001 A 
ATOM     22  C   UNL     1      -3.333   4.193  26.159  0.00  0.00    -0.002 A 
ATOM     23  C   UNL     1      -4.124   3.970  26.222  0.00  0.00    +0.010 A 
ATOM     24  C   UNL     1      -4.553   3.771  25.547  0.00  0.00    +0.068 A 
ATOM     25  C   UNL     1      -4.190   3.794  24.807  0.00  0.00    +0.010 A 
ATOM     26  C   UNL     1      -3.397   4.017  24.743  0.00  0.00    -0.002 A 
BRANCH  24  27
ATOM     27  C   UNL     1      -5.345   3.549  25.611  0.00  0.00    +0.100 C 
ATOM     28  N   UNL     1      -6.136   3.327  25.675  0.00  0.00    -0.191 NA
ENDBRANCH  24  27
ENDBRANCH  20  21
ENDBRANCH  19  20
ENDBRANCH  16  17
ENDBRANCH  15  16
TORSDOF 10
ENDMDL
