MODEL 1
REMARK VINA RESULT:     -12.8      0.000      0.000
REMARK  Name = 
REMARK  4 active torsions:
REMARK  status: ('A' for Active; 'I' for Inactive)
REMARK    1  A    between atoms: C_5  and  C_6
REMARK    2  A    between atoms: C_6  and  N_7
REMARK    3  A    between atoms: C_12  and  C_13
REMARK    4  A    between atoms: C_15  and  C_18
REMARK                            x       y       z     vdW  Elec       q    Type
REMARK                         _______ _______ _______ _____ _____    ______ ____
ROOT
ATOM      7  N   UNL     1      -4.188   2.583  25.112  0.00  0.00    -0.260 NA
ATOM      8  C   UNL     1      -4.520   3.272  25.423  0.00  0.00    +0.105 C 
ATOM      9  C   UNL     1      -5.335   3.317  25.548  0.00  0.00    +0.160 C 
ATOM     10  O   UNL     1      -5.817   2.674  25.362  0.00  0.00    -0.350 OA
ATOM     11  C   UNL     1      -5.485   1.986  25.052  0.00  0.00    +0.166 C 
ATOM     12  C   UNL     1      -4.671   1.940  24.927  0.00  0.00    +0.147 C 
ENDROOT
BRANCH  12  13
ATOM     13  C   UNL     1      -4.339   1.251  24.616  0.00  0.00    +0.156 A 
ATOM     14  N   UNL     1      -4.331   0.511  24.979  0.00  0.00    -0.228 NA
ATOM     15  C   UNL     1      -3.944  -0.016  24.475  0.00  0.00    +0.102 A 
ATOM     16  C   UNL     1      -3.713   0.400  23.801  0.00  0.00    +0.119 A 
ATOM     17  N   UNL     1      -3.957   1.183  23.888  0.00  0.00    -0.226 NA
BRANCH  15  18
ATOM     18  C   UNL     1      -3.812  -0.818  24.620  0.00  0.00    +0.021 A 
ATOM     19  C   UNL     1      -3.368  -1.049  25.276  0.00  0.00    +0.002 A 
ATOM     20  C   UNL     1      -3.235  -1.851  25.420  0.00  0.00    +0.002 A 
ATOM     21  C   UNL     1      -3.546  -2.419  24.910  0.00  0.00    +0.030 A 
ATOM     22  C   UNL     1      -3.990  -2.187  24.254  0.00  0.00    +0.140 A 
ATOM     23  F   UNL     1      -4.300  -2.755  23.744  0.00  0.00    -0.204 F 
ATOM     24  C   UNL     1      -4.122  -1.385  24.109  0.00  0.00    +0.031 A 
ENDBRANCH  15  18
ENDBRANCH  12  13
BRANCH   7   6
ATOM      6  C   UNL     1      -3.374   2.538  24.988  0.00  0.00    +0.100 C 
BRANCH   6   5
ATOM      1  F   UNL     1      -1.462   5.158  25.594  0.00  0.00    -0.204 F 
ATOM      2  C   UNL     1      -1.940   4.503  25.443  0.00  0.00    +0.140 A 
ATOM      3  C   UNL     1      -2.304   4.419  24.707  0.00  0.00    +0.029 A 
ATOM      4  C   UNL     1      -2.782   3.764  24.556  0.00  0.00    -0.001 A 
ATOM      5  C   UNL     1      -2.896   3.193  25.140  0.00  0.00    -0.006 A 
ATOM     25  C   UNL     1      -2.532   3.276  25.875  0.00  0.00    -0.001 A 
ATOM     26  C   UNL     1      -2.054   3.931  26.027  0.00  0.00    +0.029 A 
ENDBRANCH   6   5
ENDBRANCH   7   6
TORSDOF 4
ENDMDL
MODEL 2
REMARK VINA RESULT:     -12.8      0.869      4.678
REMARK  Name = 
REMARK  4 active torsions:
REMARK  status: ('A' for Active; 'I' for Inactive)
REMARK    1  A    between atoms: C_5  and  C_6
REMARK    2  A    between atoms: C_6  and  N_7
REMARK    3  A    between atoms: C_12  and  C_13
REMARK    4  A    between atoms: C_15  and  C_18
REMARK                            x       y       z     vdW  Elec       q    Type
REMARK                         _______ _______ _______ _____ _____    ______ ____
ROOT
ATOM      7  N   UNL     1      -4.582   1.273  24.934  0.00  0.00    -0.260 NA
ATOM      8  C   UNL     1      -5.235   0.857  25.219  0.00  0.00    +0.105 C 
ATOM      9  C   UNL     1      -5.907   1.266  25.472  0.00  0.00    +0.160 C 
ATOM     10  O   UNL     1      -5.924   2.090  25.439  0.00  0.00    -0.350 OA
ATOM     11  C   UNL     1      -5.271   2.506  25.155  0.00  0.00    +0.166 C 
ATOM     12  C   UNL     1      -4.600   2.098  24.902  0.00  0.00    +0.147 C 
ENDROOT
BRANCH  12  13
ATOM     13  C   UNL     1      -3.946   2.514  24.617  0.00  0.00    +0.156 A 
ATOM     14  N   UNL     1      -3.345   2.842  25.075  0.00  0.00    -0.228 NA
ATOM     15  C   UNL     1      -2.807   3.206  24.565  0.00  0.00    +0.102 A 
ATOM     16  C   UNL     1      -3.077   3.102  23.793  0.00  0.00    +0.119 A 
ATOM     17  N   UNL     1      -3.782   2.674  23.825  0.00  0.00    -0.226 NA
BRANCH  15  18
ATOM     18  C   UNL     1      -2.119   3.604  24.789  0.00  0.00    +0.021 A 
ATOM     19  C   UNL     1      -1.403   3.197  24.829  0.00  0.00    +0.002 A 
ATOM     20  C   UNL     1      -0.715   3.595  25.053  0.00  0.00    +0.002 A 
ATOM     21  C   UNL     1      -0.744   4.398  25.235  0.00  0.00    +0.030 A 
ATOM     22  C   UNL     1      -1.461   4.805  25.195  0.00  0.00    +0.140 A 
ATOM     23  F   UNL     1      -1.490   5.609  25.377  0.00  0.00    -0.204 F 
ATOM     24  C   UNL     1      -2.149   4.407  24.971  0.00  0.00    +0.031 A 
ENDBRANCH  15  18
ENDBRANCH  12  13
BRANCH   7   6
ATOM      6  C   UNL     1      -3.911   0.864  24.682  0.00  0.00    +0.100 C 
BRANCH   6   5
ATOM      1  F   UNL     1      -3.768  -2.419  24.979  0.00  0.00    -0.204 F 
ATOM      2  C   UNL     1      -3.803  -1.598  24.905  0.00  0.00    +0.140 A 
ATOM      3  C   UNL     1      -4.108  -1.259  24.217  0.00  0.00    +0.029 A 
ATOM      4  C   UNL     1      -4.143  -0.438  24.143  0.00  0.00    -0.001 A 
ATOM      5  C   UNL     1      -3.875   0.044  24.756  0.00  0.00    -0.006 A 
ATOM     25  C   UNL     1      -3.571  -0.295  25.444  0.00  0.00    -0.001 A 
ATOM     26  C   UNL     1      -3.535  -1.116  25.519  0.00  0.00    +0.029 A 
ENDBRANCH   6   5
ENDBRANCH   7   6
TORSDOF 4
ENDMDL
MODEL 3
REMARK VINA RESULT:     -12.2      2.019      4.897
REMARK  Name = 
REMARK  4 active torsions:
REMARK  status: ('A' for Active; 'I' for Inactive)
REMARK    1  A    between atoms: C_5  and  C_6
REMARK    2  A    between atoms: C_6  and  N_7
REMARK    3  A    between atoms: C_12  and  C_13
REMARK    4  A    between atoms: C_15  and  C_18
REMARK                            x       y       z     vdW  Elec       q    Type
REMARK                         _______ _______ _______ _____ _____    ______ ____
ROOT
ATOM      7  N   UNL     1      -2.192  -0.021  24.507  0.00  0.00    -0.260 NA
ATOM      8  C   UNL     1      -1.578  -0.557  24.635  0.00  0.00    +0.105 C 
ATOM      9  C   UNL     1      -0.794  -0.298  24.616  0.00  0.00    +0.160 C 
ATOM     10  O   UNL     1      -0.625   0.496  24.470  0.00  0.00    -0.350 OA
ATOM     11  C   UNL     1      -1.239   1.032  24.342  0.00  0.00    +0.166 C 
ATOM     12  C   UNL     1      -2.022   0.773  24.361  0.00  0.00    +0.147 C 
ENDROOT
BRANCH  12  13
ATOM     13  C   UNL     1      -2.637   1.310  24.233  0.00  0.00    +0.156 A 
ATOM     14  N   UNL     1      -3.112   1.649  24.814  0.00  0.00    -0.228 NA
ATOM     15  C   UNL     1      -3.653   2.149  24.442  0.00  0.00    +0.102 A 
ATOM     16  C   UNL     1      -3.510   2.118  23.630  0.00  0.00    +0.119 A 
ATOM     17  N   UNL     1      -2.882   1.599  23.500  0.00  0.00    -0.226 NA
BRANCH  15  18
ATOM     18  C   UNL     1      -4.234   2.601  24.816  0.00  0.00    +0.021 A 
ATOM     19  C   UNL     1      -4.072   3.380  25.034  0.00  0.00    +0.002 A 
ATOM     20  C   UNL     1      -4.653   3.831  25.408  0.00  0.00    +0.002 A 
ATOM     21  C   UNL     1      -5.394   3.505  25.563  0.00  0.00    +0.030 A 
ATOM     22  C   UNL     1      -5.555   2.725  25.344  0.00  0.00    +0.140 A 
ATOM     23  F   UNL     1      -6.296   2.399  25.498  0.00  0.00    -0.204 F 
ATOM     24  C   UNL     1      -4.974   2.274  24.970  0.00  0.00    +0.031 A 
ENDBRANCH  15  18
ENDBRANCH  12  13
BRANCH   7   6
ATOM      6  C   UNL     1      -2.975  -0.280  24.525  0.00  0.00    +0.100 C 
BRANCH   6   5
ATOM      1  F   UNL     1      -3.656  -3.437  25.198  0.00  0.00    -0.204 F 
ATOM      2  C   UNL     1      -3.486  -2.648  25.030  0.00  0.00    +0.140 A 
ATOM      3  C   UNL     1      -3.429  -2.396  24.246  0.00  0.00    +0.029 A 
ATOM      4  C   UNL     1      -3.259  -1.607  24.078  0.00  0.00    -0.001 A 
ATOM      5  C   UNL     1      -3.145  -1.069  24.694  0.00  0.00    -0.006 A 
ATOM     25  C   UNL     1      -3.202  -1.321  25.477  0.00  0.00    -0.001 A 
ATOM     26  C   UNL     1      -3.372  -2.110  25.646  0.00  0.00    +0.029 A 
ENDBRANCH   6   5
ENDBRANCH   7   6
TORSDOF 4
ENDMDL
MODEL 4
REMARK VINA RESULT:     -12.0      2.198      5.435
REMARK  Name = 
REMARK  4 active torsions:
REMARK  status: ('A' for Active; 'I' for Inactive)
REMARK    1  A    between atoms: C_5  and  C_6
REMARK    2  A    between atoms: C_6  and  N_7
REMARK    3  A    between atoms: C_12  and  C_13
REMARK    4  A    between atoms: C_15  and  C_18
REMARK                            x       y       z     vdW  Elec       q    Type
REMARK                         _______ _______ _______ _____ _____    ______ ____
ROOT
ATOM      7  N   UNL     1      -1.444  -0.042  24.411  0.00  0.00    -0.260 NA
ATOM      8  C   UNL     1      -1.055  -0.769  24.434  0.00  0.00    +0.105 C 
ATOM      9  C   UNL     1      -0.260  -0.819  24.216  0.00  0.00    +0.160 C 
ATOM     10  O   UNL     1       0.144  -0.142  23.975  0.00  0.00    -0.350 OA
ATOM     11  C   UNL     1      -0.244   0.585  23.951  0.00  0.00    +0.166 C 
ATOM     12  C   UNL     1      -1.038   0.635  24.169  0.00  0.00    +0.147 C 
ENDROOT
BRANCH  12  13
ATOM     13  C   UNL     1      -1.427   1.363  24.146  0.00  0.00    +0.156 A 
ATOM     14  N   UNL     1      -1.417   1.937  24.738  0.00  0.00    -0.228 NA
ATOM     15  C   UNL     1      -1.878   2.573  24.484  0.00  0.00    +0.102 A 
ATOM     16  C   UNL     1      -2.173   2.391  23.736  0.00  0.00    +0.119 A 
ATOM     17  N   UNL     1      -1.894   1.643  23.526  0.00  0.00    -0.226 NA
BRANCH  15  18
ATOM     18  C   UNL     1      -2.019   3.269  24.905  0.00  0.00    +0.021 A 
ATOM     19  C   UNL     1      -2.696   3.337  25.371  0.00  0.00    +0.002 A 
ATOM     20  C   UNL     1      -2.837   4.033  25.792  0.00  0.00    +0.002 A 
ATOM     21  C   UNL     1      -2.302   4.658  25.747  0.00  0.00    +0.030 A 
ATOM     22  C   UNL     1      -1.624   4.589  25.281  0.00  0.00    +0.140 A 
ATOM     23  F   UNL     1      -1.089   5.215  25.236  0.00  0.00    -0.204 F 
ATOM     24  C   UNL     1      -1.483   3.894  24.860  0.00  0.00    +0.031 A 
ENDBRANCH  15  18
ENDBRANCH  12  13
BRANCH   7   6
ATOM      6  C   UNL     1      -2.238   0.008  24.629  0.00  0.00    +0.100 C 
BRANCH   6   5
ATOM      1  F   UNL     1      -3.870  -2.705  25.557  0.00  0.00    -0.204 F 
ATOM      2  C   UNL     1      -3.462  -2.027  25.324  0.00  0.00    +0.140 A 
ATOM      3  C   UNL     1      -3.096  -1.552  25.892  0.00  0.00    +0.029 A 
ATOM      4  C   UNL     1      -2.688  -0.873  25.659  0.00  0.00    -0.001 A 
ATOM      5  C   UNL     1      -2.646  -0.670  24.861  0.00  0.00    -0.006 A 
ATOM     25  C   UNL     1      -3.012  -1.144  24.295  0.00  0.00    -0.001 A 
ATOM     26  C   UNL     1      -3.420  -1.823  24.526  0.00  0.00    +0.029 A 
ENDBRANCH   6   5
ENDBRANCH   7   6
TORSDOF 4
ENDMDL
MODEL 5
REMARK VINA RESULT:     -11.9      2.285      2.917
REMARK  Name = 
REMARK  4 active torsions:
REMARK  status: ('A' for Active; 'I' for Inactive)
REMARK    1  A    between atoms: C_5  and  C_6
REMARK    2  A    between atoms: C_6  and  N_7
REMARK    3  A    between atoms: C_12  and  C_13
REMARK    4  A    between atoms: C_15  and  C_18
REMARK                            x       y       z     vdW  Elec       q    Type
REMARK                         _______ _______ _______ _____ _____    ______ ____
ROOT
ATOM      7  N   UNL     1      -0.877   1.482  24.756  0.00  0.00    -0.260 NA
ATOM      8  C   UNL     1      -0.309   2.029  24.513  0.00  0.00    +0.105 C 
ATOM      9  C   UNL     1       0.363   1.773  24.106  0.00  0.00    +0.160 C 
ATOM     10  O   UNL     1       0.465   0.971  23.943  0.00  0.00    -0.350 OA
ATOM     11  C   UNL     1      -0.103   0.424  24.186  0.00  0.00    +0.166 C 
ATOM     12  C   UNL     1      -0.773   0.680  24.592  0.00  0.00    +0.147 C 
ENDROOT
BRANCH  12  13
ATOM     13  C   UNL     1      -1.342   0.132  24.835  0.00  0.00    +0.156 A 
ATOM     14  N   UNL     1      -1.924  -0.205  24.359  0.00  0.00    -0.228 NA
ATOM     15  C   UNL     1      -2.369  -0.719  24.827  0.00  0.00    +0.102 A 
ATOM     16  C   UNL     1      -2.061  -0.699  25.592  0.00  0.00    +0.119 A 
ATOM     17  N   UNL     1      -1.426  -0.172  25.597  0.00  0.00    -0.226 NA
BRANCH  15  18
ATOM     18  C   UNL     1      -3.010  -1.173  24.574  0.00  0.00    +0.021 A 
ATOM     19  C   UNL     1      -3.683  -0.804  24.272  0.00  0.00    +0.002 A 
ATOM     20  C   UNL     1      -4.324  -1.258  24.019  0.00  0.00    +0.002 A 
ATOM     21  C   UNL     1      -4.292  -2.080  24.068  0.00  0.00    +0.030 A 
ATOM     22  C   UNL     1      -3.618  -2.450  24.370  0.00  0.00    +0.140 A 
ATOM     23  F   UNL     1      -3.586  -3.272  24.419  0.00  0.00    -0.204 F 
ATOM     24  C   UNL     1      -2.977  -1.996  24.623  0.00  0.00    +0.031 A 
ENDBRANCH  15  18
ENDBRANCH  12  13
BRANCH   7   6
ATOM      6  C   UNL     1      -1.548   1.738  25.162  0.00  0.00    +0.100 C 
BRANCH   6   5
ATOM      1  F   UNL     1      -2.112   4.965  25.554  0.00  0.00    -0.204 F 
ATOM      2  C   UNL     1      -1.970   4.158  25.457  0.00  0.00    +0.140 A 
ATOM      3  C   UNL     1      -2.308   3.754  24.820  0.00  0.00    +0.029 A 
ATOM      4  C   UNL     1      -2.167   2.948  24.723  0.00  0.00    -0.001 A 
ATOM      5  C   UNL     1      -1.689   2.544  25.260  0.00  0.00    -0.006 A 
ATOM     25  C   UNL     1      -1.352   2.947  25.896  0.00  0.00    -0.001 A 
ATOM     26  C   UNL     1      -1.492   3.754  25.994  0.00  0.00    +0.029 A 
ENDBRANCH   6   5
ENDBRANCH   7   6
TORSDOF 4
ENDMDL
