MODEL 1
REMARK VINA RESULT:      -6.3      0.000      0.000
REMARK  Name = 
REMARK  3 active torsions:
REMARK  status: ('A' for Active; 'I' for Inactive)
REMARK    1  A    between atoms: O_2  and  C_3
REMARK    2  A    between atoms: C_7  and  N_11
REMARK    3  A    between atoms: N_11  and  S_12
REMARK                            x       y       z     vdW  Elec       q    Type
REMARK                         _______ _______ _______ _____ _____    ______ ____
ROOT
ATOM      3  C   UNL     1      -4.829   2.715  25.027  0.00  0.00    +0.174 C 
ATOM      4  C   UNL     1      -5.020   3.124  25.717  0.00  0.00    +0.174 C 
ATOM      5  O   UNL     1      -4.356   3.554  25.950  0.00  0.00    -0.349 OA
ATOM      6  C   UNL     1      -3.755   3.410  25.406  0.00  0.00    +0.165 C 
ATOM      7  C   UNL     1      -2.972   3.586  25.212  0.00  0.00    +0.156 C 
ATOM      8  C   UNL     1      -2.780   3.176  24.523  0.00  0.00    +0.164 C 
ATOM      9  O   UNL     1      -3.445   2.747  24.289  0.00  0.00    -0.350 OA
ATOM     10  C   UNL     1      -4.047   2.891  24.835  0.00  0.00    +0.173 C 
ENDROOT
BRANCH   3   2
ATOM      1  C   UNL     1      -6.021   1.928  24.956  0.00  0.00    +0.174 C 
ATOM      2  O   UNL     1      -5.332   2.215  24.604  0.00  0.00    -0.348 OA
ENDBRANCH   3   2
BRANCH   7  11
ATOM     11  N   UNL     1      -2.469   4.085  25.635  0.00  0.00    -0.078 NA
BRANCH  11  12
ATOM     12  S   UNL     1      -1.702   4.222  25.365  0.00  0.00    +0.059 S 
ATOM     13  C   UNL     1      -0.934   4.360  25.096  0.00  0.00    +0.197 C 
ATOM     14  O   UNL     1      -1.964   4.890  24.958  0.00  0.00    -0.156 OA
ATOM     15  O   UNL     1      -1.439   3.555  25.773  0.00  0.00    -0.156 OA
ENDBRANCH  11  12
ENDBRANCH   7  11
TORSDOF 3
ENDMDL
MODEL 2
REMARK VINA RESULT:      -6.2      1.474      3.297
REMARK  Name = 
REMARK  3 active torsions:
REMARK  status: ('A' for Active; 'I' for Inactive)
REMARK    1  A    between atoms: O_2  and  C_3
REMARK    2  A    between atoms: C_7  and  N_11
REMARK    3  A    between atoms: N_11  and  S_12
REMARK                            x       y       z     vdW  Elec       q    Type
REMARK                         _______ _______ _______ _____ _____    ______ ____
ROOT
ATOM      3  C   UNL     1      -2.427   4.152  25.197  0.00  0.00    +0.174 C 
ATOM      4  C   UNL     1      -2.507   4.221  26.014  0.00  0.00    +0.174 C 
ATOM      5  O   UNL     1      -3.199   3.831  26.236  0.00  0.00    -0.349 OA
ATOM      6  C   UNL     1      -3.547   3.521  25.556  0.00  0.00    +0.165 C 
ATOM      7  C   UNL     1      -4.189   3.089  25.271  0.00  0.00    +0.156 C 
ATOM      8  C   UNL     1      -4.109   3.020  24.453  0.00  0.00    +0.164 C 
ATOM      9  O   UNL     1      -3.417   3.410  24.231  0.00  0.00    -0.350 OA
ATOM     10  C   UNL     1      -3.069   3.720  24.913  0.00  0.00    +0.173 C 
ENDROOT
BRANCH   3   2
ATOM      1  C   UNL     1      -1.238   4.939  25.094  0.00  0.00    +0.174 C 
ATOM      2  O   UNL     1      -1.811   4.461  24.742  0.00  0.00    -0.348 OA
ENDBRANCH   3   2
BRANCH   7  11
ATOM     11  N   UNL     1      -4.805   2.780  25.725  0.00  0.00    -0.078 NA
BRANCH  11  12
ATOM     12  S   UNL     1      -5.411   2.354  25.363  0.00  0.00    +0.059 S 
ATOM     13  C   UNL     1      -6.018   1.929  25.001  0.00  0.00    +0.197 C 
ATOM     14  O   UNL     1      -5.850   3.048  25.282  0.00  0.00    -0.156 OA
ATOM     15  O   UNL     1      -4.973   1.660  25.444  0.00  0.00    -0.156 OA
ENDBRANCH  11  12
ENDBRANCH   7  11
TORSDOF 3
ENDMDL
MODEL 3
REMARK VINA RESULT:      -6.2      3.190      4.117
REMARK  Name = 
REMARK  3 active torsions:
REMARK  status: ('A' for Active; 'I' for Inactive)
REMARK    1  A    between atoms: O_2  and  C_3
REMARK    2  A    between atoms: C_7  and  N_11
REMARK    3  A    between atoms: N_11  and  S_12
REMARK                            x       y       z     vdW  Elec       q    Type
REMARK                         _______ _______ _______ _____ _____    ______ ____
ROOT
ATOM      3  C   UNL     1      -4.051   2.041  24.448  0.00  0.00    +0.174 C 
ATOM      4  C   UNL     1      -4.791   1.946  24.802  0.00  0.00    +0.174 C 
ATOM      5  O   UNL     1      -4.929   1.137  24.888  0.00  0.00    -0.349 OA
ATOM      6  C   UNL     1      -4.277   0.733  24.589  0.00  0.00    +0.165 C 
ATOM      7  C   UNL     1      -3.958  -0.017  24.456  0.00  0.00    +0.156 C 
ATOM      8  C   UNL     1      -3.219   0.078  24.103  0.00  0.00    +0.164 C 
ATOM      9  O   UNL     1      -3.080   0.887  24.016  0.00  0.00    -0.350 OA
ATOM     10  C   UNL     1      -3.734   1.291  24.316  0.00  0.00    +0.173 C 
ENDROOT
BRANCH   3   2
ATOM      1  C   UNL     1      -4.038   3.469  24.501  0.00  0.00    +0.174 C 
ATOM      2  O   UNL     1      -3.693   2.760  24.259  0.00  0.00    -0.348 OA
ENDBRANCH   3   2
BRANCH   7  11
ATOM     11  N   UNL     1      -4.316  -0.736  24.645  0.00  0.00    -0.078 NA
BRANCH  11  12
ATOM     12  S   UNL     1      -3.913  -1.444  24.518  0.00  0.00    +0.059 S 
ATOM     13  C   UNL     1      -3.509  -2.152  24.391  0.00  0.00    +0.197 C 
ATOM     14  O   UNL     1      -3.618  -1.414  25.288  0.00  0.00    -0.156 OA
ATOM     15  O   UNL     1      -4.208  -1.474  23.748  0.00  0.00    -0.156 OA
ENDBRANCH  11  12
ENDBRANCH   7  11
TORSDOF 3
ENDMDL
MODEL 4
REMARK VINA RESULT:      -6.0      2.683      3.325
REMARK  Name = 
REMARK  3 active torsions:
REMARK  status: ('A' for Active; 'I' for Inactive)
REMARK    1  A    between atoms: O_2  and  C_3
REMARK    2  A    between atoms: C_7  and  N_11
REMARK    3  A    between atoms: N_11  and  S_12
REMARK                            x       y       z     vdW  Elec       q    Type
REMARK                         _______ _______ _______ _____ _____    ______ ____
ROOT
ATOM      3  C   UNL     1      -3.559  -0.655  24.888  0.00  0.00    +0.174 C 
ATOM      4  C   UNL     1      -2.797  -0.554  24.592  0.00  0.00    +0.174 C 
ATOM      5  O   UNL     1      -2.689   0.249  24.436  0.00  0.00    -0.349 OA
ATOM      6  C   UNL     1      -3.384   0.644  24.636  0.00  0.00    +0.165 C 
ATOM      7  C   UNL     1      -3.749   1.383  24.664  0.00  0.00    +0.156 C 
ATOM      8  C   UNL     1      -4.512   1.282  24.960  0.00  0.00    +0.164 C 
ATOM      9  O   UNL     1      -4.619   0.479  25.115  0.00  0.00    -0.350 OA
ATOM     10  C   UNL     1      -3.923   0.085  24.915  0.00  0.00    +0.173 C 
ENDROOT
BRANCH   3   2
ATOM      1  C   UNL     1      -3.482  -2.076  25.019  0.00  0.00    +0.174 C 
ATOM      2  O   UNL     1      -3.900  -1.371  25.117  0.00  0.00    -0.348 OA
ENDBRANCH   3   2
BRANCH   7  11
ATOM     11  N   UNL     1      -3.408   2.100  24.435  0.00  0.00    -0.078 NA
BRANCH  11  12
ATOM     12  S   UNL     1      -3.814   2.807  24.558  0.00  0.00    +0.059 S 
ATOM     13  C   UNL     1      -4.220   3.515  24.681  0.00  0.00    +0.197 C 
ATOM     14  O   UNL     1      -3.464   2.879  25.301  0.00  0.00    -0.156 OA
ATOM     15  O   UNL     1      -4.165   2.735  23.815  0.00  0.00    -0.156 OA
ENDBRANCH  11  12
ENDBRANCH   7  11
TORSDOF 3
ENDMDL
