MODEL 1
REMARK VINA RESULT:     -12.5      0.000      0.000
REMARK  Name = 
REMARK  8 active torsions:
REMARK  status: ('A' for Active; 'I' for Inactive)
REMARK    1  A    between atoms: C_2  and  C_4
REMARK    2  A    between atoms: C_6  and  C_7
REMARK    3  A    between atoms: C_7  and  C_8
REMARK    4  A    between atoms: N_10  and  C_11
REMARK    5  A    between atoms: C_11  and  C_12
REMARK    6  A    between atoms: C_15  and  C_18
REMARK    7  A    between atoms: C_25  and  C_26
REMARK    8  A    between atoms: C_26  and  C_27
REMARK                            x       y       z     vdW  Elec       q    Type
REMARK                         _______ _______ _______ _____ _____    ______ ____
ROOT
ATOM      7  C   UNL     1      -3.920   2.250  24.310  0.00  0.00    +0.091 C 
ENDROOT
BRANCH   7   6
ATOM      4  C   UNL     1      -1.906   2.775  24.968  0.00  0.00    +0.005 C 
ATOM      5  C   UNL     1      -2.557   2.326  24.729  0.00  0.00    +0.005 C 
ATOM      6  C   UNL     1      -3.270   2.699  24.549  0.00  0.00    +0.027 C 
ATOM     22  C   UNL     1      -3.335   3.519  24.610  0.00  0.00    -0.048 C 
ATOM     23  C   UNL     1      -4.049   3.891  24.430  0.00  0.00    +0.026 C 
ATOM     24  C   UNL     1      -2.685   3.967  24.849  0.00  0.00    -0.034 C 
ATOM     25  C   UNL     1      -1.971   3.595  25.029  0.00  0.00    +0.037 C 
BRANCH   4   2
ATOM      1  C   UNL     1      -0.671   2.197  24.541  0.00  0.00    +0.000 C 
ATOM      2  C   UNL     1      -1.193   2.403  25.148  0.00  0.00    +0.000 C 
ATOM      3  C   UNL     1      -1.000   2.235  25.931  0.00  0.00    +0.000 C 
ENDBRANCH   4   2
BRANCH  25  26
ATOM     26  C   UNL     1      -1.321   4.043  25.268  0.00  0.00    +0.110 C 
BRANCH  26  27
ATOM     27  C   UNL     1      -1.320   4.860  25.155  0.00  0.00    +0.073 C 
ATOM     28  N   UNL     1      -1.318   5.678  25.042  0.00  0.00    -0.196 NA
ENDBRANCH  26  27
ENDBRANCH  25  26
ENDBRANCH   7   6
BRANCH   7   8
ATOM      8  C   UNL     1      -4.185   1.625  24.780  0.00  0.00    +0.242 C 
ATOM      9  O   UNL     1      -4.570   1.780  25.493  0.00  0.00    -0.273 OA
ATOM     10  N   UNL     1      -4.065   0.846  24.537  0.00  0.00    -0.201 NA
BRANCH  10  11
ATOM     11  C   UNL     1      -4.330   0.222  25.007  0.00  0.00    +0.141 C 
BRANCH  11  12
ATOM     12  C   UNL     1      -4.098  -0.550  24.835  0.00  0.00    -0.001 A 
ATOM     13  C   UNL     1      -4.327  -0.902  24.126  0.00  0.00    -0.003 A 
ATOM     14  C   UNL     1      -4.094  -1.676  23.954  0.00  0.00    +0.004 A 
ATOM     15  C   UNL     1      -3.631  -2.095  24.493  0.00  0.00    +0.071 A 
ATOM     16  C   UNL     1      -3.402  -1.744  25.202  0.00  0.00    +0.004 A 
ATOM     17  C   UNL     1      -3.635  -0.971  25.374  0.00  0.00    -0.003 A 
BRANCH  15  18
ATOM     18  C   UNL     1      -3.398  -2.869  24.321  0.00  0.00    +0.419 C 
ATOM     19  F   UNL     1      -3.165  -3.641  24.150  0.00  0.00    -0.166 F 
ATOM     20  F   UNL     1      -2.644  -2.598  24.126  0.00  0.00    -0.166 F 
ATOM     21  F   UNL     1      -4.153  -3.139  24.517  0.00  0.00    -0.166 F 
ENDBRANCH  15  18
ENDBRANCH  11  12
ENDBRANCH  10  11
ENDBRANCH   7   8
TORSDOF 8
ENDMDL
MODEL 2
REMARK VINA RESULT:     -12.0      3.269      5.911
REMARK  Name = 
REMARK  8 active torsions:
REMARK  status: ('A' for Active; 'I' for Inactive)
REMARK    1  A    between atoms: C_2  and  C_4
REMARK    2  A    between atoms: C_6  and  C_7
REMARK    3  A    between atoms: C_7  and  C_8
REMARK    4  A    between atoms: N_10  and  C_11
REMARK    5  A    between atoms: C_11  and  C_12
REMARK    6  A    between atoms: C_15  and  C_18
REMARK    7  A    between atoms: C_25  and  C_26
REMARK    8  A    between atoms: C_26  and  C_27
REMARK                            x       y       z     vdW  Elec       q    Type
REMARK                         _______ _______ _______ _____ _____    ______ ____
ROOT
ATOM      7  C   UNL     1      -1.026   0.084  24.736  0.00  0.00    +0.091 C 
ENDROOT
BRANCH   7   6
ATOM      4  C   UNL     1      -3.127  -0.508  24.686  0.00  0.00    +0.005 C 
ATOM      5  C   UNL     1      -2.449  -0.036  24.716  0.00  0.00    +0.005 C 
ATOM      6  C   UNL     1      -1.703  -0.387  24.706  0.00  0.00    +0.027 C 
ATOM     22  C   UNL     1      -1.633  -1.208  24.666  0.00  0.00    -0.048 C 
ATOM     23  C   UNL     1      -0.886  -1.558  24.655  0.00  0.00    +0.026 C 
ATOM     24  C   UNL     1      -2.309  -1.678  24.635  0.00  0.00    -0.034 C 
ATOM     25  C   UNL     1      -3.057  -1.329  24.646  0.00  0.00    +0.037 C 
BRANCH   4   2
ATOM      1  C   UNL     1      -4.210   0.116  23.994  0.00  0.00    +0.000 C 
ATOM      2  C   UNL     1      -3.873  -0.157  24.697  0.00  0.00    +0.000 C 
ATOM      3  C   UNL     1      -4.282  -0.078  25.408  0.00  0.00    +0.000 C 
ENDBRANCH   4   2
BRANCH  25  26
ATOM     26  C   UNL     1      -3.733  -1.799  24.616  0.00  0.00    +0.110 C 
BRANCH  26  27
ATOM     27  C   UNL     1      -3.666  -2.609  24.478  0.00  0.00    +0.073 C 
ATOM     28  N   UNL     1      -3.599  -3.420  24.341  0.00  0.00    -0.196 NA
ENDBRANCH  26  27
ENDBRANCH  25  26
ENDBRANCH   7   6
BRANCH   7   8
ATOM      8  C   UNL     1      -0.942   0.647  25.335  0.00  0.00    +0.242 C 
ATOM      9  O   UNL     1      -0.850   0.405  26.118  0.00  0.00    -0.273 OA
ATOM     10  N   UNL     1      -0.952   1.451  25.149  0.00  0.00    -0.201 NA
BRANCH  10  11
ATOM     11  C   UNL     1      -0.868   2.013  25.747  0.00  0.00    +0.141 C 
BRANCH  11  12
ATOM     12  C   UNL     1      -0.978   2.813  25.579  0.00  0.00    -0.001 A 
ATOM     13  C   UNL     1      -0.403   3.229  25.160  0.00  0.00    -0.003 A 
ATOM     14  C   UNL     1      -0.513   4.030  24.992  0.00  0.00    +0.004 A 
ATOM     15  C   UNL     1      -1.199   4.412  25.243  0.00  0.00    +0.071 A 
ATOM     16  C   UNL     1      -1.774   3.996  25.661  0.00  0.00    +0.004 A 
ATOM     17  C   UNL     1      -1.664   3.196  25.830  0.00  0.00    -0.003 A 
BRANCH  15  18
ATOM     18  C   UNL     1      -1.310   5.213  25.074  0.00  0.00    +0.419 C 
ATOM     19  F   UNL     1      -1.421   6.013  24.906  0.00  0.00    -0.166 F 
ATOM     20  F   UNL     1      -2.008   5.209  25.514  0.00  0.00    -0.166 F 
ATOM     21  F   UNL     1      -0.612   5.216  24.634  0.00  0.00    -0.166 F 
ENDBRANCH  15  18
ENDBRANCH  11  12
ENDBRANCH  10  11
ENDBRANCH   7   8
TORSDOF 8
ENDMDL
MODEL 3
REMARK VINA RESULT:     -11.9      1.196      2.121
REMARK  Name = 
REMARK  8 active torsions:
REMARK  status: ('A' for Active; 'I' for Inactive)
REMARK    1  A    between atoms: C_2  and  C_4
REMARK    2  A    between atoms: C_6  and  C_7
REMARK    3  A    between atoms: C_7  and  C_8
REMARK    4  A    between atoms: N_10  and  C_11
REMARK    5  A    between atoms: C_11  and  C_12
REMARK    6  A    between atoms: C_15  and  C_18
REMARK    7  A    between atoms: C_25  and  C_26
REMARK    8  A    between atoms: C_26  and  C_27
REMARK                            x       y       z     vdW  Elec       q    Type
REMARK                         _______ _______ _______ _____ _____    ______ ____
ROOT
ATOM      7  C   UNL     1      -0.929   1.291  24.921  0.00  0.00    +0.091 C 
ENDROOT
BRANCH   7   6
ATOM      4  C   UNL     1      -2.269   3.007  25.070  0.00  0.00    +0.005 C 
ATOM      5  C   UNL     1      -2.002   2.232  24.974  0.00  0.00    +0.005 C 
ATOM      6  C   UNL     1      -1.195   2.066  25.017  0.00  0.00    +0.027 C 
ATOM     22  C   UNL     1      -0.655   2.674  25.155  0.00  0.00    -0.048 C 
ATOM     23  C   UNL     1       0.151   2.508  25.197  0.00  0.00    +0.026 C 
ATOM     24  C   UNL     1      -0.922   3.448  25.250  0.00  0.00    -0.034 C 
ATOM     25  C   UNL     1      -1.729   3.615  25.208  0.00  0.00    +0.037 C 
BRANCH   4   2
ATOM      1  C   UNL     1      -3.513   3.273  25.720  0.00  0.00    +0.000 C 
ATOM      2  C   UNL     1      -3.076   3.173  25.027  0.00  0.00    +0.000 C 
ATOM      3  C   UNL     1      -3.445   3.239  24.293  0.00  0.00    +0.000 C 
ENDBRANCH   4   2
BRANCH  25  26
ATOM     26  C   UNL     1      -1.996   4.390  25.303  0.00  0.00    +0.110 C 
BRANCH  26  27
ATOM     27  C   UNL     1      -1.492   5.022  25.142  0.00  0.00    +0.073 C 
ATOM     28  N   UNL     1      -0.988   5.655  24.981  0.00  0.00    -0.196 NA
ENDBRANCH  26  27
ENDBRANCH  25  26
ENDBRANCH   7   6
BRANCH   7   8
ATOM      8  C   UNL     1      -1.269   0.681  25.361  0.00  0.00    +0.242 C 
ATOM      9  O   UNL     1      -1.139   0.638  26.175  0.00  0.00    -0.273 OA
ATOM     10  N   UNL     1      -1.739   0.115  24.988  0.00  0.00    -0.201 NA
BRANCH  10  11
ATOM     11  C   UNL     1      -2.078  -0.495  25.428  0.00  0.00    +0.141 C 
BRANCH  11  12
ATOM     12  C   UNL     1      -2.596  -1.025  25.066  0.00  0.00    -0.001 A 
ATOM     13  C   UNL     1      -2.304  -1.705  24.705  0.00  0.00    -0.003 A 
ATOM     14  C   UNL     1      -2.822  -2.236  24.343  0.00  0.00    +0.004 A 
ATOM     15  C   UNL     1      -3.633  -2.084  24.343  0.00  0.00    +0.071 A 
ATOM     16  C   UNL     1      -3.925  -1.404  24.704  0.00  0.00    +0.004 A 
ATOM     17  C   UNL     1      -3.407  -0.873  25.066  0.00  0.00    -0.003 A 
BRANCH  15  18
ATOM     18  C   UNL     1      -4.152  -2.615  23.981  0.00  0.00    +0.419 C 
ATOM     19  F   UNL     1      -4.670  -3.144  23.618  0.00  0.00    -0.166 F 
ATOM     20  F   UNL     1      -4.387  -2.024  23.455  0.00  0.00    -0.166 F 
ATOM     21  F   UNL     1      -3.915  -3.204  24.507  0.00  0.00    -0.166 F 
ENDBRANCH  15  18
ENDBRANCH  11  12
ENDBRANCH  10  11
ENDBRANCH   7   8
TORSDOF 8
ENDMDL
MODEL 4
REMARK VINA RESULT:     -11.7      2.965      5.461
REMARK  Name = 
REMARK  8 active torsions:
REMARK  status: ('A' for Active; 'I' for Inactive)
REMARK    1  A    between atoms: C_2  and  C_4
REMARK    2  A    between atoms: C_6  and  C_7
REMARK    3  A    between atoms: C_7  and  C_8
REMARK    4  A    between atoms: N_10  and  C_11
REMARK    5  A    between atoms: C_11  and  C_12
REMARK    6  A    between atoms: C_15  and  C_18
REMARK    7  A    between atoms: C_25  and  C_26
REMARK    8  A    between atoms: C_26  and  C_27
REMARK                            x       y       z     vdW  Elec       q    Type
REMARK                         _______ _______ _______ _____ _____    ______ ____
ROOT
ATOM      7  C   UNL     1      -4.035   1.015  24.327  0.00  0.00    +0.091 C 
ENDROOT
BRANCH   7   6
ATOM      4  C   UNL     1      -2.624  -0.537  24.928  0.00  0.00    +0.005 C 
ATOM      5  C   UNL     1      -2.939   0.206  24.753  0.00  0.00    +0.005 C 
ATOM      6  C   UNL     1      -3.722   0.273  24.501  0.00  0.00    +0.027 C 
ATOM     22  C   UNL     1      -4.190  -0.402  24.425  0.00  0.00    -0.048 C 
ATOM     23  C   UNL     1      -4.972  -0.335  24.174  0.00  0.00    +0.026 C 
ATOM     24  C   UNL     1      -3.876  -1.144  24.600  0.00  0.00    -0.034 C 
ATOM     25  C   UNL     1      -3.093  -1.212  24.851  0.00  0.00    +0.037 C 
BRANCH   4   2
ATOM      1  C   UNL     1      -1.232  -0.646  24.623  0.00  0.00    +0.000 C 
ATOM      2  C   UNL     1      -1.841  -0.604  25.179  0.00  0.00    +0.000 C 
ATOM      3  C   UNL     1      -1.667  -0.629  25.984  0.00  0.00    +0.000 C 
ENDBRANCH   4   2
BRANCH  25  26
ATOM     26  C   UNL     1      -2.778  -1.954  25.026  0.00  0.00    +0.110 C 
BRANCH  26  27
ATOM     27  C   UNL     1      -3.183  -2.637  24.801  0.00  0.00    +0.073 C 
ATOM     28  N   UNL     1      -3.587  -3.320  24.576  0.00  0.00    -0.196 NA
ENDBRANCH  26  27
ENDBRANCH  25  26
ENDBRANCH   7   6
BRANCH   7   8
ATOM      8  C   UNL     1      -3.981   1.626  24.880  0.00  0.00    +0.242 C 
ATOM      9  O   UNL     1      -4.459   1.617  25.553  0.00  0.00    -0.273 OA
ATOM     10  N   UNL     1      -3.449   2.246  24.759  0.00  0.00    -0.201 NA
BRANCH  10  11
ATOM     11  C   UNL     1      -3.396   2.856  25.312  0.00  0.00    +0.141 C 
BRANCH  11  12
ATOM     12  C   UNL     1      -2.803   3.424  25.240  0.00  0.00    -0.001 A 
ATOM     13  C   UNL     1      -2.886   4.043  24.702  0.00  0.00    -0.003 A 
ATOM     14  C   UNL     1      -2.292   4.612  24.631  0.00  0.00    +0.004 A 
ATOM     15  C   UNL     1      -1.615   4.561  25.099  0.00  0.00    +0.071 A 
ATOM     16  C   UNL     1      -1.531   3.942  25.637  0.00  0.00    +0.004 A 
ATOM     17  C   UNL     1      -2.124   3.373  25.708  0.00  0.00    -0.003 A 
BRANCH  15  18
ATOM     18  C   UNL     1      -1.021   5.130  25.028  0.00  0.00    +0.419 C 
ATOM     19  F   UNL     1      -0.428   5.698  24.957  0.00  0.00    -0.166 F 
ATOM     20  F   UNL     1      -1.496   5.675  25.424  0.00  0.00    -0.166 F 
ATOM     21  F   UNL     1      -0.546   4.583  24.631  0.00  0.00    -0.166 F 
ENDBRANCH  15  18
ENDBRANCH  11  12
ENDBRANCH  10  11
ENDBRANCH   7   8
TORSDOF 8
ENDMDL
