MODEL 1
REMARK VINA RESULT:     -11.2      0.000      0.000
REMARK  Name = 
REMARK  6 active torsions:
REMARK  status: ('A' for Active; 'I' for Inactive)
REMARK    1  A    between atoms: C_4  and  C_13
REMARK    2  A    between atoms: N_5  and  C_6
REMARK    3  A    between atoms: C_6  and  C_7
REMARK    4  A    between atoms: C_15  and  C_16
REMARK    5  A    between atoms: C_16  and  S_17
REMARK    6  A    between atoms: S_17  and  C_20
REMARK                            x       y       z     vdW  Elec       q    Type
REMARK                         _______ _______ _______ _____ _____    ______ ____
ROOT
ATOM     13  C   UNL     1      -1.747   1.569  24.849  0.00  0.00    +0.251 A 
ATOM     14  N   UNL     1      -2.460   1.294  25.162  0.00  0.00    -0.192 NA
ATOM     15  C   UNL     1      -2.851   0.874  24.569  0.00  0.00    +0.205 A 
ATOM     27  N   UNL     1      -2.382   0.888  23.892  0.00  0.00    -0.059 NA
ATOM     28  O   UNL     1      -1.699   1.318  24.064  0.00  0.00    -0.336 OA
ENDROOT
BRANCH  13   4
ATOM      1  O   UNL     1       0.498   2.312  26.535  0.00  0.00    -0.222 OA
ATOM      2  C   UNL     1      -0.149   2.357  26.026  0.00  0.00    +0.170 C 
ATOM      3  C   UNL     1      -0.588   1.718  25.740  0.00  0.00    +0.060 C 
ATOM      4  C   UNL     1      -1.182   2.015  25.251  0.00  0.00    +0.140 C 
ATOM      5  N   UNL     1      -1.111   2.837  25.233  0.00  0.00    -0.260 NA
ATOM     12  C   UNL     1      -0.473   3.048  25.712  0.00  0.00    +0.106 C 
BRANCH   5   6
ATOM      6  C   UNL     1      -1.593   3.356  24.811  0.00  0.00    +0.106 C 
BRANCH   6   7
ATOM      7  C   UNL     1      -1.522   4.171  24.926  0.00  0.00    +0.023 A 
ATOM      8  C   UNL     1      -0.915   4.650  24.639  0.00  0.00    +0.004 A 
ATOM      9  C   UNL     1      -1.064   5.424  24.883  0.00  0.00    +0.007 A 
ATOM     10  C   UNL     1      -1.763   5.423  25.320  0.00  0.00    +0.035 A 
ATOM     11  S   UNL     1      -2.047   4.648  25.347  0.00  0.00    -0.089 S 
ENDBRANCH   6   7
ENDBRANCH   5   6
ENDBRANCH  13   4
BRANCH  15  16
ATOM     16  C   UNL     1      -3.585   0.503  24.643  0.00  0.00    +0.224 C 
BRANCH  16  17
ATOM     17  S   UNL     1      -3.641  -0.318  24.585  0.00  0.00    +0.016 S 
ATOM     18  O   UNL     1      -3.730  -0.254  23.768  0.00  0.00    -0.168 OA
ATOM     19  O   UNL     1      -3.551  -0.381  25.403  0.00  0.00    -0.168 OA
BRANCH  17  20
ATOM     20  C   UNL     1      -3.697  -1.139  24.527  0.00  0.00    +0.106 A 
ATOM     21  C   UNL     1      -4.128  -1.479  23.912  0.00  0.00    +0.021 A 
ATOM     22  C   UNL     1      -4.184  -2.300  23.853  0.00  0.00    +0.031 A 
ATOM     23  C   UNL     1      -3.809  -2.780  24.410  0.00  0.00    +0.140 A 
ATOM     24  F   UNL     1      -3.865  -3.601  24.350  0.00  0.00    -0.204 F 
ATOM     25  C   UNL     1      -3.378  -2.440  25.024  0.00  0.00    +0.031 A 
ATOM     26  C   UNL     1      -3.321  -1.619  25.083  0.00  0.00    +0.021 A 
ENDBRANCH  17  20
ENDBRANCH  16  17
ENDBRANCH  15  16
TORSDOF 6
ENDMDL
MODEL 2
REMARK VINA RESULT:     -11.1      1.421      2.074
REMARK  Name = 
REMARK  6 active torsions:
REMARK  status: ('A' for Active; 'I' for Inactive)
REMARK    1  A    between atoms: C_4  and  C_13
REMARK    2  A    between atoms: N_5  and  C_6
REMARK    3  A    between atoms: C_6  and  C_7
REMARK    4  A    between atoms: C_15  and  C_16
REMARK    5  A    between atoms: C_16  and  S_17
REMARK    6  A    between atoms: S_17  and  C_20
REMARK                            x       y       z     vdW  Elec       q    Type
REMARK                         _______ _______ _______ _____ _____    ______ ____
ROOT
ATOM     13  C   UNL     1      -3.342   2.430  24.693  0.00  0.00    +0.251 A 
ATOM     14  N   UNL     1      -3.812   1.874  25.081  0.00  0.00    -0.192 NA
ATOM     15  C   UNL     1      -4.142   1.377  24.511  0.00  0.00    +0.205 A 
ATOM     27  N   UNL     1      -3.876   1.625  23.771  0.00  0.00    -0.059 NA
ATOM     28  O   UNL     1      -3.381   2.276  23.883  0.00  0.00    -0.336 OA
ENDROOT
BRANCH  13   4
ATOM      1  O   UNL     1      -2.602   4.994  25.839  0.00  0.00    -0.222 OA
ATOM      2  C   UNL     1      -2.568   4.212  25.578  0.00  0.00    +0.170 C 
ATOM      3  C   UNL     1      -3.183   3.792  25.222  0.00  0.00    +0.060 C 
ATOM      4  C   UNL     1      -2.908   3.033  25.051  0.00  0.00    +0.140 C 
ATOM      5  N   UNL     1      -2.123   2.984  25.300  0.00  0.00    -0.260 NA
ATOM     12  C   UNL     1      -1.913   3.713  25.626  0.00  0.00    +0.106 C 
BRANCH   5   6
ATOM      6  C   UNL     1      -1.634   2.323  25.236  0.00  0.00    +0.106 C 
BRANCH   6   7
ATOM      7  C   UNL     1      -0.851   2.361  25.494  0.00  0.00    +0.023 A 
ATOM      8  C   UNL     1      -0.598   2.343  26.279  0.00  0.00    +0.004 A 
ATOM      9  C   UNL     1       0.226   2.395  26.282  0.00  0.00    +0.007 A 
ATOM     10  C   UNL     1       0.481   2.446  25.500  0.00  0.00    +0.035 A 
ATOM     11  S   UNL     1      -0.184   2.425  25.012  0.00  0.00    -0.089 S 
ENDBRANCH   6   7
ENDBRANCH   5   6
ENDBRANCH  13   4
BRANCH  15  16
ATOM     16  C   UNL     1      -4.649   0.743  24.657  0.00  0.00    +0.224 C 
BRANCH  16  17
ATOM     17  S   UNL     1      -4.347  -0.022  24.719  0.00  0.00    +0.016 S 
ATOM     18  O   UNL     1      -4.411   0.020  25.540  0.00  0.00    -0.168 OA
ATOM     19  O   UNL     1      -4.283  -0.063  23.897  0.00  0.00    -0.168 OA
BRANCH  17  20
ATOM     20  C   UNL     1      -4.044  -0.787  24.782  0.00  0.00    +0.106 A 
ATOM     21  C   UNL     1      -4.166  -1.329  24.171  0.00  0.00    +0.021 A 
ATOM     22  C   UNL     1      -3.864  -2.094  24.234  0.00  0.00    +0.031 A 
ATOM     23  C   UNL     1      -3.440  -2.316  24.906  0.00  0.00    +0.140 A 
ATOM     24  F   UNL     1      -3.138  -3.082  24.968  0.00  0.00    -0.204 F 
ATOM     25  C   UNL     1      -3.319  -1.775  25.516  0.00  0.00    +0.031 A 
ATOM     26  C   UNL     1      -3.621  -1.010  25.454  0.00  0.00    +0.021 A 
ENDBRANCH  17  20
ENDBRANCH  16  17
ENDBRANCH  15  16
TORSDOF 6
ENDMDL
MODEL 3
REMARK VINA RESULT:     -11.1      2.570      5.156
REMARK  Name = 
REMARK  6 active torsions:
REMARK  status: ('A' for Active; 'I' for Inactive)
REMARK    1  A    between atoms: C_4  and  C_13
REMARK    2  A    between atoms: N_5  and  C_6
REMARK    3  A    between atoms: C_6  and  C_7
REMARK    4  A    between atoms: C_15  and  C_16
REMARK    5  A    between atoms: C_16  and  S_17
REMARK    6  A    between atoms: S_17  and  C_20
REMARK                            x       y       z     vdW  Elec       q    Type
REMARK                         _______ _______ _______ _____ _____    ______ ____
ROOT
ATOM     13  C   UNL     1      -4.213   0.197  24.753  0.00  0.00    +0.251 A 
ATOM     14  N   UNL     1      -4.089   0.888  24.320  0.00  0.00    -0.192 NA
ATOM     15  C   UNL     1      -4.459   1.508  24.720  0.00  0.00    +0.205 A 
ATOM     27  N   UNL     1      -4.811   1.201  25.399  0.00  0.00    -0.059 NA
ATOM     28  O   UNL     1      -4.659   0.391  25.420  0.00  0.00    -0.336 OA
ENDROOT
BRANCH  13   4
ATOM      1  O   UNL     1      -4.094  -2.514  23.717  0.00  0.00    -0.222 OA
ATOM      2  C   UNL     1      -3.885  -1.802  24.078  0.00  0.00    +0.170 C 
ATOM      3  C   UNL     1      -4.371  -1.140  24.162  0.00  0.00    +0.060 C 
ATOM      4  C   UNL     1      -3.940  -0.556  24.554  0.00  0.00    +0.140 C 
ATOM      5  N   UNL     1      -3.189  -0.856  24.713  0.00  0.00    -0.260 NA
ATOM     12  C   UNL     1      -3.155  -1.627  24.419  0.00  0.00    +0.106 C 
BRANCH   5   6
ATOM      6  C   UNL     1      -2.578  -0.458  25.099  0.00  0.00    +0.106 C 
BRANCH   6   7
ATOM      7  C   UNL     1      -1.810  -0.758  25.076  0.00  0.00    +0.023 A 
ATOM      8  C   UNL     1      -1.495  -1.325  25.585  0.00  0.00    +0.004 A 
ATOM      9  C   UNL     1      -0.712  -1.461  25.363  0.00  0.00    +0.007 A 
ATOM     10  C   UNL     1      -0.543  -0.977  24.717  0.00  0.00    +0.035 A 
ATOM     11  S   UNL     1      -1.221  -0.542  24.539  0.00  0.00    -0.089 S 
ENDBRANCH   6   7
ENDBRANCH   5   6
ENDBRANCH  13   4
BRANCH  15  16
ATOM     16  C   UNL     1      -4.473   2.298  24.481  0.00  0.00    +0.224 C 
BRANCH  16  17
ATOM     17  S   UNL     1      -3.880   2.815  24.729  0.00  0.00    +0.016 S 
ATOM     18  O   UNL     1      -3.490   2.712  24.009  0.00  0.00    -0.168 OA
ATOM     19  O   UNL     1      -4.270   2.918  25.448  0.00  0.00    -0.168 OA
BRANCH  17  20
ATOM     20  C   UNL     1      -3.286   3.332  24.976  0.00  0.00    +0.106 A 
ATOM     21  C   UNL     1      -3.410   3.818  25.631  0.00  0.00    +0.021 A 
ATOM     22  C   UNL     1      -2.816   4.334  25.878  0.00  0.00    +0.031 A 
ATOM     23  C   UNL     1      -2.100   4.366  25.470  0.00  0.00    +0.140 A 
ATOM     24  F   UNL     1      -1.507   4.883  25.718  0.00  0.00    -0.204 F 
ATOM     25  C   UNL     1      -1.976   3.880  24.816  0.00  0.00    +0.031 A 
ATOM     26  C   UNL     1      -2.570   3.363  24.568  0.00  0.00    +0.021 A 
ENDBRANCH  17  20
ENDBRANCH  16  17
ENDBRANCH  15  16
TORSDOF 6
ENDMDL
MODEL 4
REMARK VINA RESULT:     -11.1      1.674      2.103
REMARK  Name = 
REMARK  6 active torsions:
REMARK  status: ('A' for Active; 'I' for Inactive)
REMARK    1  A    between atoms: C_4  and  C_13
REMARK    2  A    between atoms: N_5  and  C_6
REMARK    3  A    between atoms: C_6  and  C_7
REMARK    4  A    between atoms: C_15  and  C_16
REMARK    5  A    between atoms: C_16  and  S_17
REMARK    6  A    between atoms: S_17  and  C_20
REMARK                            x       y       z     vdW  Elec       q    Type
REMARK                         _______ _______ _______ _____ _____    ______ ____
ROOT
ATOM     13  C   UNL     1      -1.142   1.868  24.700  0.00  0.00    +0.251 A 
ATOM     14  N   UNL     1      -1.113   1.267  25.265  0.00  0.00    -0.192 NA
ATOM     15  C   UNL     1      -0.934   0.562  24.876  0.00  0.00    +0.205 A 
ATOM     27  N   UNL     1      -0.852   0.726  24.072  0.00  0.00    -0.059 NA
ATOM     28  O   UNL     1      -0.980   1.533  23.963  0.00  0.00    -0.336 OA
ENDROOT
BRANCH  13   4
ATOM      1  O   UNL     1      -0.801   4.700  25.249  0.00  0.00    -0.222 OA
ATOM      2  C   UNL     1      -1.146   3.966  25.098  0.00  0.00    +0.170 C 
ATOM      3  C   UNL     1      -0.743   3.256  24.977  0.00  0.00    +0.060 C 
ATOM      4  C   UNL     1      -1.303   2.664  24.846  0.00  0.00    +0.140 C 
ATOM      5  N   UNL     1      -2.052   3.007  24.887  0.00  0.00    -0.260 NA
ATOM     12  C   UNL     1      -1.955   3.812  25.043  0.00  0.00    +0.106 C 
BRANCH   5   6
ATOM      6  C   UNL     1      -2.771   2.616  24.789  0.00  0.00    +0.106 C 
BRANCH   6   7
ATOM      7  C   UNL     1      -3.479   3.040  24.814  0.00  0.00    +0.023 A 
ATOM      8  C   UNL     1      -3.843   3.415  24.175  0.00  0.00    +0.004 A 
ATOM      9  C   UNL     1      -4.536   3.770  24.449  0.00  0.00    +0.007 A 
ATOM     10  C   UNL     1      -4.599   3.614  25.257  0.00  0.00    +0.035 A 
ATOM     11  S   UNL     1      -3.946   3.162  25.483  0.00  0.00    -0.089 S 
ENDBRANCH   6   7
ENDBRANCH   5   6
ENDBRANCH  13   4
BRANCH  15  16
ATOM     16  C   UNL     1      -0.852  -0.179  25.231  0.00  0.00    +0.224 C 
BRANCH  16  17
ATOM     17  S   UNL     1      -1.452  -0.741  25.157  0.00  0.00    +0.016 S 
ATOM     18  O   UNL     1      -1.729  -0.542  25.908  0.00  0.00    -0.168 OA
ATOM     19  O   UNL     1      -1.173  -0.939  24.406  0.00  0.00    -0.168 OA
BRANCH  17  20
ATOM     20  C   UNL     1      -2.052  -1.303  25.084  0.00  0.00    +0.106 A 
ATOM     21  C   UNL     1      -1.919  -1.991  24.649  0.00  0.00    +0.021 A 
ATOM     22  C   UNL     1      -2.519  -2.553  24.576  0.00  0.00    +0.031 A 
ATOM     23  C   UNL     1      -3.250  -2.426  24.937  0.00  0.00    +0.140 A 
ATOM     24  F   UNL     1      -3.849  -2.988  24.864  0.00  0.00    -0.204 F 
ATOM     25  C   UNL     1      -3.381  -1.738  25.372  0.00  0.00    +0.031 A 
ATOM     26  C   UNL     1      -2.782  -1.176  25.445  0.00  0.00    +0.021 A 
ENDBRANCH  17  20
ENDBRANCH  16  17
ENDBRANCH  15  16
TORSDOF 6
ENDMDL
MODEL 5
REMARK VINA RESULT:     -10.8      2.352      5.190
REMARK  Name = 
REMARK  6 active torsions:
REMARK  status: ('A' for Active; 'I' for Inactive)
REMARK    1  A    between atoms: C_4  and  C_13
REMARK    2  A    between atoms: N_5  and  C_6
REMARK    3  A    between atoms: C_6  and  C_7
REMARK    4  A    between atoms: C_15  and  C_16
REMARK    5  A    between atoms: C_16  and  S_17
REMARK    6  A    between atoms: S_17  and  C_20
REMARK                            x       y       z     vdW  Elec       q    Type
REMARK                         _______ _______ _______ _____ _____    ______ ____
ROOT
ATOM     13  C   UNL     1      -0.675   0.288  24.573  0.00  0.00    +0.251 A 
ATOM     14  N   UNL     1      -0.513   0.839  25.166  0.00  0.00    -0.192 NA
ATOM     15  C   UNL     1      -0.132   1.483  24.817  0.00  0.00    +0.205 A 
ATOM     27  N   UNL     1      -0.059   1.330  24.010  0.00  0.00    -0.059 NA
ATOM     28  O   UNL     1      -0.394   0.592  23.859  0.00  0.00    -0.336 OA
ENDROOT
BRANCH  13   4
ATOM      1  O   UNL     1      -1.144  -2.530  25.093  0.00  0.00    -0.222 OA
ATOM      2  C   UNL     1      -1.267  -1.734  24.915  0.00  0.00    +0.170 C 
ATOM      3  C   UNL     1      -0.684  -1.152  24.867  0.00  0.00    +0.060 C 
ATOM      4  C   UNL     1      -1.051  -0.438  24.676  0.00  0.00    +0.140 C 
ATOM      5  N   UNL     1      -1.861  -0.579  24.607  0.00  0.00    -0.260 NA
ATOM     12  C   UNL     1      -1.994  -1.380  24.754  0.00  0.00    +0.106 C 
BRANCH   5   6
ATOM      6  C   UNL     1      -2.437  -0.018  24.422  0.00  0.00    +0.106 C 
BRANCH   6   7
ATOM      7  C   UNL     1      -3.237  -0.213  24.478  0.00  0.00    +0.023 A 
ATOM      8  C   UNL     1      -3.679  -0.615  23.909  0.00  0.00    +0.004 A 
ATOM      9  C   UNL     1      -4.451  -0.691  24.193  0.00  0.00    +0.007 A 
ATOM     10  C   UNL     1      -4.485  -0.336  24.936  0.00  0.00    +0.035 A 
ATOM     11  S   UNL     1      -3.735  -0.040  25.113  0.00  0.00    -0.089 S 
ENDBRANCH   6   7
ENDBRANCH   5   6
ENDBRANCH  13   4
BRANCH  15  16
ATOM     16  C   UNL     1       0.130   2.160  25.209  0.00  0.00    +0.224 C 
BRANCH  16  17
ATOM     17  S   UNL     1      -0.353   2.828  25.246  0.00  0.00    +0.016 S 
ATOM     18  O   UNL     1      -0.537   2.651  26.030  0.00  0.00    -0.168 OA
ATOM     19  O   UNL     1      -0.168   3.006  24.461  0.00  0.00    -0.168 OA
BRANCH  17  20
ATOM     20  C   UNL     1      -0.836   3.496  25.284  0.00  0.00    +0.106 A 
ATOM     21  C   UNL     1      -0.585   4.205  24.944  0.00  0.00    +0.021 A 
ATOM     22  C   UNL     1      -1.068   4.872  24.982  0.00  0.00    +0.031 A 
ATOM     23  C   UNL     1      -1.800   4.831  25.359  0.00  0.00    +0.140 A 
ATOM     24  F   UNL     1      -2.283   5.500  25.397  0.00  0.00    -0.204 F 
ATOM     25  C   UNL     1      -2.050   4.123  25.699  0.00  0.00    +0.031 A 
ATOM     26  C   UNL     1      -1.568   3.455  25.661  0.00  0.00    +0.021 A 
ENDBRANCH  17  20
ENDBRANCH  16  17
ENDBRANCH  15  16
TORSDOF 6
ENDMDL
MODEL 6
REMARK VINA RESULT:     -10.7      2.098      2.907
REMARK  Name = 
REMARK  6 active torsions:
REMARK  status: ('A' for Active; 'I' for Inactive)
REMARK    1  A    between atoms: C_4  and  C_13
REMARK    2  A    between atoms: N_5  and  C_6
REMARK    3  A    between atoms: C_6  and  C_7
REMARK    4  A    between atoms: C_15  and  C_16
REMARK    5  A    between atoms: C_16  and  S_17
REMARK    6  A    between atoms: S_17  and  C_20
REMARK                            x       y       z     vdW  Elec       q    Type
REMARK                         _______ _______ _______ _____ _____    ______ ____
ROOT
ATOM     13  C   UNL     1      -4.418   1.400  24.815  0.00  0.00    +0.251 A 
ATOM     14  N   UNL     1      -4.272   0.743  25.293  0.00  0.00    -0.192 NA
ATOM     15  C   UNL     1      -4.117   0.100  24.800  0.00  0.00    +0.205 A 
ATOM     27  N   UNL     1      -4.168   0.358  24.018  0.00  0.00    -0.059 NA
ATOM     28  O   UNL     1      -4.354   1.161  24.028  0.00  0.00    -0.336 OA
ENDROOT
BRANCH  13   4
ATOM      1  O   UNL     1      -5.874   3.706  25.814  0.00  0.00    -0.222 OA
ATOM      2  C   UNL     1      -5.266   3.221  25.537  0.00  0.00    +0.170 C 
ATOM      3  C   UNL     1      -5.339   2.428  25.321  0.00  0.00    +0.060 C 
ATOM      4  C   UNL     1      -4.597   2.161  25.078  0.00  0.00    +0.140 C 
ATOM      5  N   UNL     1      -4.065   2.788  25.145  0.00  0.00    -0.260 NA
ATOM     12  C   UNL     1      -4.479   3.444  25.429  0.00  0.00    +0.106 C 
BRANCH   5   6
ATOM      6  C   UNL     1      -3.262   2.765  24.961  0.00  0.00    +0.106 C 
BRANCH   6   7
ATOM      7  C   UNL     1      -2.769   3.390  25.181  0.00  0.00    +0.023 A 
ATOM      8  C   UNL     1      -2.401   3.483  25.913  0.00  0.00    +0.004 A 
ATOM      9  C   UNL     1      -1.963   4.183  25.891  0.00  0.00    +0.007 A 
ATOM     10  C   UNL     1      -2.062   4.521  25.145  0.00  0.00    +0.035 A 
ATOM     11  S   UNL     1      -2.560   4.032  24.706  0.00  0.00    -0.089 S 
ENDBRANCH   6   7
ENDBRANCH   5   6
ENDBRANCH  13   4
BRANCH  15  16
ATOM     16  C   UNL     1      -3.943  -0.668  25.047  0.00  0.00    +0.224 C 
BRANCH  16  17
ATOM     17  S   UNL     1      -3.158  -0.914  25.107  0.00  0.00    +0.016 S 
ATOM     18  O   UNL     1      -3.181  -0.787  25.922  0.00  0.00    -0.168 OA
ATOM     19  O   UNL     1      -3.135  -1.041  24.292  0.00  0.00    -0.168 OA
BRANCH  17  20
ATOM     20  C   UNL     1      -2.373  -1.160  25.168  0.00  0.00    +0.106 A 
ATOM     21  C   UNL     1      -2.124  -1.842  24.777  0.00  0.00    +0.021 A 
ATOM     22  C   UNL     1      -1.338  -2.088  24.838  0.00  0.00    +0.031 A 
ATOM     23  C   UNL     1      -0.803  -1.652  25.290  0.00  0.00    +0.140 A 
ATOM     24  F   UNL     1      -0.018  -1.899  25.351  0.00  0.00    -0.204 F 
ATOM     25  C   UNL     1      -1.052  -0.971  25.681  0.00  0.00    +0.031 A 
ATOM     26  C   UNL     1      -1.837  -0.724  25.620  0.00  0.00    +0.021 A 
ENDBRANCH  17  20
ENDBRANCH  16  17
ENDBRANCH  15  16
TORSDOF 6
ENDMDL
MODEL 7
REMARK VINA RESULT:     -10.6      2.422      4.008
REMARK  Name = 
REMARK  6 active torsions:
REMARK  status: ('A' for Active; 'I' for Inactive)
REMARK    1  A    between atoms: C_4  and  C_13
REMARK    2  A    between atoms: N_5  and  C_6
REMARK    3  A    between atoms: C_6  and  C_7
REMARK    4  A    between atoms: C_15  and  C_16
REMARK    5  A    between atoms: C_16  and  S_17
REMARK    6  A    between atoms: S_17  and  C_20
REMARK                            x       y       z     vdW  Elec       q    Type
REMARK                         _______ _______ _______ _____ _____    ______ ____
ROOT
ATOM     13  C   UNL     1      -1.313   2.747  25.174  0.00  0.00    +0.251 A 
ATOM     14  N   UNL     1      -1.974   2.980  24.740  0.00  0.00    -0.192 NA
ATOM     15  C   UNL     1      -2.426   3.481  25.215  0.00  0.00    +0.205 A 
ATOM     27  N   UNL     1      -2.044   3.557  25.942  0.00  0.00    -0.059 NA
ATOM     28  O   UNL     1      -1.356   3.104  25.917  0.00  0.00    -0.336 OA
ENDROOT
BRANCH  13   4
ATOM      1  O   UNL     1       1.154   1.775  23.988  0.00  0.00    -0.222 OA
ATOM      2  C   UNL     1       0.421   1.798  24.367  0.00  0.00    +0.170 C 
ATOM      3  C   UNL     1      -0.020   2.477  24.528  0.00  0.00    +0.060 C 
ATOM      4  C   UNL     1      -0.713   2.245  24.912  0.00  0.00    +0.140 C 
ATOM      5  N   UNL     1      -0.700   1.423  24.988  0.00  0.00    -0.260 NA
ATOM     12  C   UNL     1       0.001   1.147  24.650  0.00  0.00    +0.106 C 
BRANCH   5   6
ATOM      6  C   UNL     1      -1.285   0.959  25.338  0.00  0.00    +0.106 C 
BRANCH   6   7
ATOM      7  C   UNL     1      -1.300   0.145  25.206  0.00  0.00    +0.023 A 
ATOM      8  C   UNL     1      -1.635  -0.235  24.555  0.00  0.00    +0.004 A 
ATOM      9  C   UNL     1      -1.525  -1.048  24.649  0.00  0.00    +0.007 A 
ATOM     10  C   UNL     1      -1.122  -1.169  25.358  0.00  0.00    +0.035 A 
ATOM     11  S   UNL     1      -0.983  -0.433  25.703  0.00  0.00    -0.089 S 
ENDBRANCH   6   7
ENDBRANCH   5   6
ENDBRANCH  13   4
BRANCH  15  16
ATOM     16  C   UNL     1      -3.136   3.842  25.000  0.00  0.00    +0.224 C 
BRANCH  16  17
ATOM     17  S   UNL     1      -3.845   3.421  25.047  0.00  0.00    +0.016 S 
ATOM     18  O   UNL     1      -3.805   3.266  24.237  0.00  0.00    -0.168 OA
ATOM     19  O   UNL     1      -3.883   3.577  25.856  0.00  0.00    -0.168 OA
BRANCH  17  20
ATOM     20  C   UNL     1      -4.553   3.000  25.093  0.00  0.00    +0.106 A 
ATOM     21  C   UNL     1      -5.141   3.242  25.618  0.00  0.00    +0.021 A 
ATOM     22  C   UNL     1      -5.849   2.821  25.664  0.00  0.00    +0.031 A 
ATOM     23  C   UNL     1      -5.968   2.159  25.186  0.00  0.00    +0.140 A 
ATOM     24  F   UNL     1      -6.677   1.739  25.232  0.00  0.00    -0.204 F 
ATOM     25  C   UNL     1      -5.380   1.918  24.661  0.00  0.00    +0.031 A 
ATOM     26  C   UNL     1      -4.671   2.339  24.614  0.00  0.00    +0.021 A 
ENDBRANCH  17  20
ENDBRANCH  16  17
ENDBRANCH  15  16
TORSDOF 6
ENDMDL
