MODEL 1
REMARK VINA RESULT:      -9.5      0.000      0.000
REMARK  Name = 
REMARK  9 active torsions:
REMARK  status: ('A' for Active; 'I' for Inactive)
REMARK    1  A    between atoms: O_2  and  C_3
REMARK    2  A    between atoms: C_6  and  C_7
REMARK    3  A    between atoms: C_7  and  N_8
REMARK    4  A    between atoms: N_8  and  C_9
REMARK    5  A    between atoms: C_9  and  C_10
REMARK    6  A    between atoms: C_17  and  C_18
REMARK    7  A    between atoms: C_20  and  C_24
REMARK    8  A    between atoms: C_27  and  O_28
REMARK    9  A    between atoms: C_30  and  O_31
REMARK                            x       y       z     vdW  Elec       q    Type
REMARK                         _______ _______ _______ _____ _____    ______ ____
ROOT
ATOM     10  C   UNL     1       0.538   0.391  23.393  0.00  0.00    +0.075 C 
ATOM     11  C   UNL     1       0.211   0.972  23.794  0.00  0.00    +0.018 C 
ATOM     12  C   UNL     1      -0.515   0.948  24.152  0.00  0.00    +0.010 C 
ATOM     13  C   UNL     1      -0.709   1.721  24.563  0.00  0.00    +0.018 C 
ATOM     14  C   UNL     1      -0.344   1.310  24.211  0.00  0.00    +0.072 C 
ATOM     15  N   UNL     1      -0.201   0.374  23.761  0.00  0.00    -0.272 NA
ATOM     16  C   UNL     1      -0.838  -0.276  23.822  0.00  0.00    +0.078 C 
ATOM     17  C   UNL     1      -1.123   0.318  24.207  0.00  0.00    +0.056 C 
ENDROOT
BRANCH  17  18
ATOM     18  C   UNL     1      -1.851   0.360  24.594  0.00  0.00    +0.058 A 
ATOM     19  C   UNL     1      -2.466   0.880  24.415  0.00  0.00    +0.035 A 
ATOM     20  C   UNL     1      -3.086   0.730  24.937  0.00  0.00    +0.102 A 
ATOM     21  N   UNL     1      -2.855   0.117  25.439  0.00  0.00    -0.170 NA
ATOM     22  N   UNL     1      -2.091  -0.112  25.227  0.00  0.00    -0.253 N 
ATOM     23  C   UNL     1      -1.646  -0.708  25.584  0.00  0.00    +0.153 C 
BRANCH  20  24
ATOM     24  C   UNL     1      -3.811   1.124  24.956  0.00  0.00    +0.023 A 
ATOM     25  C   UNL     1      -4.512   0.702  24.848  0.00  0.00    +0.005 A 
ATOM     26  C   UNL     1      -5.237   1.095  24.867  0.00  0.00    +0.040 A 
ATOM     27  C   UNL     1      -5.261   1.911  24.992  0.00  0.00    +0.172 A 
ATOM     30  C   UNL     1      -4.560   2.332  25.099  0.00  0.00    +0.172 A 
ATOM     33  C   UNL     1      -3.835   1.939  25.081  0.00  0.00    +0.042 A 
BRANCH  27  28
ATOM     28  O   UNL     1      -5.987   2.303  25.010  0.00  0.00    -0.468 OA
ATOM     29  C   UNL     1      -6.687   1.880  24.908  0.00  0.00    +0.253 C 
ENDBRANCH  27  28
BRANCH  30  31
ATOM     31  O   UNL     1      -4.584   3.147  25.225  0.00  0.00    -0.468 OA
ATOM     32  C   UNL     1      -3.939   3.531  25.565  0.00  0.00    +0.253 C 
ENDBRANCH  30  31
ENDBRANCH  20  24
ENDBRANCH  17  18
BRANCH  10   9
ATOM      9  C   UNL     1       1.145   0.054  22.948  0.00  0.00    +0.105 C 
BRANCH   9   8
ATOM      8  N   UNL     1       1.908   0.365  22.990  0.00  0.00    -0.212 NA
BRANCH   8   7
ATOM      7  C   UNL     1       2.510   0.043  22.527  0.00  0.00    +0.115 C 
BRANCH   7   6
ATOM      3  C   UNL     1       4.870   0.273  23.234  0.00  0.00    +0.139 A 
ATOM      4  C   UNL     1       4.458  -0.424  23.394  0.00  0.00    +0.037 A 
ATOM      5  C   UNL     1       3.671  -0.500  23.159  0.00  0.00    +0.000 A 
ATOM      6  C   UNL     1       3.297   0.119  22.762  0.00  0.00    -0.005 A 
ATOM     34  C   UNL     1       3.710   0.815  22.602  0.00  0.00    +0.000 A 
ATOM     35  C   UNL     1       4.496   0.892  22.838  0.00  0.00    +0.037 A 
BRANCH   3   2
ATOM      1  C   UNL     1       5.899   0.050  24.200  0.00  0.00    +0.252 C 
ATOM      2  O   UNL     1       5.658   0.349  23.470  0.00  0.00    -0.471 OA
ENDBRANCH   3   2
ENDBRANCH   7   6
ENDBRANCH   8   7
ENDBRANCH   9   8
ENDBRANCH  10   9
TORSDOF 9
ENDMDL
MODEL 2
REMARK VINA RESULT:      -5.7     15.907     17.223
REMARK  Name = 
REMARK  9 active torsions:
REMARK  status: ('A' for Active; 'I' for Inactive)
REMARK    1  A    between atoms: O_2  and  C_3
REMARK    2  A    between atoms: C_6  and  C_7
REMARK    3  A    between atoms: C_7  and  N_8
REMARK    4  A    between atoms: N_8  and  C_9
REMARK    5  A    between atoms: C_9  and  C_10
REMARK    6  A    between atoms: C_17  and  C_18
REMARK    7  A    between atoms: C_20  and  C_24
REMARK    8  A    between atoms: C_27  and  O_28
REMARK    9  A    between atoms: C_30  and  O_31
REMARK                            x       y       z     vdW  Elec       q    Type
REMARK                         _______ _______ _______ _____ _____    ______ ____
ROOT
ATOM     10  C   UNL     1      -5.233 -10.308  14.765  0.00  0.00    +0.075 C 
ATOM     11  C   UNL     1      -5.799  -9.988  14.338  0.00  0.00    +0.018 C 
ATOM     12  C   UNL     1      -5.806  -9.933  13.530  0.00  0.00    +0.010 C 
ATOM     13  C   UNL     1      -6.548  -9.530  13.229  0.00  0.00    +0.018 C 
ATOM     14  C   UNL     1      -6.142  -9.768  13.682  0.00  0.00    +0.072 C 
ATOM     15  N   UNL     1      -5.247 -10.248  13.942  0.00  0.00    -0.272 NA
ATOM     16  C   UNL     1      -4.656 -10.515  13.301  0.00  0.00    +0.078 C 
ATOM     17  C   UNL     1      -5.232 -10.192  12.918  0.00  0.00    +0.056 C 
ENDROOT
BRANCH  17  18
ATOM     18  C   UNL     1      -5.301 -10.104  12.100  0.00  0.00    +0.058 A 
ATOM     19  C   UNL     1      -6.000 -10.150  11.665  0.00  0.00    +0.035 A 
ATOM     20  C   UNL     1      -5.815 -10.030  10.871  0.00  0.00    +0.102 A 
ATOM     21  N   UNL     1      -5.001  -9.909  10.814  0.00  0.00    -0.170 NA
ATOM     22  N   UNL     1      -4.683  -9.955  11.575  0.00  0.00    -0.253 N 
ATOM     23  C   UNL     1      -3.887  -9.868  11.774  0.00  0.00    +0.153 C 
BRANCH  20  24
ATOM     24  C   UNL     1      -6.349 -10.030  10.243  0.00  0.00    +0.023 A 
ATOM     25  C   UNL     1      -6.602 -10.745   9.916  0.00  0.00    +0.005 A 
ATOM     26  C   UNL     1      -7.136 -10.745   9.287  0.00  0.00    +0.040 A 
ATOM     27  C   UNL     1      -7.418 -10.031   8.984  0.00  0.00    +0.172 A 
ATOM     30  C   UNL     1      -7.165  -9.316   9.311  0.00  0.00    +0.172 A 
ATOM     33  C   UNL     1      -6.631  -9.316   9.940  0.00  0.00    +0.042 A 
BRANCH  27  28
ATOM     28  O   UNL     1      -7.952 -10.032   8.356  0.00  0.00    -0.468 OA
ATOM     29  C   UNL     1      -8.340 -10.729   8.145  0.00  0.00    +0.253 C 
ENDBRANCH  27  28
BRANCH  30  31
ATOM     31  O   UNL     1      -7.447  -8.602   9.009  0.00  0.00    -0.468 OA
ATOM     32  C   UNL     1      -6.938  -7.958   8.932  0.00  0.00    +0.253 C 
ENDBRANCH  30  31
ENDBRANCH  20  24
ENDBRANCH  17  18
BRANCH  10   9
ATOM      9  C   UNL     1      -4.888 -10.532  15.480  0.00  0.00    +0.105 C 
BRANCH   9   8
ATOM      8  N   UNL     1      -5.320 -10.478  16.181  0.00  0.00    -0.212 NA
BRANCH   8   7
ATOM      7  C   UNL     1      -4.930 -10.494  16.908  0.00  0.00    +0.115 C 
BRANCH   7   6
ATOM      3  C   UNL     1      -6.232 -10.596  19.009  0.00  0.00    +0.139 A 
ATOM      4  C   UNL     1      -5.428 -10.781  19.014  0.00  0.00    +0.037 A 
ATOM      5  C   UNL     1      -4.994 -10.746  18.313  0.00  0.00    +0.000 A 
ATOM      6  C   UNL     1      -5.364 -10.528  17.608  0.00  0.00    -0.005 A 
ATOM     34  C   UNL     1      -6.168 -10.344  17.605  0.00  0.00    +0.000 A 
ATOM     35  C   UNL     1      -6.602 -10.378  18.305  0.00  0.00    +0.037 A 
BRANCH   3   2
ATOM      1  C   UNL     1      -7.478 -10.778  19.685  0.00  0.00    +0.252 C 
ATOM      2  O   UNL     1      -6.666 -10.631  19.710  0.00  0.00    -0.471 OA
ENDBRANCH   3   2
ENDBRANCH   7   6
ENDBRANCH   8   7
ENDBRANCH   9   8
ENDBRANCH  10   9
TORSDOF 9
ENDMDL
MODEL 3
REMARK VINA RESULT:      -5.7     16.734     18.221
REMARK  Name = 
REMARK  9 active torsions:
REMARK  status: ('A' for Active; 'I' for Inactive)
REMARK    1  A    between atoms: O_2  and  C_3
REMARK    2  A    between atoms: C_6  and  C_7
REMARK    3  A    between atoms: C_7  and  N_8
REMARK    4  A    between atoms: N_8  and  C_9
REMARK    5  A    between atoms: C_9  and  C_10
REMARK    6  A    between atoms: C_17  and  C_18
REMARK    7  A    between atoms: C_20  and  C_24
REMARK    8  A    between atoms: C_27  and  O_28
REMARK    9  A    between atoms: C_30  and  O_31
REMARK                            x       y       z     vdW  Elec       q    Type
REMARK                         _______ _______ _______ _____ _____    ______ ____
ROOT
ATOM     10  C   UNL     1      -6.341  -8.465   9.267  0.00  0.00    +0.075 C 
ATOM     11  C   UNL     1      -5.752  -8.243   9.724  0.00  0.00    +0.018 C 
ATOM     12  C   UNL     1      -5.431  -8.680  10.325  0.00  0.00    +0.010 C 
ATOM     13  C   UNL     1      -4.760  -8.246  10.732  0.00  0.00    +0.018 C 
ATOM     14  C   UNL     1      -5.240  -8.325  10.295  0.00  0.00    +0.072 C 
ATOM     15  N   UNL     1      -6.009  -8.905   9.881  0.00  0.00    -0.272 NA
ATOM     16  C   UNL     1      -6.199  -9.734  10.211  0.00  0.00    +0.078 C 
ATOM     17  C   UNL     1      -5.619  -9.479  10.637  0.00  0.00    +0.056 C 
ENDROOT
BRANCH  17  18
ATOM     18  C   UNL     1      -5.248  -9.871  11.262  0.00  0.00    +0.058 A 
ATOM     19  C   UNL     1      -5.376  -9.734  12.064  0.00  0.00    +0.035 A 
ATOM     20  C   UNL     1      -4.891 -10.247  12.491  0.00  0.00    +0.102 A 
ATOM     21  N   UNL     1      -4.464 -10.702  11.951  0.00  0.00    -0.170 NA
ATOM     22  N   UNL     1      -4.685 -10.469  11.191  0.00  0.00    -0.253 N 
ATOM     23  C   UNL     1      -4.393 -10.780  10.484  0.00  0.00    +0.153 C 
BRANCH  20  24
ATOM     24  C   UNL     1      -4.841 -10.297  13.313  0.00  0.00    +0.023 A 
ATOM     25  C   UNL     1      -5.503 -10.130  13.777  0.00  0.00    +0.005 A 
ATOM     26  C   UNL     1      -5.454 -10.181  14.599  0.00  0.00    +0.040 A 
ATOM     27  C   UNL     1      -4.743 -10.398  14.957  0.00  0.00    +0.172 A 
ATOM     30  C   UNL     1      -4.081 -10.564  14.493  0.00  0.00    +0.172 A 
ATOM     33  C   UNL     1      -4.131 -10.514  13.671  0.00  0.00    +0.042 A 
BRANCH  27  28
ATOM     28  O   UNL     1      -4.694 -10.448  15.779  0.00  0.00    -0.468 OA
ATOM     29  C   UNL     1      -5.254 -10.065  16.250  0.00  0.00    +0.253 C 
ENDBRANCH  27  28
BRANCH  30  31
ATOM     31  O   UNL     1      -3.370 -10.781  14.851  0.00  0.00    -0.468 OA
ATOM     32  C   UNL     1      -2.660 -10.694  14.443  0.00  0.00    +0.253 C 
ENDBRANCH  30  31
ENDBRANCH  20  24
ENDBRANCH  17  18
BRANCH  10   9
ATOM      9  C   UNL     1      -6.878  -8.352   8.651  0.00  0.00    +0.105 C 
BRANCH   9   8
ATOM      8  N   UNL     1      -7.561  -7.907   8.776  0.00  0.00    -0.212 NA
BRANCH   8   7
ATOM      7  C   UNL     1      -7.784  -7.331   8.229  0.00  0.00    +0.115 C 
BRANCH   7   6
ATOM      3  C   UNL     1      -9.808  -5.964   8.628  0.00  0.00    +0.139 A 
ATOM      4  C   UNL     1      -9.124  -5.611   8.331  0.00  0.00    +0.037 A 
ATOM      5  C   UNL     1      -8.449  -6.067   8.198  0.00  0.00    +0.000 A 
ATOM      6  C   UNL     1      -8.459  -6.876   8.362  0.00  0.00    -0.005 A 
ATOM     34  C   UNL     1      -9.142  -7.228   8.659  0.00  0.00    +0.000 A 
ATOM     35  C   UNL     1      -9.817  -6.772   8.792  0.00  0.00    +0.037 A 
BRANCH   3   2
ATOM      1  C   UNL     1     -10.409  -4.742   9.061  0.00  0.00    +0.252 C 
ATOM      2  O   UNL     1     -10.482  -5.508   8.761  0.00  0.00    -0.471 OA
ENDBRANCH   3   2
ENDBRANCH   7   6
ENDBRANCH   8   7
ENDBRANCH   9   8
ENDBRANCH  10   9
TORSDOF 9
ENDMDL
