MODEL 1
REMARK VINA RESULT:     -14.3      0.000      0.000
REMARK  Name = 
REMARK  3 active torsions:
REMARK  status: ('A' for Active; 'I' for Inactive)
REMARK    1  A    between atoms: C_5  and  C_9
REMARK    2  A    between atoms: C_12  and  C_14
REMARK    3  A    between atoms: N_22  and  C_23
REMARK                            x       y       z     vdW  Elec       q    Type
REMARK                         _______ _______ _______ _____ _____    ______ ____
ROOT
ATOM     14  C   UNL     1      -3.842   2.002  24.550  0.00  0.00    +0.162 C 
ATOM     15  C   UNL     1      -4.110   2.767  24.704  0.00  0.00    +0.077 C 
ATOM     16  C   UNL     1      -4.811   2.882  25.123  0.00  0.00    +0.078 A 
ATOM     17  C   UNL     1      -5.244   2.232  25.389  0.00  0.00    +0.094 A 
ATOM     18  C   UNL     1      -4.976   1.467  25.235  0.00  0.00    +0.143 C 
ATOM     19  N   UNL     1      -4.275   1.352  24.816  0.00  0.00    -0.249 N 
ATOM     20  C   UNL     1      -4.008   0.587  24.662  0.00  0.00    +0.328 C 
ATOM     21  O   UNL     1      -3.306   0.472  24.242  0.00  0.00    -0.250 OA
ATOM     22  N   UNL     1      -4.441  -0.063  24.928  0.00  0.00    -0.162 NA
ATOM     30  N   UNL     1      -5.910   2.514  25.785  0.00  0.00    -0.225 NA
ATOM     31  C   UNL     1      -5.889   3.338  25.765  0.00  0.00    +0.198 A 
ATOM     32  N   UNL     1      -5.210   3.565  25.356  0.00  0.00    -0.227 NA
ENDROOT
BRANCH  22  23
ATOM     23  C   UNL     1      -4.172  -0.828  24.774  0.00  0.00    +0.075 A 
ATOM     24  C   UNL     1      -3.682  -1.209  25.317  0.00  0.00    +0.018 A 
ATOM     25  C   UNL     1      -3.413  -1.974  25.164  0.00  0.00    +0.013 A 
ATOM     26  C   UNL     1      -3.634  -2.357  24.466  0.00  0.00    +0.058 A 
ATOM     27 CL   UNL     1      -3.365  -3.122  24.313  0.00  0.00    -0.082 Cl
ATOM     28  C   UNL     1      -4.124  -1.975  23.923  0.00  0.00    +0.013 A 
ATOM     29  C   UNL     1      -4.393  -1.210  24.078  0.00  0.00    +0.018 A 
ENDBRANCH  22  23
BRANCH  14  12
ATOM      9  C   UNL     1      -1.847   1.756  23.833  0.00  0.00    +0.203 A 
ATOM     10  N   UNL     1      -2.278   1.664  23.137  0.00  0.00    -0.056 NA
ATOM     11  O   UNL     1      -3.078   1.745  23.321  0.00  0.00    -0.335 OA
ATOM     12  C   UNL     1      -3.142   1.887  24.131  0.00  0.00    +0.255 A 
ATOM     13  N   UNL     1      -2.380   1.894  24.449  0.00  0.00    -0.189 NA
BRANCH   9   5
ATOM      1  F   UNL     1       1.438   1.603  24.118  0.00  0.00    -0.203 F 
ATOM      2  C   UNL     1       0.617   1.641  24.047  0.00  0.00    +0.151 A 
ATOM      3  C   UNL     1       0.213   2.321  24.283  0.00  0.00    +0.031 A 
ATOM      4  C   UNL     1      -0.607   2.359  24.212  0.00  0.00    +0.006 A 
ATOM      5  C   UNL     1      -1.025   1.717  23.904  0.00  0.00    +0.040 A 
ATOM      6  C   UNL     1      -0.622   1.038  23.668  0.00  0.00    +0.017 A 
ATOM      7  C   UNL     1       0.199   0.999  23.739  0.00  0.00    +0.085 A 
ATOM      8 CL   UNL     1       0.602   0.320  23.503  0.00  0.00    -0.080 Cl
ENDBRANCH   9   5
ENDBRANCH  14  12
TORSDOF 3
ENDMDL
MODEL 2
REMARK VINA RESULT:     -14.2      1.561      3.961
REMARK  Name = 
REMARK  3 active torsions:
REMARK  status: ('A' for Active; 'I' for Inactive)
REMARK    1  A    between atoms: C_5  and  C_9
REMARK    2  A    between atoms: C_12  and  C_14
REMARK    3  A    between atoms: N_22  and  C_23
REMARK                            x       y       z     vdW  Elec       q    Type
REMARK                         _______ _______ _______ _____ _____    ______ ____
ROOT
ATOM     14  C   UNL     1      -4.197   1.839  24.804  0.00  0.00    +0.162 C 
ATOM     15  C   UNL     1      -4.987   2.033  24.942  0.00  0.00    +0.077 C 
ATOM     16  C   UNL     1      -5.182   2.775  25.246  0.00  0.00    +0.078 A 
ATOM     17  C   UNL     1      -4.588   3.322  25.412  0.00  0.00    +0.094 A 
ATOM     18  C   UNL     1      -3.797   3.128  25.273  0.00  0.00    +0.143 C 
ATOM     19  N   UNL     1      -3.603   2.386  24.969  0.00  0.00    -0.249 N 
ATOM     20  C   UNL     1      -2.813   2.193  24.831  0.00  0.00    +0.328 C 
ATOM     21  O   UNL     1      -2.618   1.450  24.527  0.00  0.00    -0.250 OA
ATOM     22  N   UNL     1      -2.219   2.740  24.997  0.00  0.00    -0.162 NA
ATOM     30  N   UNL     1      -4.945   4.005  25.706  0.00  0.00    -0.225 NA
ATOM     31  C   UNL     1      -5.760   3.880  25.722  0.00  0.00    +0.198 A 
ATOM     32  N   UNL     1      -5.906   3.120  25.438  0.00  0.00    -0.227 NA
ENDROOT
BRANCH  22  23
ATOM     23  C   UNL     1      -1.429   2.545  24.858  0.00  0.00    +0.075 A 
ATOM     24  C   UNL     1      -1.077   2.741  24.138  0.00  0.00    +0.018 A 
ATOM     25  C   UNL     1      -0.287   2.547  23.998  0.00  0.00    +0.013 A 
ATOM     26  C   UNL     1       0.150   2.156  24.579  0.00  0.00    +0.058 A 
ATOM     27 CL   UNL     1       0.940   1.962  24.439  0.00  0.00    -0.082 Cl
ATOM     28  C   UNL     1      -0.202   1.960  25.299  0.00  0.00    +0.013 A 
ATOM     29  C   UNL     1      -0.992   2.155  25.438  0.00  0.00    +0.018 A 
ENDBRANCH  22  23
BRANCH  14  12
ATOM      9  C   UNL     1      -3.783  -0.215  24.397  0.00  0.00    +0.203 A 
ATOM     10  N   UNL     1      -3.620   0.128  23.665  0.00  0.00    -0.056 NA
ATOM     11  O   UNL     1      -3.756   0.939  23.729  0.00  0.00    -0.335 OA
ATOM     12  C   UNL     1      -4.002   1.098  24.500  0.00  0.00    +0.255 A 
ATOM     13  N   UNL     1      -4.019   0.384  24.914  0.00  0.00    -0.189 NA
BRANCH   9   5
ATOM      1  F   UNL     1      -3.532  -3.421  25.139  0.00  0.00    -0.203 F 
ATOM      2  C   UNL     1      -3.595  -2.620  24.953  0.00  0.00    +0.151 A 
ATOM      3  C   UNL     1      -3.298  -2.052  25.473  0.00  0.00    +0.031 A 
ATOM      4  C   UNL     1      -3.361  -1.251  25.287  0.00  0.00    +0.006 A 
ATOM      5  C   UNL     1      -3.720  -1.017  24.582  0.00  0.00    +0.040 A 
ATOM      6  C   UNL     1      -4.017  -1.585  24.063  0.00  0.00    +0.017 A 
ATOM      7  C   UNL     1      -3.954  -2.387  24.248  0.00  0.00    +0.085 A 
ATOM      8 CL   UNL     1      -4.251  -2.954  23.729  0.00  0.00    -0.080 Cl
ENDBRANCH   9   5
ENDBRANCH  14  12
TORSDOF 3
ENDMDL
MODEL 3
REMARK VINA RESULT:     -13.5      2.332      4.801
REMARK  Name = 
REMARK  3 active torsions:
REMARK  status: ('A' for Active; 'I' for Inactive)
REMARK    1  A    between atoms: C_5  and  C_9
REMARK    2  A    between atoms: C_12  and  C_14
REMARK    3  A    between atoms: N_22  and  C_23
REMARK                            x       y       z     vdW  Elec       q    Type
REMARK                         _______ _______ _______ _____ _____    ______ ____
ROOT
ATOM     14  C   UNL     1      -3.381  -0.448  24.376  0.00  0.00    +0.162 C 
ATOM     15  C   UNL     1      -3.848  -1.117  24.257  0.00  0.00    +0.077 C 
ATOM     16  C   UNL     1      -3.526  -1.870  24.364  0.00  0.00    +0.078 A 
ATOM     17  C   UNL     1      -2.737  -1.952  24.591  0.00  0.00    +0.094 A 
ATOM     18  C   UNL     1      -2.270  -1.282  24.712  0.00  0.00    +0.143 C 
ATOM     19  N   UNL     1      -2.593  -0.530  24.604  0.00  0.00    -0.249 N 
ATOM     20  C   UNL     1      -2.126   0.139  24.724  0.00  0.00    +0.328 C 
ATOM     21  O   UNL     1      -2.448   0.891  24.617  0.00  0.00    -0.250 OA
ATOM     22  N   UNL     1      -1.337   0.056  24.952  0.00  0.00    -0.162 NA
ATOM     30  N   UNL     1      -2.573  -2.757  24.655  0.00  0.00    -0.225 NA
ATOM     31  C   UNL     1      -3.260  -3.173  24.467  0.00  0.00    +0.198 A 
ATOM     32  N   UNL     1      -3.848  -2.624  24.287  0.00  0.00    -0.227 NA
ENDROOT
BRANCH  22  23
ATOM     23  C   UNL     1      -0.871   0.727  25.072  0.00  0.00    +0.075 A 
ATOM     24  C   UNL     1      -0.881   1.110  25.802  0.00  0.00    +0.018 A 
ATOM     25  C   UNL     1      -0.416   1.780  25.923  0.00  0.00    +0.013 A 
ATOM     26  C   UNL     1       0.061   2.067  25.313  0.00  0.00    +0.058 A 
ATOM     27 CL   UNL     1       0.527   2.737  25.434  0.00  0.00    -0.082 Cl
ATOM     28  C   UNL     1       0.072   1.683  24.583  0.00  0.00    +0.013 A 
ATOM     29  C   UNL     1      -0.394   1.013  24.463  0.00  0.00    +0.018 A 
ENDBRANCH  22  23
BRANCH  14  12
ATOM      9  C   UNL     1      -4.359   1.446  24.483  0.00  0.00    +0.203 A 
ATOM     10  N   UNL     1      -4.038   1.476  23.724  0.00  0.00    -0.056 NA
ATOM     11  O   UNL     1      -3.632   0.769  23.592  0.00  0.00    -0.335 OA
ATOM     12  C   UNL     1      -3.703   0.303  24.269  0.00  0.00    +0.255 A 
ATOM     13  N   UNL     1      -4.153   0.722  24.820  0.00  0.00    -0.189 NA
BRANCH   9   5
ATOM      1  F   UNL     1      -6.159   3.808  25.922  0.00  0.00    -0.203 F 
ATOM      2  C   UNL     1      -5.709   3.218  25.562  0.00  0.00    +0.151 A 
ATOM      3  C   UNL     1      -6.047   2.483  25.399  0.00  0.00    +0.031 A 
ATOM      4  C   UNL     1      -5.598   1.893  25.039  0.00  0.00    +0.006 A 
ATOM      5  C   UNL     1      -4.809   2.038  24.843  0.00  0.00    +0.040 A 
ATOM      6  C   UNL     1      -4.471   2.772  25.006  0.00  0.00    +0.017 A 
ATOM      7  C   UNL     1      -4.921   3.363  25.366  0.00  0.00    +0.085 A 
ATOM      8 CL   UNL     1      -4.583   4.097  25.529  0.00  0.00    -0.080 Cl
ENDBRANCH   9   5
ENDBRANCH  14  12
TORSDOF 3
ENDMDL
MODEL 4
REMARK VINA RESULT:     -13.5      2.247      4.825
REMARK  Name = 
REMARK  3 active torsions:
REMARK  status: ('A' for Active; 'I' for Inactive)
REMARK    1  A    between atoms: C_5  and  C_9
REMARK    2  A    between atoms: C_12  and  C_14
REMARK    3  A    between atoms: N_22  and  C_23
REMARK                            x       y       z     vdW  Elec       q    Type
REMARK                         _______ _______ _______ _____ _____    ______ ____
ROOT
ATOM     14  C   UNL     1      -1.392   0.981  24.706  0.00  0.00    +0.162 C 
ATOM     15  C   UNL     1      -0.621   0.746  24.531  0.00  0.00    +0.077 C 
ATOM     16  C   UNL     1      -0.054   1.309  24.325  0.00  0.00    +0.078 A 
ATOM     17  C   UNL     1      -0.259   2.108  24.294  0.00  0.00    +0.094 A 
ATOM     18  C   UNL     1      -1.030   2.344  24.470  0.00  0.00    +0.143 C 
ATOM     19  N   UNL     1      -1.596   1.780  24.676  0.00  0.00    -0.249 N 
ATOM     20  C   UNL     1      -2.367   2.016  24.851  0.00  0.00    +0.328 C 
ATOM     21  O   UNL     1      -2.934   1.452  25.058  0.00  0.00    -0.250 OA
ATOM     22  N   UNL     1      -2.571   2.815  24.821  0.00  0.00    -0.162 NA
ATOM     30  N   UNL     1       0.412   2.535  24.076  0.00  0.00    -0.225 NA
ATOM     31  C   UNL     1       1.031   2.000  23.971  0.00  0.00    +0.198 A 
ATOM     32  N   UNL     1       0.743   1.243  24.125  0.00  0.00    -0.227 NA
ENDROOT
BRANCH  22  23
ATOM     23  C   UNL     1      -3.343   3.050  24.997  0.00  0.00    +0.075 A 
ATOM     24  C   UNL     1      -3.518   3.364  25.739  0.00  0.00    +0.018 A 
ATOM     25  C   UNL     1      -4.289   3.600  25.916  0.00  0.00    +0.013 A 
ATOM     26  C   UNL     1      -4.884   3.520  25.350  0.00  0.00    +0.058 A 
ATOM     27 CL   UNL     1      -5.655   3.755  25.527  0.00  0.00    -0.082 Cl
ATOM     28  C   UNL     1      -4.709   3.205  24.608  0.00  0.00    +0.013 A 
ATOM     29  C   UNL     1      -3.937   2.970  24.432  0.00  0.00    +0.018 A 
ENDBRANCH  22  23
BRANCH  14  12
ATOM      9  C   UNL     1      -2.837  -0.584  24.840  0.00  0.00    +0.203 A 
ATOM     10  N   UNL     1      -2.824  -0.312  25.619  0.00  0.00    -0.056 NA
ATOM     11  O   UNL     1      -2.281   0.307  25.663  0.00  0.00    -0.335 OA
ATOM     12  C   UNL     1      -1.958   0.419  24.912  0.00  0.00    +0.255 A 
ATOM     13  N   UNL     1      -2.302  -0.133  24.403  0.00  0.00    -0.189 NA
BRANCH   9   5
ATOM      1  F   UNL     1      -4.701  -3.044  23.673  0.00  0.00    -0.203 F 
ATOM      2  C   UNL     1      -4.235  -2.429  23.964  0.00  0.00    +0.151 A 
ATOM      3  C   UNL     1      -4.419  -1.647  23.776  0.00  0.00    +0.031 A 
ATOM      4  C   UNL     1      -3.953  -1.032  24.068  0.00  0.00    +0.006 A 
ATOM      5  C   UNL     1      -3.303  -1.200  24.549  0.00  0.00    +0.040 A 
ATOM      6  C   UNL     1      -3.119  -1.981  24.737  0.00  0.00    +0.017 A 
ATOM      7  C   UNL     1      -3.585  -2.597  24.445  0.00  0.00    +0.085 A 
ATOM      8 CL   UNL     1      -3.402  -3.378  24.633  0.00  0.00    -0.080 Cl
ENDBRANCH   9   5
ENDBRANCH  14  12
TORSDOF 3
ENDMDL
MODEL 5
REMARK VINA RESULT:     -12.8      2.790      4.490
REMARK  Name = 
REMARK  3 active torsions:
REMARK  status: ('A' for Active; 'I' for Inactive)
REMARK    1  A    between atoms: C_5  and  C_9
REMARK    2  A    between atoms: C_12  and  C_14
REMARK    3  A    between atoms: N_22  and  C_23
REMARK                            x       y       z     vdW  Elec       q    Type
REMARK                         _______ _______ _______ _____ _____    ______ ____
ROOT
ATOM     14  C   UNL     1       0.281   1.152  24.205  0.00  0.00    +0.162 C 
ATOM     15  C   UNL     1       1.012   1.267  23.841  0.00  0.00    +0.077 C 
ATOM     16  C   UNL     1       1.311   0.696  23.325  0.00  0.00    +0.078 A 
ATOM     17  C   UNL     1       0.878   0.011  23.173  0.00  0.00    +0.094 A 
ATOM     18  C   UNL     1       0.145  -0.104  23.537  0.00  0.00    +0.143 C 
ATOM     19  N   UNL     1      -0.152   0.467  24.052  0.00  0.00    -0.249 N 
ATOM     20  C   UNL     1      -0.884   0.352  24.416  0.00  0.00    +0.328 C 
ATOM     21  O   UNL     1      -1.182   0.923  24.932  0.00  0.00    -0.250 OA
ATOM     22  N   UNL     1      -1.317  -0.333  24.263  0.00  0.00    -0.162 NA
ATOM     30  N   UNL     1       1.309  -0.451  22.644  0.00  0.00    -0.225 NA
ATOM     31  C   UNL     1       2.009  -0.052  22.469  0.00  0.00    +0.198 A 
ATOM     32  N   UNL     1       2.010   0.657  22.890  0.00  0.00    -0.227 NA
ENDROOT
BRANCH  22  23
ATOM     23  C   UNL     1      -2.049  -0.447  24.627  0.00  0.00    +0.075 A 
ATOM     24  C   UNL     1      -2.097  -0.877  25.330  0.00  0.00    +0.018 A 
ATOM     25  C   UNL     1      -2.828  -0.992  25.695  0.00  0.00    +0.013 A 
ATOM     26  C   UNL     1      -3.512  -0.676  25.356  0.00  0.00    +0.058 A 
ATOM     27 CL   UNL     1      -4.243  -0.791  25.721  0.00  0.00    -0.082 Cl
ATOM     28  C   UNL     1      -3.464  -0.247  24.653  0.00  0.00    +0.013 A 
ATOM     29  C   UNL     1      -2.732  -0.133  24.289  0.00  0.00    +0.018 A 
ENDBRANCH  22  23
BRANCH  14  12
ATOM      9  C   UNL     1      -0.587   2.834  25.192  0.00  0.00    +0.203 A 
ATOM     10  N   UNL     1      -0.367   2.368  25.836  0.00  0.00    -0.056 NA
ATOM     11  O   UNL     1      -0.015   1.681  25.543  0.00  0.00    -0.335 OA
ATOM     12  C   UNL     1      -0.017   1.723  24.720  0.00  0.00    +0.255 A 
ATOM     13  N   UNL     1      -0.371   2.436  24.502  0.00  0.00    -0.189 NA
BRANCH   9   5
ATOM      1  F   UNL     1      -2.068   5.779  25.344  0.00  0.00    -0.203 F 
ATOM      2  C   UNL     1      -1.698   5.043  25.306  0.00  0.00    +0.151 A 
ATOM      3  C   UNL     1      -0.955   4.972  24.954  0.00  0.00    +0.031 A 
ATOM      4  C   UNL     1      -0.585   4.237  24.916  0.00  0.00    +0.006 A 
ATOM      5  C   UNL     1      -0.958   3.571  25.231  0.00  0.00    +0.040 A 
ATOM      6  C   UNL     1      -1.700   3.641  25.583  0.00  0.00    +0.017 A 
ATOM      7  C   UNL     1      -2.071   4.377  25.621  0.00  0.00    +0.085 A 
ATOM      8 CL   UNL     1      -2.813   4.448  25.973  0.00  0.00    -0.080 Cl
ENDBRANCH   9   5
ENDBRANCH  14  12
TORSDOF 3
ENDMDL
MODEL 6
REMARK VINA RESULT:     -12.7      2.278      4.177
REMARK  Name = 
REMARK  3 active torsions:
REMARK  status: ('A' for Active; 'I' for Inactive)
REMARK    1  A    between atoms: C_5  and  C_9
REMARK    2  A    between atoms: C_12  and  C_14
REMARK    3  A    between atoms: N_22  and  C_23
REMARK                            x       y       z     vdW  Elec       q    Type
REMARK                         _______ _______ _______ _____ _____    ______ ____
ROOT
ATOM     14  C   UNL     1      -1.826   1.454  24.202  0.00  0.00    +0.162 C 
ATOM     15  C   UNL     1      -1.308   2.086  24.098  0.00  0.00    +0.077 C 
ATOM     16  C   UNL     1      -0.493   1.966  24.150  0.00  0.00    +0.078 A 
ATOM     17  C   UNL     1      -0.197   1.212  24.308  0.00  0.00    +0.094 A 
ATOM     18  C   UNL     1      -0.716   0.579  24.413  0.00  0.00    +0.143 C 
ATOM     19  N   UNL     1      -1.530   0.700  24.360  0.00  0.00    -0.249 N 
ATOM     20  C   UNL     1      -2.048   0.066  24.465  0.00  0.00    +0.328 C 
ATOM     21  O   UNL     1      -2.863   0.187  24.412  0.00  0.00    -0.250 OA
ATOM     22  N   UNL     1      -1.752  -0.687  24.622  0.00  0.00    -0.162 NA
ATOM     30  N   UNL     1       0.625   1.260  24.328  0.00  0.00    -0.225 NA
ATOM     31  C   UNL     1       0.839   2.044  24.183  0.00  0.00    +0.198 A 
ATOM     32  N   UNL     1       0.147   2.479  24.074  0.00  0.00    -0.227 NA
ENDROOT
BRANCH  22  23
ATOM     23  C   UNL     1      -2.271  -1.320  24.727  0.00  0.00    +0.075 A 
ATOM     24  C   UNL     1      -2.362  -1.882  24.129  0.00  0.00    +0.018 A 
ATOM     25  C   UNL     1      -2.881  -2.515  24.233  0.00  0.00    +0.013 A 
ATOM     26  C   UNL     1      -3.309  -2.586  24.935  0.00  0.00    +0.058 A 
ATOM     27 CL   UNL     1      -3.828  -3.219  25.038  0.00  0.00    -0.082 Cl
ATOM     28  C   UNL     1      -3.218  -2.025  25.533  0.00  0.00    +0.013 A 
ATOM     29  C   UNL     1      -2.699  -1.392  25.428  0.00  0.00    +0.018 A 
ENDBRANCH  22  23
BRANCH  14  12
ATOM      9  C   UNL     1      -3.896   1.916  24.449  0.00  0.00    +0.203 A 
ATOM     10  N   UNL     1      -3.892   1.603  23.686  0.00  0.00    -0.056 NA
ATOM     11  O   UNL     1      -3.116   1.392  23.501  0.00  0.00    -0.335 OA
ATOM     12  C   UNL     1      -2.640   1.574  24.149  0.00  0.00    +0.255 A 
ATOM     13  N   UNL     1      -3.122   1.898  24.736  0.00  0.00    -0.189 NA
BRANCH   9   5
ATOM      1  F   UNL     1      -6.539   3.039  26.074  0.00  0.00    -0.203 F 
ATOM      2  C   UNL     1      -5.878   2.759  25.668  0.00  0.00    +0.151 A 
ATOM      3  C   UNL     1      -5.822   1.958  25.475  0.00  0.00    +0.031 A 
ATOM      4  C   UNL     1      -5.162   1.678  25.069  0.00  0.00    +0.006 A 
ATOM      5  C   UNL     1      -4.557   2.197  24.856  0.00  0.00    +0.040 A 
ATOM      6  C   UNL     1      -4.613   2.997  25.049  0.00  0.00    +0.017 A 
ATOM      7  C   UNL     1      -5.274   3.278  25.455  0.00  0.00    +0.085 A 
ATOM      8 CL   UNL     1      -5.329   4.078  25.648  0.00  0.00    -0.080 Cl
ENDBRANCH   9   5
ENDBRANCH  14  12
TORSDOF 3
ENDMDL
MODEL 7
REMARK VINA RESULT:     -12.3      1.841      3.639
REMARK  Name = 
REMARK  3 active torsions:
REMARK  status: ('A' for Active; 'I' for Inactive)
REMARK    1  A    between atoms: C_5  and  C_9
REMARK    2  A    between atoms: C_12  and  C_14
REMARK    3  A    between atoms: N_22  and  C_23
REMARK                            x       y       z     vdW  Elec       q    Type
REMARK                         _______ _______ _______ _____ _____    ______ ____
ROOT
ATOM     14  C   UNL     1      -2.974  -0.834  24.704  0.00  0.00    +0.162 C 
ATOM     15  C   UNL     1      -2.805  -1.620  24.520  0.00  0.00    +0.077 C 
ATOM     16  C   UNL     1      -3.400  -2.115  24.233  0.00  0.00    +0.078 A 
ATOM     17  C   UNL     1      -4.164  -1.822  24.128  0.00  0.00    +0.094 A 
ATOM     18  C   UNL     1      -4.334  -1.035  24.312  0.00  0.00    +0.143 C 
ATOM     19  N   UNL     1      -3.739  -0.542  24.599  0.00  0.00    -0.249 N 
ATOM     20  C   UNL     1      -3.909   0.244  24.782  0.00  0.00    +0.328 C 
ATOM     21  O   UNL     1      -3.313   0.738  25.070  0.00  0.00    -0.250 OA
ATOM     22  N   UNL     1      -4.673   0.536  24.678  0.00  0.00    -0.162 NA
ATOM     30  N   UNL     1      -4.634  -2.434  23.838  0.00  0.00    -0.225 NA
ATOM     31  C   UNL     1      -4.160  -3.105  23.762  0.00  0.00    +0.198 A 
ATOM     32  N   UNL     1      -3.398  -2.907  24.006  0.00  0.00    -0.227 NA
ENDROOT
BRANCH  22  23
ATOM     23  C   UNL     1      -4.842   1.323  24.862  0.00  0.00    +0.075 A 
ATOM     24  C   UNL     1      -5.248   1.506  25.556  0.00  0.00    +0.018 A 
ATOM     25  C   UNL     1      -5.417   2.292  25.741  0.00  0.00    +0.013 A 
ATOM     26  C   UNL     1      -5.180   2.895  25.230  0.00  0.00    +0.058 A 
ATOM     27 CL   UNL     1      -5.349   3.681  25.414  0.00  0.00    -0.082 Cl
ATOM     28  C   UNL     1      -4.774   2.713  24.535  0.00  0.00    +0.013 A 
ATOM     29  C   UNL     1      -4.605   1.926  24.352  0.00  0.00    +0.018 A 
ENDBRANCH  22  23
BRANCH  14  12
ATOM      9  C   UNL     1      -1.355   0.513  25.048  0.00  0.00    +0.203 A 
ATOM     10  N   UNL     1      -1.574   0.327  25.820  0.00  0.00    -0.056 NA
ATOM     11  O   UNL     1      -2.207  -0.201  25.785  0.00  0.00    -0.335 OA
ATOM     12  C   UNL     1      -2.380  -0.341  24.991  0.00  0.00    +0.255 A 
ATOM     13  N   UNL     1      -1.853   0.101  24.534  0.00  0.00    -0.189 NA
BRANCH   9   5
ATOM      1  F   UNL     1       1.085   2.549  24.157  0.00  0.00    -0.203 F 
ATOM      2  C   UNL     1       0.475   2.041  24.379  0.00  0.00    +0.151 A 
ATOM      3  C   UNL     1       0.374   1.321  23.988  0.00  0.00    +0.031 A 
ATOM      4  C   UNL     1      -0.235   0.812  24.211  0.00  0.00    +0.006 A 
ATOM      5  C   UNL     1      -0.745   1.023  24.825  0.00  0.00    +0.040 A 
ATOM      6  C   UNL     1      -0.645   1.742  25.216  0.00  0.00    +0.017 A 
ATOM      7  C   UNL     1      -0.035   2.251  24.994  0.00  0.00    +0.085 A 
ATOM      8 CL   UNL     1       0.066   2.970  25.384  0.00  0.00    -0.080 Cl
ENDBRANCH   9   5
ENDBRANCH  14  12
TORSDOF 3
ENDMDL
