MODEL 1
REMARK VINA RESULT:     -12.1      0.000      0.000
REMARK  Name = 
REMARK  5 active torsions:
REMARK  status: ('A' for Active; 'I' for Inactive)
REMARK    1  A    between atoms: O_2  and  C_3
REMARK    2  A    between atoms: C_6  and  C_9
REMARK    3  A    between atoms: C_15  and  N_16
REMARK    4  A    between atoms: C_17  and  C_19
REMARK    5  A    between atoms: C_19  and  C_20
REMARK                            x       y       z     vdW  Elec       q    Type
REMARK                         _______ _______ _______ _____ _____    ______ ____
ROOT
ATOM      9  C   UNL     1      -4.524   0.708  24.773  0.00  0.00    +0.048 C 
ATOM     10  C   UNL     1      -5.296   0.872  25.012  0.00  0.00    +0.042 C 
ATOM     11  C   UNL     1      -5.421   1.684  24.934  0.00  0.00    +0.184 C 
ATOM     12  O   UNL     1      -6.119   2.087  25.111  0.00  0.00    -0.220 OA
ATOM     13  C   UNL     1      -4.725   2.022  24.646  0.00  0.00    +0.202 C 
ATOM     14  O   UNL     1      -4.605   2.823  24.487  0.00  0.00    -0.219 OA
ATOM     15  C   UNL     1      -4.171   1.420  24.547  0.00  0.00    +0.132 C 
ENDROOT
BRANCH   9   6
ATOM      3  C   UNL     1      -3.453  -1.523  24.739  0.00  0.00    +0.139 A 
ATOM      4  C   UNL     1      -3.523  -1.110  25.450  0.00  0.00    +0.037 A 
ATOM      5  C   UNL     1      -3.880  -0.366  25.462  0.00  0.00    -0.001 A 
ATOM      6  C   UNL     1      -4.167  -0.035  24.762  0.00  0.00    -0.020 A 
ATOM      7  C   UNL     1      -4.096  -0.449  24.052  0.00  0.00    -0.001 A 
ATOM      8  C   UNL     1      -3.739  -1.192  24.040  0.00  0.00    +0.037 A 
BRANCH   3   2
ATOM      1  C   UNL     1      -2.299  -2.339  24.530  0.00  0.00    +0.252 C 
ATOM      2  O   UNL     1      -3.096  -2.266  24.728  0.00  0.00    -0.471 OA
ENDBRANCH   3   2
ENDBRANCH   9   6
BRANCH  15  16
ATOM     16  N   UNL     1      -3.399   1.511  24.271  0.00  0.00    -0.204 NA
ATOM     17  C   UNL     1      -2.904   2.075  24.612  0.00  0.00    +0.246 C 
ATOM     18  O   UNL     1      -3.179   2.548  25.229  0.00  0.00    -0.273 OA
BRANCH  17  19
ATOM     19  C   UNL     1      -2.131   2.167  24.335  0.00  0.00    +0.113 C 
BRANCH  19  20
ATOM     20  C   UNL     1      -1.512   2.274  24.870  0.00  0.00    -0.013 A 
ATOM     21  C   UNL     1      -1.068   1.626  25.122  0.00  0.00    -0.003 A 
ATOM     22  C   UNL     1      -0.448   1.734  25.656  0.00  0.00    +0.011 A 
ATOM     23  C   UNL     1      -0.273   2.489  25.938  0.00  0.00    +0.058 A 
ATOM     24 CL   UNL     1       0.346   2.597  26.472  0.00  0.00    -0.082 Cl
ATOM     25  C   UNL     1      -0.717   3.137  25.686  0.00  0.00    +0.011 A 
ATOM     26  C   UNL     1      -1.337   3.029  25.152  0.00  0.00    -0.003 A 
ENDBRANCH  19  20
ENDBRANCH  17  19
ENDBRANCH  15  16
TORSDOF 5
ENDMDL
MODEL 2
REMARK VINA RESULT:     -12.0      1.920      4.084
REMARK  Name = 
REMARK  5 active torsions:
REMARK  status: ('A' for Active; 'I' for Inactive)
REMARK    1  A    between atoms: O_2  and  C_3
REMARK    2  A    between atoms: C_6  and  C_9
REMARK    3  A    between atoms: C_15  and  N_16
REMARK    4  A    between atoms: C_17  and  C_19
REMARK    5  A    between atoms: C_19  and  C_20
REMARK                            x       y       z     vdW  Elec       q    Type
REMARK                         _______ _______ _______ _____ _____    ______ ____
ROOT
ATOM      9  C   UNL     1      -4.229   3.085  25.257  0.00  0.00    +0.048 C 
ATOM     10  C   UNL     1      -4.820   3.477  25.677  0.00  0.00    +0.042 C 
ATOM     11  C   UNL     1      -5.524   3.058  25.577  0.00  0.00    +0.184 C 
ATOM     12  O   UNL     1      -6.256   3.255  25.902  0.00  0.00    -0.220 OA
ATOM     13  C   UNL     1      -5.367   2.407  25.095  0.00  0.00    +0.202 C 
ATOM     14  O   UNL     1      -5.915   1.839  24.854  0.00  0.00    -0.219 OA
ATOM     15  C   UNL     1      -4.567   2.423  24.897  0.00  0.00    +0.132 C 
ENDROOT
BRANCH   9   6
ATOM      3  C   UNL     1      -1.856   3.771  25.102  0.00  0.00    +0.139 A 
ATOM      4  C   UNL     1      -2.360   3.882  24.458  0.00  0.00    +0.037 A 
ATOM      5  C   UNL     1      -3.150   3.653  24.510  0.00  0.00    -0.001 A 
ATOM      6  C   UNL     1      -3.438   3.314  25.206  0.00  0.00    -0.020 A 
ATOM      7  C   UNL     1      -2.933   3.203  25.849  0.00  0.00    -0.001 A 
ATOM      8  C   UNL     1      -2.142   3.432  25.797  0.00  0.00    +0.037 A 
BRANCH   3   2
ATOM      1  C   UNL     1      -0.870   4.798  24.976  0.00  0.00    +0.252 C 
ATOM      2  O   UNL     1      -1.065   4.000  25.051  0.00  0.00    -0.471 OA
ENDBRANCH   3   2
ENDBRANCH   9   6
BRANCH  15  16
ATOM     16  N   UNL     1      -4.173   1.875  24.423  0.00  0.00    -0.204 NA
ATOM     17  C   UNL     1      -4.221   1.070  24.597  0.00  0.00    +0.246 C 
ATOM     18  O   UNL     1      -4.662   0.813  25.245  0.00  0.00    -0.273 OA
BRANCH  17  19
ATOM     19  C   UNL     1      -3.827   0.522  24.123  0.00  0.00    +0.113 C 
BRANCH  19  20
ATOM     20  C   UNL     1      -3.727  -0.254  24.385  0.00  0.00    -0.013 A 
ATOM     21  C   UNL     1      -4.175  -0.863  24.054  0.00  0.00    -0.003 A 
ATOM     22  C   UNL     1      -4.075  -1.638  24.317  0.00  0.00    +0.011 A 
ATOM     23  C   UNL     1      -3.527  -1.805  24.910  0.00  0.00    +0.058 A 
ATOM     24 CL   UNL     1      -3.427  -2.581  25.173  0.00  0.00    -0.082 Cl
ATOM     25  C   UNL     1      -3.079  -1.197  25.241  0.00  0.00    +0.011 A 
ATOM     26  C   UNL     1      -3.179  -0.422  24.979  0.00  0.00    -0.003 A 
ENDBRANCH  19  20
ENDBRANCH  17  19
ENDBRANCH  15  16
TORSDOF 5
ENDMDL
MODEL 3
REMARK VINA RESULT:     -11.7      2.124      4.685
REMARK  Name = 
REMARK  5 active torsions:
REMARK  status: ('A' for Active; 'I' for Inactive)
REMARK    1  A    between atoms: O_2  and  C_3
REMARK    2  A    between atoms: C_6  and  C_9
REMARK    3  A    between atoms: C_15  and  N_16
REMARK    4  A    between atoms: C_17  and  C_19
REMARK    5  A    between atoms: C_19  and  C_20
REMARK                            x       y       z     vdW  Elec       q    Type
REMARK                         _______ _______ _______ _____ _____    ______ ____
ROOT
ATOM      9  C   UNL     1      -1.617   2.168  24.673  0.00  0.00    +0.048 C 
ATOM     10  C   UNL     1      -0.915   2.444  24.338  0.00  0.00    +0.042 C 
ATOM     11  C   UNL     1      -0.349   1.849  24.409  0.00  0.00    +0.184 C 
ATOM     12  O   UNL     1       0.433   1.889  24.147  0.00  0.00    -0.220 OA
ATOM     13  C   UNL     1      -0.700   1.205  24.787  0.00  0.00    +0.202 C 
ATOM     14  O   UNL     1      -0.332   0.490  24.970  0.00  0.00    -0.219 OA
ATOM     15  C   UNL     1      -1.484   1.402  24.950  0.00  0.00    +0.132 C 
ENDROOT
BRANCH   9   6
ATOM      3  C   UNL     1      -3.748   3.419  24.819  0.00  0.00    +0.139 A 
ATOM      4  C   UNL     1      -3.530   3.057  24.110  0.00  0.00    +0.037 A 
ATOM      5  C   UNL     1      -2.820   2.640  24.061  0.00  0.00    -0.001 A 
ATOM      6  C   UNL     1      -2.327   2.585  24.721  0.00  0.00    -0.020 A 
ATOM      7  C   UNL     1      -2.546   2.947  25.430  0.00  0.00    -0.001 A 
ATOM      8  C   UNL     1      -3.256   3.364  25.478  0.00  0.00    +0.037 A 
BRANCH   3   2
ATOM      1  C   UNL     1      -5.056   3.574  25.372  0.00  0.00    +0.252 C 
ATOM      2  O   UNL     1      -4.458   3.836  24.868  0.00  0.00    -0.471 OA
ENDBRANCH   3   2
ENDBRANCH   9   6
BRANCH  15  16
ATOM     16  N   UNL     1      -2.037   0.920  25.325  0.00  0.00    -0.204 NA
ATOM     17  C   UNL     1      -2.167   0.153  25.052  0.00  0.00    +0.246 C 
ATOM     18  O   UNL     1      -1.744  -0.132  24.404  0.00  0.00    -0.273 OA
BRANCH  17  19
ATOM     19  C   UNL     1      -2.722  -0.331  25.426  0.00  0.00    +0.113 C 
BRANCH  19  20
ATOM     20  C   UNL     1      -3.149  -0.884  24.989  0.00  0.00    -0.013 A 
ATOM     21  C   UNL     1      -3.830  -0.653  24.583  0.00  0.00    -0.003 A 
ATOM     22  C   UNL     1      -4.257  -1.207  24.146  0.00  0.00    +0.011 A 
ATOM     23  C   UNL     1      -4.004  -1.992  24.114  0.00  0.00    +0.058 A 
ATOM     24 CL   UNL     1      -4.431  -2.545  23.676  0.00  0.00    -0.082 Cl
ATOM     25  C   UNL     1      -3.324  -2.223  24.519  0.00  0.00    +0.011 A 
ATOM     26  C   UNL     1      -2.896  -1.669  24.956  0.00  0.00    -0.003 A 
ENDBRANCH  19  20
ENDBRANCH  17  19
ENDBRANCH  15  16
TORSDOF 5
ENDMDL
MODEL 4
REMARK VINA RESULT:     -11.6      1.896      3.720
REMARK  Name = 
REMARK  5 active torsions:
REMARK  status: ('A' for Active; 'I' for Inactive)
REMARK    1  A    between atoms: O_2  and  C_3
REMARK    2  A    between atoms: C_6  and  C_9
REMARK    3  A    between atoms: C_15  and  N_16
REMARK    4  A    between atoms: C_17  and  C_19
REMARK    5  A    between atoms: C_19  and  C_20
REMARK                            x       y       z     vdW  Elec       q    Type
REMARK                         _______ _______ _______ _____ _____    ______ ____
ROOT
ATOM      9  C   UNL     1      -2.797   2.148  24.297  0.00  0.00    +0.048 C 
ATOM     10  C   UNL     1      -2.966   2.871  23.938  0.00  0.00    +0.042 C 
ATOM     11  C   UNL     1      -3.748   3.064  24.110  0.00  0.00    +0.184 C 
ATOM     12  O   UNL     1      -4.147   3.742  23.860  0.00  0.00    -0.220 OA
ATOM     13  C   UNL     1      -4.064   2.461  24.576  0.00  0.00    +0.202 C 
ATOM     14  O   UNL     1      -4.833   2.429  24.873  0.00  0.00    -0.219 OA
ATOM     15  C   UNL     1      -3.476   1.894  24.692  0.00  0.00    +0.132 C 
ENDROOT
BRANCH   9   6
ATOM      3  C   UNL     1      -0.633   0.949  24.209  0.00  0.00    +0.139 A 
ATOM      4  C   UNL     1      -1.119   0.972  23.542  0.00  0.00    +0.037 A 
ATOM      5  C   UNL     1      -1.840   1.372  23.572  0.00  0.00    -0.001 A 
ATOM      6  C   UNL     1      -2.075   1.748  24.268  0.00  0.00    -0.020 A 
ATOM      7  C   UNL     1      -1.589   1.725  24.933  0.00  0.00    -0.001 A 
ATOM      8  C   UNL     1      -0.868   1.325  24.904  0.00  0.00    +0.037 A 
BRANCH   3   2
ATOM      1  C   UNL     1       0.109  -0.250  23.977  0.00  0.00    +0.252 C 
ATOM      2  O   UNL     1       0.088   0.550  24.179  0.00  0.00    -0.471 OA
ENDBRANCH   3   2
ENDBRANCH   9   6
BRANCH  15  16
ATOM     16  N   UNL     1      -3.553   1.197  25.125  0.00  0.00    -0.204 NA
ATOM     17  C   UNL     1      -4.155   0.663  24.944  0.00  0.00    +0.246 C 
ATOM     18  O   UNL     1      -4.680   0.826  24.329  0.00  0.00    -0.273 OA
BRANCH  17  19
ATOM     19  C   UNL     1      -4.232  -0.034  25.378  0.00  0.00    +0.113 C 
BRANCH  19  20
ATOM     20  C   UNL     1      -4.047  -0.759  25.030  0.00  0.00    -0.013 A 
ATOM     21  C   UNL     1      -3.510  -1.268  25.396  0.00  0.00    -0.003 A 
ATOM     22  C   UNL     1      -3.325  -1.992  25.048  0.00  0.00    +0.011 A 
ATOM     23  C   UNL     1      -3.678  -2.209  24.334  0.00  0.00    +0.058 A 
ATOM     24 CL   UNL     1      -3.493  -2.933  23.986  0.00  0.00    -0.082 Cl
ATOM     25  C   UNL     1      -4.214  -1.701  23.968  0.00  0.00    +0.011 A 
ATOM     26  C   UNL     1      -4.399  -0.976  24.316  0.00  0.00    -0.003 A 
ENDBRANCH  19  20
ENDBRANCH  17  19
ENDBRANCH  15  16
TORSDOF 5
ENDMDL
MODEL 5
REMARK VINA RESULT:     -11.4      1.210      3.192
REMARK  Name = 
REMARK  5 active torsions:
REMARK  status: ('A' for Active; 'I' for Inactive)
REMARK    1  A    between atoms: O_2  and  C_3
REMARK    2  A    between atoms: C_6  and  C_9
REMARK    3  A    between atoms: C_15  and  N_16
REMARK    4  A    between atoms: C_17  and  C_19
REMARK    5  A    between atoms: C_19  and  C_20
REMARK                            x       y       z     vdW  Elec       q    Type
REMARK                         _______ _______ _______ _____ _____    ______ ____
ROOT
ATOM      9  C   UNL     1      -3.902  -0.703  24.486  0.00  0.00    +0.048 C 
ATOM     10  C   UNL     1      -4.313  -1.288  24.075  0.00  0.00    +0.042 C 
ATOM     11  C   UNL     1      -3.911  -2.000  24.175  0.00  0.00    +0.184 C 
ATOM     12  O   UNL     1      -4.131  -2.730  23.858  0.00  0.00    -0.220 OA
ATOM     13  C   UNL     1      -3.251  -1.856  24.648  0.00  0.00    +0.202 C 
ATOM     14  O   UNL     1      -2.694  -2.417  24.887  0.00  0.00    -0.219 OA
ATOM     15  C   UNL     1      -3.245  -1.055  24.840  0.00  0.00    +0.132 C 
ENDROOT
BRANCH   9   6
ATOM      3  C   UNL     1      -4.526   1.688  24.630  0.00  0.00    +0.139 A 
ATOM      4  C   UNL     1      -4.723   1.173  25.244  0.00  0.00    +0.037 A 
ATOM      5  C   UNL     1      -4.515   0.376  25.196  0.00  0.00    -0.001 A 
ATOM      6  C   UNL     1      -4.110   0.094  24.534  0.00  0.00    -0.020 A 
ATOM      7  C   UNL     1      -3.914   0.610  23.921  0.00  0.00    -0.001 A 
ATOM      8  C   UNL     1      -4.122   1.407  23.969  0.00  0.00    +0.037 A 
BRANCH   3   2
ATOM      1  C   UNL     1      -4.210   3.029  25.008  0.00  0.00    +0.252 C 
ATOM      2  O   UNL     1      -4.735   2.485  24.679  0.00  0.00    -0.471 OA
ENDBRANCH   3   2
ENDBRANCH   9   6
BRANCH  15  16
ATOM     16  N   UNL     1      -2.681  -0.672  25.304  0.00  0.00    -0.204 NA
ATOM     17  C   UNL     1      -1.880  -0.741  25.121  0.00  0.00    +0.246 C 
ATOM     18  O   UNL     1      -1.642  -1.194  24.474  0.00  0.00    -0.273 OA
BRANCH  17  19
ATOM     19  C   UNL     1      -1.316  -0.358  25.586  0.00  0.00    +0.113 C 
BRANCH  19  20
ATOM     20  C   UNL     1      -0.904   0.291  25.284  0.00  0.00    -0.013 A 
ATOM     21  C   UNL     1      -0.933   1.016  25.676  0.00  0.00    -0.003 A 
ATOM     22  C   UNL     1      -0.522   1.665  25.375  0.00  0.00    +0.011 A 
ATOM     23  C   UNL     1      -0.082   1.587  24.681  0.00  0.00    +0.058 A 
ATOM     24 CL   UNL     1       0.330   2.235  24.379  0.00  0.00    -0.082 Cl
ATOM     25  C   UNL     1      -0.053   0.862  24.289  0.00  0.00    +0.011 A 
ATOM     26  C   UNL     1      -0.464   0.214  24.591  0.00  0.00    -0.003 A 
ENDBRANCH  19  20
ENDBRANCH  17  19
ENDBRANCH  15  16
TORSDOF 5
ENDMDL
MODEL 6
REMARK VINA RESULT:     -11.2      2.022      4.533
REMARK  Name = 
REMARK  5 active torsions:
REMARK  status: ('A' for Active; 'I' for Inactive)
REMARK    1  A    between atoms: O_2  and  C_3
REMARK    2  A    between atoms: C_6  and  C_9
REMARK    3  A    between atoms: C_15  and  N_16
REMARK    4  A    between atoms: C_17  and  C_19
REMARK    5  A    between atoms: C_19  and  C_20
REMARK                            x       y       z     vdW  Elec       q    Type
REMARK                         _______ _______ _______ _____ _____    ______ ____
ROOT
ATOM      9  C   UNL     1      -1.119   1.147  24.964  0.00  0.00    +0.048 C 
ATOM     10  C   UNL     1      -0.608   0.579  25.273  0.00  0.00    +0.042 C 
ATOM     11  C   UNL     1      -0.919  -0.165  25.100  0.00  0.00    +0.184 C 
ATOM     12  O   UNL     1      -0.585  -0.891  25.307  0.00  0.00    -0.220 OA
ATOM     13  C   UNL     1      -1.623  -0.056  24.683  0.00  0.00    +0.202 C 
ATOM     14  O   UNL     1      -2.117  -0.654  24.401  0.00  0.00    -0.219 OA
ATOM     15  C   UNL     1      -1.747   0.755  24.599  0.00  0.00    +0.132 C 
ENDROOT
BRANCH   9   6
ATOM      3  C   UNL     1      -0.823   3.601  25.104  0.00  0.00    +0.139 A 
ATOM      4  C   UNL     1      -1.060   3.176  25.770  0.00  0.00    +0.037 A 
ATOM      5  C   UNL     1      -1.158   2.358  25.723  0.00  0.00    -0.001 A 
ATOM      6  C   UNL     1      -1.020   1.965  25.010  0.00  0.00    -0.020 A 
ATOM      7  C   UNL     1      -0.784   2.391  24.345  0.00  0.00    -0.001 A 
ATOM      8  C   UNL     1      -0.685   3.209  24.391  0.00  0.00    +0.037 A 
BRANCH   3   2
ATOM      1  C   UNL     1      -1.379   4.917  25.101  0.00  0.00    +0.252 C 
ATOM      2  O   UNL     1      -0.724   4.418  25.150  0.00  0.00    -0.471 OA
ENDBRANCH   3   2
ENDBRANCH   9   6
BRANCH  15  16
ATOM     16  N   UNL     1      -2.385   1.111  24.218  0.00  0.00    -0.204 NA
ATOM     17  C   UNL     1      -3.157   0.907  24.428  0.00  0.00    +0.246 C 
ATOM     18  O   UNL     1      -3.290   0.348  25.019  0.00  0.00    -0.273 OA
BRANCH  17  19
ATOM     19  C   UNL     1      -3.796   1.264  24.046  0.00  0.00    +0.113 C 
BRANCH  19  20
ATOM     20  C   UNL     1      -4.332   1.719  24.477  0.00  0.00    -0.013 A 
ATOM     21  C   UNL     1      -4.361   2.536  24.367  0.00  0.00    -0.003 A 
ATOM     22  C   UNL     1      -4.897   2.992  24.798  0.00  0.00    +0.011 A 
ATOM     23  C   UNL     1      -5.404   2.629  25.339  0.00  0.00    +0.058 A 
ATOM     24 CL   UNL     1      -5.940   3.085  25.770  0.00  0.00    -0.082 Cl
ATOM     25  C   UNL     1      -5.375   1.813  25.449  0.00  0.00    +0.011 A 
ATOM     26  C   UNL     1      -4.839   1.358  25.018  0.00  0.00    -0.003 A 
ENDBRANCH  19  20
ENDBRANCH  17  19
ENDBRANCH  15  16
TORSDOF 5
ENDMDL
