MODEL 1
REMARK VINA RESULT:     -15.2      0.000      0.000
REMARK  Name = 
REMARK  2 active torsions:
REMARK  status: ('A' for Active; 'I' for Inactive)
REMARK    1  A    between atoms: N_13  and  S_14
REMARK    2  A    between atoms: S_14  and  C_17
REMARK                            x       y       z     vdW  Elec       q    Type
REMARK                         _______ _______ _______ _____ _____    ______ ____
ROOT
ATOM      1  C   UNL     1      -0.909   5.315  25.024  0.00  0.00    +0.012 C 
ATOM      2  C   UNL     1      -1.176   4.536  24.976  0.00  0.00    +0.103 C 
ATOM      3  C   UNL     1      -1.963   4.289  25.028  0.00  0.00    +0.051 C 
ATOM      4  C   UNL     1      -2.666   4.707  25.136  0.00  0.00    +0.004 C 
ATOM      5  C   UNL     1      -3.385   4.303  25.167  0.00  0.00    +0.001 C 
ATOM      6  C   UNL     1      -3.400   3.481  25.090  0.00  0.00    +0.008 C 
ATOM      7  C   UNL     1      -4.103   3.899  25.198  0.00  0.00    +0.000 C 
ATOM      8  C   UNL     1      -4.118   3.077  25.121  0.00  0.00    +0.034 C 
ATOM      9  C   UNL     1      -4.133   2.256  25.044  0.00  0.00    +0.023 A 
ATOM     10  C   UNL     1      -3.430   1.839  24.937  0.00  0.00    +0.063 A 
ATOM     11  N   UNL     1      -3.616   1.036  24.878  0.00  0.00    -0.226 NA
ATOM     12  C   UNL     1      -4.434   0.958  24.950  0.00  0.00    +0.202 A 
ATOM     13  N   UNL     1      -4.857   0.251  24.923  0.00  0.00    -0.070 NA
ATOM     24  S   UNL     1      -4.753   1.712  25.053  0.00  0.00    -0.053 S 
ATOM     25  C   UNL     1      -2.711   2.243  24.906  0.00  0.00    +0.044 C 
ATOM     26  C   UNL     1      -2.008   1.825  24.798  0.00  0.00    +0.006 C 
ATOM     27  C   UNL     1      -2.697   3.063  24.982  0.00  0.00    +0.046 C 
ATOM     28  C   UNL     1      -1.977   3.468  24.951  0.00  0.00    +0.170 C 
ATOM     29  O   UNL     1      -1.201   3.207  24.851  0.00  0.00    -0.452 OA
ATOM     30  C   UNL     1      -0.706   3.867  24.866  0.00  0.00    +0.316 C 
ATOM     31  O   UNL     1       0.114   3.859  24.786  0.00  0.00    -0.250 OA
ENDROOT
BRANCH  13  14
ATOM     14  S   UNL     1      -4.460  -0.464  24.817  0.00  0.00    +0.095 S 
ATOM     15  O   UNL     1      -4.587  -0.413  24.003  0.00  0.00    -0.148 OA
ATOM     16  O   UNL     1      -4.333  -0.515  25.631  0.00  0.00    -0.148 OA
BRANCH  14  17
ATOM     17  C   UNL     1      -4.063  -1.179  24.710  0.00  0.00    +0.127 A 
ATOM     18  C   UNL     1      -4.140  -1.592  24.000  0.00  0.00    +0.020 A 
ATOM     19  C   UNL     1      -3.742  -2.307  23.894  0.00  0.00    -0.003 A 
ATOM     20  C   UNL     1      -3.268  -2.610  24.497  0.00  0.00    -0.022 A 
ATOM     21  C   UNL     1      -2.870  -3.325  24.391  0.00  0.00    +0.031 C 
ATOM     22  C   UNL     1      -3.191  -2.196  25.208  0.00  0.00    -0.003 A 
ATOM     23  C   UNL     1      -3.588  -1.482  25.314  0.00  0.00    +0.020 A 
ENDBRANCH  14  17
ENDBRANCH  13  14
TORSDOF 2
ENDMDL
MODEL 2
REMARK VINA RESULT:     -15.0      1.835      5.797
REMARK  Name = 
REMARK  2 active torsions:
REMARK  status: ('A' for Active; 'I' for Inactive)
REMARK    1  A    between atoms: N_13  and  S_14
REMARK    2  A    between atoms: S_14  and  C_17
REMARK                            x       y       z     vdW  Elec       q    Type
REMARK                         _______ _______ _______ _____ _____    ______ ____
ROOT
ATOM      1  C   UNL     1      -4.033  -2.906  24.085  0.00  0.00    +0.012 C 
ATOM      2  C   UNL     1      -3.765  -2.135  24.206  0.00  0.00    +0.103 C 
ATOM      3  C   UNL     1      -3.005  -1.918  24.444  0.00  0.00    +0.051 C 
ATOM      4  C   UNL     1      -2.333  -2.363  24.619  0.00  0.00    +0.004 C 
ATOM      5  C   UNL     1      -1.636  -1.985  24.847  0.00  0.00    +0.001 C 
ATOM      6  C   UNL     1      -1.611  -1.161  24.898  0.00  0.00    +0.008 C 
ATOM      7  C   UNL     1      -0.939  -1.607  25.074  0.00  0.00    +0.000 C 
ATOM      8  C   UNL     1      -0.914  -0.783  25.126  0.00  0.00    +0.034 C 
ATOM      9  C   UNL     1      -0.889   0.039  25.177  0.00  0.00    +0.023 A 
ATOM     10  C   UNL     1      -1.561   0.484  25.002  0.00  0.00    +0.063 A 
ATOM     11  N   UNL     1      -1.372   1.282  25.101  0.00  0.00    -0.226 NA
ATOM     12  C   UNL     1      -0.583   1.329  25.337  0.00  0.00    +0.202 A 
ATOM     13  N   UNL     1      -0.166   2.022  25.499  0.00  0.00    -0.070 NA
ATOM     24  S   UNL     1      -0.285   0.562  25.385  0.00  0.00    -0.053 S 
ATOM     25  C   UNL     1      -2.258   0.106  24.774  0.00  0.00    +0.044 C 
ATOM     26  C   UNL     1      -2.930   0.552  24.599  0.00  0.00    +0.006 C 
ATOM     27  C   UNL     1      -2.283  -0.716  24.723  0.00  0.00    +0.046 C 
ATOM     28  C   UNL     1      -2.981  -1.095  24.495  0.00  0.00    +0.170 C 
ATOM     29  O   UNL     1      -3.724  -0.803  24.290  0.00  0.00    -0.452 OA
ATOM     30  C   UNL     1      -4.209  -1.446  24.111  0.00  0.00    +0.316 C 
ATOM     31  O   UNL     1      -4.999  -1.408  23.879  0.00  0.00    -0.250 OA
ENDROOT
BRANCH  13  14
ATOM     14  S   UNL     1      -0.539   2.755  25.427  0.00  0.00    +0.095 S 
ATOM     15  O   UNL     1      -0.752   2.724  26.224  0.00  0.00    -0.148 OA
ATOM     16  O   UNL     1      -0.327   2.785  24.630  0.00  0.00    -0.148 OA
BRANCH  14  17
ATOM     17  C   UNL     1      -0.913   3.487  25.355  0.00  0.00    +0.127 A 
ATOM     18  C   UNL     1      -0.580   4.075  24.882  0.00  0.00    +0.020 A 
ATOM     19  C   UNL     1      -0.954   4.807  24.811  0.00  0.00    -0.003 A 
ATOM     20  C   UNL     1      -1.660   4.951  25.212  0.00  0.00    -0.022 A 
ATOM     21  C   UNL     1      -2.034   5.683  25.140  0.00  0.00    +0.031 C 
ATOM     22  C   UNL     1      -1.993   4.362  25.686  0.00  0.00    -0.003 A 
ATOM     23  C   UNL     1      -1.619   3.631  25.757  0.00  0.00    +0.020 A 
ENDBRANCH  14  17
ENDBRANCH  13  14
TORSDOF 2
ENDMDL
MODEL 3
REMARK VINA RESULT:     -14.4      1.414      5.250
REMARK  Name = 
REMARK  2 active torsions:
REMARK  status: ('A' for Active; 'I' for Inactive)
REMARK    1  A    between atoms: N_13  and  S_14
REMARK    2  A    between atoms: S_14  and  C_17
REMARK                            x       y       z     vdW  Elec       q    Type
REMARK                         _______ _______ _______ _____ _____    ______ ____
ROOT
ATOM      1  C   UNL     1      -2.523  -3.306  24.536  0.00  0.00    +0.012 C 
ATOM      2  C   UNL     1      -2.421  -2.488  24.580  0.00  0.00    +0.103 C 
ATOM      3  C   UNL     1      -3.022  -1.923  24.557  0.00  0.00    +0.051 C 
ATOM      4  C   UNL     1      -3.842  -1.992  24.490  0.00  0.00    +0.004 C 
ATOM      5  C   UNL     1      -4.312  -1.314  24.483  0.00  0.00    +0.001 C 
ATOM      6  C   UNL     1      -3.963  -0.568  24.542  0.00  0.00    +0.008 C 
ATOM      7  C   UNL     1      -4.783  -0.637  24.475  0.00  0.00    +0.000 C 
ATOM      8  C   UNL     1      -4.434   0.109  24.535  0.00  0.00    +0.034 C 
ATOM      9  C   UNL     1      -4.085   0.854  24.594  0.00  0.00    +0.023 A 
ATOM     10  C   UNL     1      -3.266   0.922  24.661  0.00  0.00    +0.063 A 
ATOM     11  N   UNL     1      -3.080   1.725  24.710  0.00  0.00    -0.226 NA
ATOM     12  C   UNL     1      -3.784   2.153  24.674  0.00  0.00    +0.202 A 
ATOM     13  N   UNL     1      -3.855   2.974  24.704  0.00  0.00    -0.070 NA
ATOM     24  S   UNL     1      -4.406   1.615  24.602  0.00  0.00    -0.053 S 
ATOM     25  C   UNL     1      -2.795   0.245  24.668  0.00  0.00    +0.044 C 
ATOM     26  C   UNL     1      -1.976   0.313  24.735  0.00  0.00    +0.006 C 
ATOM     27  C   UNL     1      -3.144  -0.500  24.609  0.00  0.00    +0.046 C 
ATOM     28  C   UNL     1      -2.673  -1.178  24.617  0.00  0.00    +0.170 C 
ATOM     29  O   UNL     1      -1.857  -1.282  24.676  0.00  0.00    -0.452 OA
ATOM     30  C   UNL     1      -1.701  -2.092  24.653  0.00  0.00    +0.316 C 
ATOM     31  O   UNL     1      -0.957  -2.444  24.696  0.00  0.00    -0.250 OA
ENDROOT
BRANCH  13  14
ATOM     14  S   UNL     1      -3.181   3.444  24.777  0.00  0.00    +0.095 S 
ATOM     15  O   UNL     1      -3.238   3.398  25.599  0.00  0.00    -0.148 OA
ATOM     16  O   UNL     1      -3.123   3.489  23.955  0.00  0.00    -0.148 OA
BRANCH  14  17
ATOM     17  C   UNL     1      -2.506   3.913  24.850  0.00  0.00    +0.127 A 
ATOM     18  C   UNL     1      -2.513   4.570  25.349  0.00  0.00    +0.020 A 
ATOM     19  C   UNL     1      -1.839   5.039  25.422  0.00  0.00    -0.003 A 
ATOM     20  C   UNL     1      -1.157   4.852  24.995  0.00  0.00    -0.022 A 
ATOM     21  C   UNL     1      -0.483   5.322  25.068  0.00  0.00    +0.031 C 
ATOM     22  C   UNL     1      -1.151   4.195  24.495  0.00  0.00    -0.003 A 
ATOM     23  C   UNL     1      -1.825   3.726  24.423  0.00  0.00    +0.020 A 
ENDBRANCH  14  17
ENDBRANCH  13  14
TORSDOF 2
ENDMDL
MODEL 4
REMARK VINA RESULT:     -13.8      1.609      2.414
REMARK  Name = 
REMARK  2 active torsions:
REMARK  status: ('A' for Active; 'I' for Inactive)
REMARK    1  A    between atoms: N_13  and  S_14
REMARK    2  A    between atoms: S_14  and  C_17
REMARK                            x       y       z     vdW  Elec       q    Type
REMARK                         _______ _______ _______ _____ _____    ______ ____
ROOT
ATOM      1  C   UNL     1      -1.688   5.370  25.161  0.00  0.00    +0.012 C 
ATOM      2  C   UNL     1      -1.907   4.581  25.060  0.00  0.00    +0.103 C 
ATOM      3  C   UNL     1      -1.455   3.922  25.267  0.00  0.00    +0.051 C 
ATOM      4  C   UNL     1      -0.708   3.851  25.611  0.00  0.00    +0.004 C 
ATOM      5  C   UNL     1      -0.391   3.103  25.756  0.00  0.00    +0.001 C 
ATOM      6  C   UNL     1      -0.821   2.426  25.557  0.00  0.00    +0.008 C 
ATOM      7  C   UNL     1      -0.074   2.355  25.902  0.00  0.00    +0.000 C 
ATOM      8  C   UNL     1      -0.503   1.679  25.703  0.00  0.00    +0.034 C 
ATOM      9  C   UNL     1      -0.932   1.003  25.504  0.00  0.00    +0.023 A 
ATOM     10  C   UNL     1      -1.679   1.074  25.160  0.00  0.00    +0.063 A 
ATOM     11  N   UNL     1      -1.971   0.314  25.025  0.00  0.00    -0.226 NA
ATOM     12  C   UNL     1      -1.405  -0.226  25.285  0.00  0.00    +0.202 A 
ATOM     13  N   UNL     1      -1.469  -1.048  25.254  0.00  0.00    -0.070 NA
ATOM     24  S   UNL     1      -0.763   0.199  25.581  0.00  0.00    -0.053 S 
ATOM     25  C   UNL     1      -1.996   1.822  25.015  0.00  0.00    +0.044 C 
ATOM     26  C   UNL     1      -2.742   1.893  24.671  0.00  0.00    +0.006 C 
ATOM     27  C   UNL     1      -1.567   2.497  25.214  0.00  0.00    +0.046 C 
ATOM     28  C   UNL     1      -1.885   3.246  25.068  0.00  0.00    +0.170 C 
ATOM     29  O   UNL     1      -2.601   3.486  24.738  0.00  0.00    -0.452 OA
ATOM     30  C   UNL     1      -2.615   4.311  24.733  0.00  0.00    +0.316 C 
ATOM     31  O   UNL     1      -3.229   4.784  24.451  0.00  0.00    -0.250 OA
ENDROOT
BRANCH  13  14
ATOM     14  S   UNL     1      -2.148  -1.397  24.941  0.00  0.00    +0.095 S 
ATOM     15  O   UNL     1      -2.515  -1.346  25.679  0.00  0.00    -0.148 OA
ATOM     16  O   UNL     1      -1.782  -1.448  24.204  0.00  0.00    -0.148 OA
BRANCH  14  17
ATOM     17  C   UNL     1      -2.827  -1.746  24.628  0.00  0.00    +0.127 A 
ATOM     18  C   UNL     1      -2.915  -2.566  24.646  0.00  0.00    +0.020 A 
ATOM     19  C   UNL     1      -3.593  -2.915  24.333  0.00  0.00    -0.003 A 
ATOM     20  C   UNL     1      -4.185  -2.444  24.001  0.00  0.00    -0.022 A 
ATOM     21  C   UNL     1      -4.863  -2.793  23.688  0.00  0.00    +0.031 C 
ATOM     22  C   UNL     1      -4.096  -1.623  23.984  0.00  0.00    -0.003 A 
ATOM     23  C   UNL     1      -3.418  -1.275  24.297  0.00  0.00    +0.020 A 
ENDBRANCH  14  17
ENDBRANCH  13  14
TORSDOF 2
ENDMDL
MODEL 5
REMARK VINA RESULT:     -11.7      1.745      5.418
REMARK  Name = 
REMARK  2 active torsions:
REMARK  status: ('A' for Active; 'I' for Inactive)
REMARK    1  A    between atoms: N_13  and  S_14
REMARK    2  A    between atoms: S_14  and  C_17
REMARK                            x       y       z     vdW  Elec       q    Type
REMARK                         _______ _______ _______ _____ _____    ______ ____
ROOT
ATOM      1  C   UNL     1      -2.243  -3.550  24.389  0.00  0.00    +0.012 C 
ATOM      2  C   UNL     1      -2.489  -2.768  24.483  0.00  0.00    +0.103 C 
ATOM      3  C   UNL     1      -1.996  -2.107  24.532  0.00  0.00    +0.051 C 
ATOM      4  C   UNL     1      -1.176  -2.027  24.504  0.00  0.00    +0.004 C 
ATOM      5  C   UNL     1      -0.832  -1.280  24.568  0.00  0.00    +0.001 C 
ATOM      6  C   UNL     1      -1.309  -0.613  24.661  0.00  0.00    +0.008 C 
ATOM      7  C   UNL     1      -0.488  -0.533  24.633  0.00  0.00    +0.000 C 
ATOM      8  C   UNL     1      -0.965   0.134  24.726  0.00  0.00    +0.034 C 
ATOM      9  C   UNL     1      -1.442   0.801  24.818  0.00  0.00    +0.023 A 
ATOM     10  C   UNL     1      -2.262   0.721  24.846  0.00  0.00    +0.063 A 
ATOM     11  N   UNL     1      -2.589   1.473  24.941  0.00  0.00    -0.226 NA
ATOM     12  C   UNL     1      -1.970   2.018  24.972  0.00  0.00    +0.202 A 
ATOM     13  N   UNL     1      -2.046   2.834  25.062  0.00  0.00    -0.070 NA
ATOM     24  S   UNL     1      -1.261   1.602  24.896  0.00  0.00    -0.053 S 
ATOM     25  C   UNL     1      -2.606  -0.026  24.782  0.00  0.00    +0.044 C 
ATOM     26  C   UNL     1      -3.426  -0.106  24.810  0.00  0.00    +0.006 C 
ATOM     27  C   UNL     1      -2.129  -0.693  24.689  0.00  0.00    +0.046 C 
ATOM     28  C   UNL     1      -2.474  -1.441  24.625  0.00  0.00    +0.170 C 
ATOM     29  O   UNL     1      -3.260  -1.688  24.633  0.00  0.00    -0.452 OA
ATOM     30  C   UNL     1      -3.270  -2.509  24.546  0.00  0.00    +0.316 C 
ATOM     31  O   UNL     1      -3.941  -2.986  24.525  0.00  0.00    -0.250 OA
ENDROOT
BRANCH  13  14
ATOM     14  S   UNL     1      -2.795   3.173  25.132  0.00  0.00    +0.095 S 
ATOM     15  O   UNL     1      -2.860   3.199  24.310  0.00  0.00    -0.148 OA
ATOM     16  O   UNL     1      -2.731   3.147  25.954  0.00  0.00    -0.148 OA
BRANCH  14  17
ATOM     17  C   UNL     1      -3.544   3.511  25.202  0.00  0.00    +0.127 A 
ATOM     18  C   UNL     1      -3.913   3.549  25.938  0.00  0.00    +0.020 A 
ATOM     19  C   UNL     1      -4.662   3.888  26.008  0.00  0.00    -0.003 A 
ATOM     20  C   UNL     1      -5.043   4.189  25.341  0.00  0.00    -0.022 A 
ATOM     21  C   UNL     1      -5.792   4.528  25.411  0.00  0.00    +0.031 C 
ATOM     22  C   UNL     1      -4.673   4.151  24.603  0.00  0.00    -0.003 A 
ATOM     23  C   UNL     1      -3.925   3.813  24.534  0.00  0.00    +0.020 A 
ENDBRANCH  14  17
ENDBRANCH  13  14
TORSDOF 2
ENDMDL
MODEL 6
REMARK VINA RESULT:     -11.5      2.113      3.073
REMARK  Name = 
REMARK  2 active torsions:
REMARK  status: ('A' for Active; 'I' for Inactive)
REMARK    1  A    between atoms: N_13  and  S_14
REMARK    2  A    between atoms: S_14  and  C_17
REMARK                            x       y       z     vdW  Elec       q    Type
REMARK                         _______ _______ _______ _____ _____    ______ ____
ROOT
ATOM      1  C   UNL     1      -5.660   4.535  25.569  0.00  0.00    +0.012 C 
ATOM      2  C   UNL     1      -5.194   3.862  25.464  0.00  0.00    +0.103 C 
ATOM      3  C   UNL     1      -4.369   3.841  25.453  0.00  0.00    +0.051 C 
ATOM      4  C   UNL     1      -3.800   4.433  25.537  0.00  0.00    +0.004 C 
ATOM      5  C   UNL     1      -2.998   4.243  25.502  0.00  0.00    +0.001 C 
ATOM      6  C   UNL     1      -2.765   3.460  25.382  0.00  0.00    +0.008 C 
ATOM      7  C   UNL     1      -2.196   4.053  25.466  0.00  0.00    +0.000 C 
ATOM      8  C   UNL     1      -1.963   3.269  25.347  0.00  0.00    +0.034 C 
ATOM      9  C   UNL     1      -1.730   2.488  25.227  0.00  0.00    +0.023 A 
ATOM     10  C   UNL     1      -2.298   1.896  25.143  0.00  0.00    +0.063 A 
ATOM     11  N   UNL     1      -1.905   1.178  25.032  0.00  0.00    -0.226 NA
ATOM     12  C   UNL     1      -1.094   1.327  25.048  0.00  0.00    +0.202 A 
ATOM     13  N   UNL     1      -0.496   0.766  24.958  0.00  0.00    -0.070 NA
ATOM     24  S   UNL     1      -0.986   2.136  25.168  0.00  0.00    -0.053 S 
ATOM     25  C   UNL     1      -3.100   2.086  25.179  0.00  0.00    +0.044 C 
ATOM     26  C   UNL     1      -3.668   1.494  25.095  0.00  0.00    +0.006 C 
ATOM     27  C   UNL     1      -3.333   2.868  25.298  0.00  0.00    +0.046 C 
ATOM     28  C   UNL     1      -4.136   3.059  25.334  0.00  0.00    +0.170 C 
ATOM     29  O   UNL     1      -4.816   2.596  25.270  0.00  0.00    -0.452 OA
ATOM     30  C   UNL     1      -5.470   3.093  25.350  0.00  0.00    +0.316 C 
ATOM     31  O   UNL     1      -6.261   2.861  25.323  0.00  0.00    -0.250 OA
ENDROOT
BRANCH  13  14
ATOM     14  S   UNL     1      -0.690  -0.027  24.841  0.00  0.00    +0.095 S 
ATOM     15  O   UNL     1      -0.738  -0.136  25.657  0.00  0.00    -0.148 OA
ATOM     16  O   UNL     1      -0.641   0.082  24.024  0.00  0.00    -0.148 OA
BRANCH  14  17
ATOM     17  C   UNL     1      -0.883  -0.821  24.723  0.00  0.00    +0.127 A 
ATOM     18  C   UNL     1      -1.111  -1.083  23.975  0.00  0.00    +0.020 A 
ATOM     19  C   UNL     1      -1.304  -1.876  23.858  0.00  0.00    -0.003 A 
ATOM     20  C   UNL     1      -1.270  -2.408  24.488  0.00  0.00    -0.022 A 
ATOM     21  C   UNL     1      -1.463  -3.201  24.371  0.00  0.00    +0.031 C 
ATOM     22  C   UNL     1      -1.042  -2.144  25.237  0.00  0.00    -0.003 A 
ATOM     23  C   UNL     1      -0.849  -1.352  25.354  0.00  0.00    +0.020 A 
ENDBRANCH  14  17
ENDBRANCH  13  14
TORSDOF 2
ENDMDL
