MODEL 1
REMARK VINA RESULT:     -11.6      0.000      0.000
REMARK  Name = 
REMARK  6 active torsions:
REMARK  status: ('A' for Active; 'I' for Inactive)
REMARK    1  A    between atoms: C_6  and  C_7
REMARK    2  A    between atoms: N_9  and  C_10
REMARK    3  A    between atoms: C_10  and  C_11
REMARK    4  A    between atoms: C_13  and  C_14
REMARK    5  A    between atoms: C_18  and  N_19
REMARK    6  A    between atoms: N_22  and  C_25
REMARK                            x       y       z     vdW  Elec       q    Type
REMARK                         _______ _______ _______ _____ _____    ______ ____
ROOT
ATOM     11  C   UNL     1      -4.035   2.469  25.177  0.00  0.00    +0.154 C 
ATOM     12  O   UNL     1      -4.466   3.161  25.307  0.00  0.00    -0.350 OA
ATOM     13  C   UNL     1      -5.268   2.973  25.277  0.00  0.00    +0.180 C 
ATOM     16  C   UNL     1      -5.333   2.163  25.129  0.00  0.00    +0.198 C 
ATOM     17  O   UNL     1      -6.038   1.739  25.055  0.00  0.00    -0.219 OA
ATOM     18  C   UNL     1      -4.572   1.852  25.067  0.00  0.00    +0.120 C 
ENDROOT
BRANCH  18  19
ATOM     19  N   UNL     1      -4.380   1.063  24.921  0.00  0.00    -0.267 NA
ATOM     20  C   UNL     1      -4.181   0.821  24.159  0.00  0.00    +0.094 C 
ATOM     21  C   UNL     1      -3.989   0.031  24.013  0.00  0.00    +0.108 C 
ATOM     22  N   UNL     1      -3.998  -0.515  24.630  0.00  0.00    -0.305 N 
ATOM     23  C   UNL     1      -4.198  -0.273  25.394  0.00  0.00    +0.108 C 
ATOM     24  C   UNL     1      -4.389   0.516  25.539  0.00  0.00    +0.094 C 
BRANCH  22  25
ATOM     25  C   UNL     1      -3.807  -1.305  24.486  0.00  0.00    +0.048 A 
ATOM     26  C   UNL     1      -3.133  -1.635  24.830  0.00  0.00    +0.015 A 
ATOM     27  C   UNL     1      -2.942  -2.425  24.685  0.00  0.00    +0.001 A 
ATOM     28  C   UNL     1      -3.423  -2.883  24.197  0.00  0.00    +0.000 A 
ATOM     29  C   UNL     1      -4.096  -2.553  23.853  0.00  0.00    +0.001 A 
ATOM     30  C   UNL     1      -4.288  -1.763  23.997  0.00  0.00    +0.015 A 
ENDBRANCH  22  25
ENDBRANCH  18  19
BRANCH  13  14
ATOM     14  C   UNL     1      -5.894   3.499  25.377  0.00  0.00    +0.214 C 
ATOM     15  O   UNL     1      -5.770   4.222  25.754  0.00  0.00    -0.218 OA
ENDBRANCH  13  14
BRANCH  11  10
ATOM     10  C   UNL     1      -3.213   2.406  25.161  0.00  0.00    +0.146 C 
BRANCH  10   9
ATOM      7  C   UNL     1      -1.948   3.069  25.214  0.00  0.00    +0.281 C 
ATOM      8  O   UNL     1      -1.610   2.396  25.551  0.00  0.00    -0.267 OA
ATOM      9  N   UNL     1      -2.750   3.074  25.020  0.00  0.00    -0.198 NA
BRANCH   7   6
ATOM      1  C   UNL     1      -0.447   3.123  24.231  0.00  0.00    +0.131 C 
ATOM      2  N   UNL     1      -0.795   3.762  24.620  0.00  0.00    -0.320 N 
ATOM      3  C   UNL     1      -0.515   4.537  24.626  0.00  0.00    +0.076 A 
ATOM      4  C   UNL     1      -1.032   4.992  25.082  0.00  0.00    +0.020 A 
ATOM      5  C   UNL     1      -1.631   4.497  25.358  0.00  0.00    +0.023 A 
ATOM      6  C   UNL     1      -1.486   3.736  25.072  0.00  0.00    +0.116 A 
ENDBRANCH   7   6
ENDBRANCH  10   9
ENDBRANCH  11  10
TORSDOF 6
ENDMDL
MODEL 2
REMARK VINA RESULT:     -11.1      0.959      4.849
REMARK  Name = 
REMARK  6 active torsions:
REMARK  status: ('A' for Active; 'I' for Inactive)
REMARK    1  A    between atoms: C_6  and  C_7
REMARK    2  A    between atoms: N_9  and  C_10
REMARK    3  A    between atoms: C_10  and  C_11
REMARK    4  A    between atoms: C_13  and  C_14
REMARK    5  A    between atoms: C_18  and  N_19
REMARK    6  A    between atoms: N_22  and  C_25
REMARK                            x       y       z     vdW  Elec       q    Type
REMARK                         _______ _______ _______ _____ _____    ______ ____
ROOT
ATOM     11  C   UNL     1      -4.630   1.500  24.879  0.00  0.00    +0.154 C 
ATOM     12  O   UNL     1      -5.421   1.278  24.957  0.00  0.00    -0.350 OA
ATOM     13  C   UNL     1      -5.858   1.950  25.151  0.00  0.00    +0.180 C 
ATOM     16  C   UNL     1      -5.336   2.588  25.193  0.00  0.00    +0.198 C 
ATOM     17  O   UNL     1      -5.539   3.368  25.373  0.00  0.00    -0.219 OA
ATOM     18  C   UNL     1      -4.578   2.310  25.025  0.00  0.00    +0.120 C 
ENDROOT
BRANCH  18  19
ATOM     19  N   UNL     1      -3.889   2.764  25.006  0.00  0.00    -0.267 NA
ATOM     20  C   UNL     1      -3.440   2.860  25.691  0.00  0.00    +0.094 C 
ATOM     21  C   UNL     1      -2.750   3.313  25.673  0.00  0.00    +0.108 C 
ATOM     22  N   UNL     1      -2.511   3.669  24.968  0.00  0.00    -0.305 N 
ATOM     23  C   UNL     1      -2.960   3.573  24.283  0.00  0.00    +0.108 C 
ATOM     24  C   UNL     1      -3.649   3.120  24.302  0.00  0.00    +0.094 C 
BRANCH  22  25
ATOM     25  C   UNL     1      -1.821   4.122  24.949  0.00  0.00    +0.048 A 
ATOM     26  C   UNL     1      -1.092   3.758  24.817  0.00  0.00    +0.015 A 
ATOM     27  C   UNL     1      -0.403   4.211  24.797  0.00  0.00    +0.001 A 
ATOM     28  C   UNL     1      -0.443   5.027  24.909  0.00  0.00    +0.000 A 
ATOM     29  C   UNL     1      -1.171   5.391  25.041  0.00  0.00    +0.001 A 
ATOM     30  C   UNL     1      -1.861   4.939  25.060  0.00  0.00    +0.015 A 
ENDBRANCH  22  25
ENDBRANCH  18  19
BRANCH  13  14
ATOM     14  C   UNL     1      -6.671   1.979  25.281  0.00  0.00    +0.214 C 
ATOM     15  O   UNL     1      -7.187   1.605  24.756  0.00  0.00    -0.218 OA
ENDBRANCH  13  14
BRANCH  11  10
ATOM     10  C   UNL     1      -4.003   1.000  24.688  0.00  0.00    +0.146 C 
BRANCH  10   9
ATOM      7  C   UNL     1      -3.498  -0.315  24.450  0.00  0.00    +0.281 C 
ATOM      8  O   UNL     1      -2.776   0.005  24.212  0.00  0.00    -0.267 OA
ATOM      9  N   UNL     1      -4.111   0.182  24.688  0.00  0.00    -0.198 NA
BRANCH   7   6
ATOM      1  C   UNL     1      -2.867  -1.463  25.678  0.00  0.00    +0.131 C 
ATOM      2  N   UNL     1      -3.316  -1.660  25.015  0.00  0.00    -0.320 N 
ATOM      3  C   UNL     1      -3.555  -2.420  24.801  0.00  0.00    +0.076 A 
ATOM      4  C   UNL     1      -3.993  -2.362  24.103  0.00  0.00    +0.020 A 
ATOM      5  C   UNL     1      -4.025  -1.567  23.887  0.00  0.00    +0.023 A 
ATOM      6  C   UNL     1      -3.607  -1.133  24.451  0.00  0.00    +0.116 A 
ENDBRANCH   7   6
ENDBRANCH  10   9
ENDBRANCH  11  10
TORSDOF 6
ENDMDL
MODEL 3
REMARK VINA RESULT:     -10.5      2.209      5.964
REMARK  Name = 
REMARK  6 active torsions:
REMARK  status: ('A' for Active; 'I' for Inactive)
REMARK    1  A    between atoms: C_6  and  C_7
REMARK    2  A    between atoms: N_9  and  C_10
REMARK    3  A    between atoms: C_10  and  C_11
REMARK    4  A    between atoms: C_13  and  C_14
REMARK    5  A    between atoms: C_18  and  N_19
REMARK    6  A    between atoms: N_22  and  C_25
REMARK                            x       y       z     vdW  Elec       q    Type
REMARK                         _______ _______ _______ _____ _____    ______ ____
ROOT
ATOM     11  C   UNL     1      -0.774   0.136  24.253  0.00  0.00    +0.154 C 
ATOM     12  O   UNL     1      -0.270  -0.426  23.919  0.00  0.00    -0.350 OA
ATOM     13  C   UNL     1       0.396  -0.035  23.632  0.00  0.00    +0.180 C 
ATOM     16  C   UNL     1       0.304   0.771  23.788  0.00  0.00    +0.198 C 
ATOM     17  O   UNL     1       0.842   1.366  23.594  0.00  0.00    -0.219 OA
ATOM     18  C   UNL     1      -0.419   0.876  24.171  0.00  0.00    +0.120 C 
ENDROOT
BRANCH  18  19
ATOM     19  N   UNL     1      -0.731   1.595  24.428  0.00  0.00    -0.267 NA
ATOM     20  C   UNL     1      -0.565   1.870  25.188  0.00  0.00    +0.094 C 
ATOM     21  C   UNL     1      -0.878   2.589  25.445  0.00  0.00    +0.108 C 
ATOM     22  N   UNL     1      -1.356   3.033  24.941  0.00  0.00    -0.305 N 
ATOM     23  C   UNL     1      -1.523   2.759  24.181  0.00  0.00    +0.108 C 
ATOM     24  C   UNL     1      -1.210   2.040  23.925  0.00  0.00    +0.094 C 
BRANCH  22  25
ATOM     25  C   UNL     1      -1.669   3.752  25.197  0.00  0.00    +0.048 A 
ATOM     26  C   UNL     1      -2.363   3.764  25.645  0.00  0.00    +0.015 A 
ATOM     27  C   UNL     1      -2.676   4.483  25.901  0.00  0.00    +0.001 A 
ATOM     28  C   UNL     1      -2.296   5.190  25.710  0.00  0.00    +0.000 A 
ATOM     29  C   UNL     1      -1.603   5.178  25.263  0.00  0.00    +0.001 A 
ATOM     30  C   UNL     1      -1.290   4.459  25.006  0.00  0.00    +0.015 A 
ENDBRANCH  22  25
ENDBRANCH  18  19
BRANCH  13  14
ATOM     14  C   UNL     1       1.040  -0.384  23.255  0.00  0.00    +0.214 C 
ATOM     15  O   UNL     1       0.962  -0.675  22.487  0.00  0.00    -0.218 OA
ENDBRANCH  13  14
BRANCH  11  10
ATOM     10  C   UNL     1      -1.504  -0.016  24.605  0.00  0.00    +0.146 C 
BRANCH  10   9
ATOM      7  C   UNL     1      -2.606  -0.897  24.832  0.00  0.00    +0.281 C 
ATOM      8  O   UNL     1      -2.883  -0.397  25.427  0.00  0.00    -0.267 OA
ATOM      9  N   UNL     1      -1.917  -0.706  24.421  0.00  0.00    -0.198 NA
BRANCH   7   6
ATOM      1  C   UNL     1      -4.196  -0.987  24.004  0.00  0.00    +0.131 C 
ATOM      2  N   UNL     1      -3.749  -1.629  24.267  0.00  0.00    -0.320 N 
ATOM      3  C   UNL     1      -3.954  -2.424  24.195  0.00  0.00    +0.076 A 
ATOM      4  C   UNL     1      -3.350  -2.875  24.531  0.00  0.00    +0.020 A 
ATOM      5  C   UNL     1      -2.771  -2.358  24.810  0.00  0.00    +0.023 A 
ATOM      6  C   UNL     1      -3.018  -1.587  24.647  0.00  0.00    +0.116 A 
ENDBRANCH   7   6
ENDBRANCH  10   9
ENDBRANCH  11  10
TORSDOF 6
ENDMDL
MODEL 4
REMARK VINA RESULT:     -10.1      1.603      3.281
REMARK  Name = 
REMARK  6 active torsions:
REMARK  status: ('A' for Active; 'I' for Inactive)
REMARK    1  A    between atoms: C_6  and  C_7
REMARK    2  A    between atoms: N_9  and  C_10
REMARK    3  A    between atoms: C_10  and  C_11
REMARK    4  A    between atoms: C_13  and  C_14
REMARK    5  A    between atoms: C_18  and  N_19
REMARK    6  A    between atoms: N_22  and  C_25
REMARK                            x       y       z     vdW  Elec       q    Type
REMARK                         _______ _______ _______ _____ _____    ______ ____
ROOT
ATOM     11  C   UNL     1      -2.023   1.897  24.981  0.00  0.00    +0.154 C 
ATOM     12  O   UNL     1      -1.469   2.449  25.245  0.00  0.00    -0.350 OA
ATOM     13  C   UNL     1      -0.834   2.037  25.572  0.00  0.00    +0.180 C 
ATOM     16  C   UNL     1      -0.996   1.230  25.510  0.00  0.00    +0.198 C 
ATOM     17  O   UNL     1      -0.507   0.617  25.768  0.00  0.00    -0.219 OA
ATOM     18  C   UNL     1      -1.730   1.143  25.145  0.00  0.00    +0.120 C 
ENDROOT
BRANCH  18  19
ATOM     19  N   UNL     1      -2.106   0.429  24.974  0.00  0.00    -0.267 NA
ATOM     20  C   UNL     1      -2.025   0.089  24.227  0.00  0.00    +0.094 C 
ATOM     21  C   UNL     1      -2.401  -0.626  24.057  0.00  0.00    +0.108 C 
ATOM     22  N   UNL     1      -2.857  -1.000  24.633  0.00  0.00    -0.305 N 
ATOM     23  C   UNL     1      -2.937  -0.660  25.381  0.00  0.00    +0.108 C 
ATOM     24  C   UNL     1      -2.561   0.055  25.551  0.00  0.00    +0.094 C 
BRANCH  22  25
ATOM     25  C   UNL     1      -3.233  -1.714  24.463  0.00  0.00    +0.048 A 
ATOM     26  C   UNL     1      -3.919  -1.720  24.004  0.00  0.00    +0.015 A 
ATOM     27  C   UNL     1      -4.295  -2.435  23.834  0.00  0.00    +0.001 A 
ATOM     28  C   UNL     1      -3.985  -3.142  24.123  0.00  0.00    +0.000 A 
ATOM     29  C   UNL     1      -3.300  -3.137  24.582  0.00  0.00    +0.001 A 
ATOM     30  C   UNL     1      -2.923  -2.422  24.752  0.00  0.00    +0.015 A 
ENDBRANCH  22  25
ENDBRANCH  18  19
BRANCH  13  14
ATOM     14  C   UNL     1      -0.157   2.372  25.902  0.00  0.00    +0.214 C 
ATOM     15  O   UNL     1      -0.057   3.191  25.898  0.00  0.00    -0.218 OA
ENDBRANCH  13  14
BRANCH  11  10
ATOM     10  C   UNL     1      -2.743   2.069  24.618  0.00  0.00    +0.146 C 
BRANCH  10   9
ATOM      7  C   UNL     1      -3.991   2.766  24.622  0.00  0.00    +0.281 C 
ATOM      8  O   UNL     1      -4.098   2.579  23.825  0.00  0.00    -0.267 OA
ATOM      9  N   UNL     1      -3.313   2.511  25.018  0.00  0.00    -0.198 NA
BRANCH   7   6
ATOM      1  C   UNL     1      -5.602   2.178  25.150  0.00  0.00    +0.131 C 
ATOM      2  N   UNL     1      -5.301   2.937  25.266  0.00  0.00    -0.320 N 
ATOM      3  C   UNL     1      -5.688   3.560  25.644  0.00  0.00    +0.076 A 
ATOM      4  C   UNL     1      -5.186   4.215  25.635  0.00  0.00    +0.020 A 
ATOM      5  C   UNL     1      -4.489   3.998  25.251  0.00  0.00    +0.023 A 
ATOM      6  C   UNL     1      -4.560   3.208  25.023  0.00  0.00    +0.116 A 
ENDBRANCH   7   6
ENDBRANCH  10   9
ENDBRANCH  11  10
TORSDOF 6
ENDMDL
MODEL 5
REMARK VINA RESULT:      -9.4      2.296      3.930
REMARK  Name = 
REMARK  6 active torsions:
REMARK  status: ('A' for Active; 'I' for Inactive)
REMARK    1  A    between atoms: C_6  and  C_7
REMARK    2  A    between atoms: N_9  and  C_10
REMARK    3  A    between atoms: C_10  and  C_11
REMARK    4  A    between atoms: C_13  and  C_14
REMARK    5  A    between atoms: C_18  and  N_19
REMARK    6  A    between atoms: N_22  and  C_25
REMARK                            x       y       z     vdW  Elec       q    Type
REMARK                         _______ _______ _______ _____ _____    ______ ____
ROOT
ATOM     11  C   UNL     1       0.089   1.366  24.385  0.00  0.00    +0.154 C 
ATOM     12  O   UNL     1       0.781   1.667  24.051  0.00  0.00    -0.350 OA
ATOM     13  C   UNL     1       1.106   1.084  23.567  0.00  0.00    +0.180 C 
ATOM     16  C   UNL     1       0.615   0.421  23.603  0.00  0.00    +0.198 C 
ATOM     17  O   UNL     1       0.732  -0.291  23.202  0.00  0.00    -0.219 OA
ATOM     18  C   UNL     1      -0.013   0.596  24.108  0.00  0.00    +0.120 C 
ENDROOT
BRANCH  18  19
ATOM     19  N   UNL     1      -0.635   0.089  24.302  0.00  0.00    -0.267 NA
ATOM     20  C   UNL     1      -1.351   0.140  23.896  0.00  0.00    +0.094 C 
ATOM     21  C   UNL     1      -1.973  -0.367  24.090  0.00  0.00    +0.108 C 
ATOM     22  N   UNL     1      -1.877  -0.924  24.691  0.00  0.00    -0.305 N 
ATOM     23  C   UNL     1      -1.161  -0.976  25.097  0.00  0.00    +0.108 C 
ATOM     24  C   UNL     1      -0.540  -0.469  24.902  0.00  0.00    +0.094 C 
BRANCH  22  25
ATOM     25  C   UNL     1      -2.498  -1.432  24.885  0.00  0.00    +0.048 A 
ATOM     26  C   UNL     1      -2.580  -2.153  24.492  0.00  0.00    +0.015 A 
ATOM     27  C   UNL     1      -3.201  -2.660  24.687  0.00  0.00    +0.001 A 
ATOM     28  C   UNL     1      -3.739  -2.446  25.274  0.00  0.00    +0.000 A 
ATOM     29  C   UNL     1      -3.658  -1.726  25.666  0.00  0.00    +0.001 A 
ATOM     30  C   UNL     1      -3.037  -1.218  25.472  0.00  0.00    +0.015 A 
ENDBRANCH  22  25
ENDBRANCH  18  19
BRANCH  13  14
ATOM     14  C   UNL     1       1.799   1.149  23.126  0.00  0.00    +0.214 C 
ATOM     15  O   UNL     1       2.463   1.516  23.451  0.00  0.00    -0.218 OA
ENDBRANCH  13  14
BRANCH  11  10
ATOM     10  C   UNL     1      -0.411   1.765  24.905  0.00  0.00    +0.146 C 
BRANCH  10   9
ATOM      7  C   UNL     1      -0.908   3.013  25.393  0.00  0.00    +0.281 C 
ATOM      8  O   UNL     1      -1.059   2.667  26.126  0.00  0.00    -0.267 OA
ATOM      9  N   UNL     1      -0.584   2.562  24.783  0.00  0.00    -0.198 NA
BRANCH   7   6
ATOM      1  C   UNL     1      -2.487   3.810  25.697  0.00  0.00    +0.131 C 
ATOM      2  N   UNL     1      -1.807   4.177  25.409  0.00  0.00    -0.320 N 
ATOM      3  C   UNL     1      -1.732   4.974  25.211  0.00  0.00    +0.076 A 
ATOM      4  C   UNL     1      -0.960   5.100  24.948  0.00  0.00    +0.020 A 
ATOM      5  C   UNL     1      -0.557   4.381  24.984  0.00  0.00    +0.023 A 
ATOM      6  C   UNL     1      -1.080   3.810  25.269  0.00  0.00    +0.116 A 
ENDBRANCH   7   6
ENDBRANCH  10   9
ENDBRANCH  11  10
TORSDOF 6
ENDMDL
MODEL 6
REMARK VINA RESULT:      -8.7     16.009     18.955
REMARK  Name = 
REMARK  6 active torsions:
REMARK  status: ('A' for Active; 'I' for Inactive)
REMARK    1  A    between atoms: C_6  and  C_7
REMARK    2  A    between atoms: N_9  and  C_10
REMARK    3  A    between atoms: C_10  and  C_11
REMARK    4  A    between atoms: C_13  and  C_14
REMARK    5  A    between atoms: C_18  and  N_19
REMARK    6  A    between atoms: N_22  and  C_25
REMARK                            x       y       z     vdW  Elec       q    Type
REMARK                         _______ _______ _______ _____ _____    ______ ____
ROOT
ATOM     11  C   UNL     1      12.420   8.329  19.028  0.00  0.00    +0.154 C 
ATOM     12  O   UNL     1      11.761   8.563  18.590  0.00  0.00    -0.350 OA
ATOM     13  C   UNL     1      11.900   8.375  17.799  0.00  0.00    +0.180 C 
ATOM     16  C   UNL     1      12.646   8.025  17.749  0.00  0.00    +0.198 C 
ATOM     17  O   UNL     1      13.007   7.751  17.058  0.00  0.00    -0.219 OA
ATOM     18  C   UNL     1      12.966   7.997  18.508  0.00  0.00    +0.120 C 
ENDROOT
BRANCH  18  19
ATOM     19  N   UNL     1      13.705   7.689  18.711  0.00  0.00    -0.267 NA
ATOM     20  C   UNL     1      13.776   6.897  18.929  0.00  0.00    +0.094 C 
ATOM     21  C   UNL     1      14.515   6.590  19.133  0.00  0.00    +0.108 C 
ATOM     22  N   UNL     1      15.181   7.075  19.118  0.00  0.00    -0.305 N 
ATOM     23  C   UNL     1      15.110   7.868  18.899  0.00  0.00    +0.108 C 
ATOM     24  C   UNL     1      14.371   8.175  18.696  0.00  0.00    +0.094 C 
BRANCH  22  25
ATOM     25  C   UNL     1      15.920   6.769  19.321  0.00  0.00    +0.048 A 
ATOM     26  C   UNL     1      16.288   7.011  20.019  0.00  0.00    +0.015 A 
ATOM     27  C   UNL     1      17.027   6.704  20.222  0.00  0.00    +0.001 A 
ATOM     28  C   UNL     1      17.397   6.157  19.728  0.00  0.00    +0.000 A 
ATOM     29  C   UNL     1      17.029   5.916  19.031  0.00  0.00    +0.001 A 
ATOM     30  C   UNL     1      16.290   6.222  18.827  0.00  0.00    +0.015 A 
ENDBRANCH  22  25
ENDBRANCH  18  19
BRANCH  13  14
ATOM     14  C   UNL     1      11.386   8.513  17.169  0.00  0.00    +0.214 C 
ATOM     15  O   UNL     1      10.582   8.346  17.249  0.00  0.00    -0.218 OA
ENDBRANCH  13  14
BRANCH  11  10
ATOM     10  C   UNL     1      12.514   8.414  19.843  0.00  0.00    +0.146 C 
BRANCH  10   9
ATOM      7  C   UNL     1      11.953   8.458  21.157  0.00  0.00    +0.281 C 
ATOM      8  O   UNL     1      12.709   8.540  21.477  0.00  0.00    -0.267 OA
ATOM      9  N   UNL     1      11.856   8.394  20.340  0.00  0.00    -0.198 NA
BRANCH   7   6
ATOM      1  C   UNL     1      11.171   6.982  21.815  0.00  0.00    +0.131 C 
ATOM      2  N   UNL     1      10.935   7.760  21.955  0.00  0.00    -0.320 N 
ATOM      3  C   UNL     1      10.298   7.996  22.423  0.00  0.00    +0.076 A 
ATOM      4  C   UNL     1      10.263   8.820  22.409  0.00  0.00    +0.020 A 
ATOM      5  C   UNL     1      10.879   9.094  21.933  0.00  0.00    +0.023 A 
ATOM      6  C   UNL     1      11.294   8.438  21.652  0.00  0.00    +0.116 A 
ENDBRANCH   7   6
ENDBRANCH  10   9
ENDBRANCH  11  10
TORSDOF 6
ENDMDL
MODEL 7
REMARK VINA RESULT:      -8.4     16.447     19.273
REMARK  Name = 
REMARK  6 active torsions:
REMARK  status: ('A' for Active; 'I' for Inactive)
REMARK    1  A    between atoms: C_6  and  C_7
REMARK    2  A    between atoms: N_9  and  C_10
REMARK    3  A    between atoms: C_10  and  C_11
REMARK    4  A    between atoms: C_13  and  C_14
REMARK    5  A    between atoms: C_18  and  N_19
REMARK    6  A    between atoms: N_22  and  C_25
REMARK                            x       y       z     vdW  Elec       q    Type
REMARK                         _______ _______ _______ _____ _____    ______ ____
ROOT
ATOM     11  C   UNL     1      13.846   7.928  18.418  0.00  0.00    +0.154 C 
ATOM     12  O   UNL     1      14.105   8.034  17.641  0.00  0.00    -0.350 OA
ATOM     13  C   UNL     1      13.517   8.439  17.229  0.00  0.00    +0.180 C 
ATOM     16  C   UNL     1      12.894   8.583  17.751  0.00  0.00    +0.198 C 
ATOM     17  O   UNL     1      12.190   8.975  17.568  0.00  0.00    -0.219 OA
ATOM     18  C   UNL     1      13.097   8.268  18.485  0.00  0.00    +0.120 C 
ENDROOT
BRANCH  18  19
ATOM     19  N   UNL     1      12.633   8.289  19.167  0.00  0.00    -0.267 NA
ATOM     20  C   UNL     1      12.703   8.918  19.695  0.00  0.00    +0.094 C 
ATOM     21  C   UNL     1      12.239   8.938  20.377  0.00  0.00    +0.108 C 
ATOM     22  N   UNL     1      11.705   8.329  20.530  0.00  0.00    -0.305 N 
ATOM     23  C   UNL     1      11.634   7.699  20.002  0.00  0.00    +0.108 C 
ATOM     24  C   UNL     1      12.098   7.679  19.320  0.00  0.00    +0.094 C 
BRANCH  22  25
ATOM     25  C   UNL     1      11.240   8.349  21.212  0.00  0.00    +0.048 A 
ATOM     26  C   UNL     1      11.014   9.074  21.535  0.00  0.00    +0.015 A 
ATOM     27  C   UNL     1      10.549   9.094  22.217  0.00  0.00    +0.001 A 
ATOM     28  C   UNL     1      10.312   8.390  22.575  0.00  0.00    +0.000 A 
ATOM     29  C   UNL     1      10.538   7.666  22.252  0.00  0.00    +0.001 A 
ATOM     30  C   UNL     1      11.003   7.645  21.570  0.00  0.00    +0.015 A 
ENDBRANCH  22  25
ENDBRANCH  18  19
BRANCH  13  14
ATOM     14  C   UNL     1      13.545   8.660  16.435  0.00  0.00    +0.214 C 
ATOM     15  O   UNL     1      14.073   8.289  15.921  0.00  0.00    -0.218 OA
ENDBRANCH  13  14
BRANCH  11  10
ATOM     10  C   UNL     1      14.262   7.550  19.020  0.00  0.00    +0.146 C 
BRANCH  10   9
ATOM      7  C   UNL     1      15.408   6.819  19.464  0.00  0.00    +0.281 C 
ATOM      8  O   UNL     1      15.099   6.799  20.229  0.00  0.00    -0.267 OA
ATOM      9  N   UNL     1      14.989   7.194  18.860  0.00  0.00    -0.198 NA
BRANCH   7   6
ATOM      1  C   UNL     1      16.873   6.898  20.498  0.00  0.00    +0.131 C 
ATOM      2  N   UNL     1      16.808   6.500  19.778  0.00  0.00    -0.320 N 
ATOM      3  C   UNL     1      17.405   6.068  19.407  0.00  0.00    +0.076 A 
ATOM      4  C   UNL     1      17.101   5.765  18.702  0.00  0.00    +0.020 A 
ATOM      5  C   UNL     1      16.315   6.009  18.638  0.00  0.00    +0.023 A 
ATOM      6  C   UNL     1      16.134   6.464  19.303  0.00  0.00    +0.116 A 
ENDBRANCH   7   6
ENDBRANCH  10   9
ENDBRANCH  11  10
TORSDOF 6
ENDMDL
MODEL 8
REMARK VINA RESULT:      -8.0     16.459     19.291
REMARK  Name = 
REMARK  6 active torsions:
REMARK  status: ('A' for Active; 'I' for Inactive)
REMARK    1  A    between atoms: C_6  and  C_7
REMARK    2  A    between atoms: N_9  and  C_10
REMARK    3  A    between atoms: C_10  and  C_11
REMARK    4  A    between atoms: C_13  and  C_14
REMARK    5  A    between atoms: C_18  and  N_19
REMARK    6  A    between atoms: N_22  and  C_25
REMARK                            x       y       z     vdW  Elec       q    Type
REMARK                         _______ _______ _______ _____ _____    ______ ____
ROOT
ATOM     11  C   UNL     1      14.520   7.052  19.296  0.00  0.00    +0.154 C 
ATOM     12  O   UNL     1      15.289   6.812  19.116  0.00  0.00    -0.350 OA
ATOM     13  C   UNL     1      15.695   6.701  19.825  0.00  0.00    +0.180 C 
ATOM     16  C   UNL     1      15.176   6.872  20.444  0.00  0.00    +0.198 C 
ATOM     17  O   UNL     1      15.353   6.833  21.250  0.00  0.00    -0.219 OA
ATOM     18  C   UNL     1      14.451   7.089  20.117  0.00  0.00    +0.120 C 
ENDROOT
BRANCH  18  19
ATOM     19  N   UNL     1      13.774   7.305  20.538  0.00  0.00    -0.267 NA
ATOM     20  C   UNL     1      13.660   8.090  20.760  0.00  0.00    +0.094 C 
ATOM     21  C   UNL     1      12.983   8.306  21.180  0.00  0.00    +0.108 C 
ATOM     22  N   UNL     1      12.422   7.735  21.379  0.00  0.00    -0.305 N 
ATOM     23  C   UNL     1      12.537   6.949  21.157  0.00  0.00    +0.108 C 
ATOM     24  C   UNL     1      13.213   6.734  20.737  0.00  0.00    +0.094 C 
BRANCH  22  25
ATOM     25  C   UNL     1      11.745   7.950  21.799  0.00  0.00    +0.048 A 
ATOM     26  C   UNL     1      11.781   8.562  22.353  0.00  0.00    +0.015 A 
ATOM     27  C   UNL     1      11.105   8.777  22.773  0.00  0.00    +0.001 A 
ATOM     28  C   UNL     1      10.393   8.381  22.641  0.00  0.00    +0.000 A 
ATOM     29  C   UNL     1      10.358   7.770  22.088  0.00  0.00    +0.001 A 
ATOM     30  C   UNL     1      11.034   7.555  21.667  0.00  0.00    +0.015 A 
ENDBRANCH  22  25
ENDBRANCH  18  19
BRANCH  13  14
ATOM     14  C   UNL     1      16.479   6.461  19.903  0.00  0.00    +0.214 C 
ATOM     15  O   UNL     1      17.007   6.565  19.277  0.00  0.00    -0.218 OA
ENDBRANCH  13  14
BRANCH  11  10
ATOM     10  C   UNL     1      13.926   7.224  18.751  0.00  0.00    +0.146 C 
BRANCH  10   9
ATOM      7  C   UNL     1      13.578   7.686  17.444  0.00  0.00    +0.281 C 
ATOM      8  O   UNL     1      12.892   7.228  17.465  0.00  0.00    -0.267 OA
ATOM      9  N   UNL     1      14.095   7.684  18.087  0.00  0.00    -0.198 NA
BRANCH   7   6
ATOM      1  C   UNL     1      12.622   9.087  16.859  0.00  0.00    +0.131 C 
ATOM      2  N   UNL     1      13.308   8.790  16.511  0.00  0.00    -0.320 N 
ATOM      3  C   UNL     1      13.675   9.084  15.834  0.00  0.00    +0.076 A 
ATOM      4  C   UNL     1      14.342   8.622  15.684  0.00  0.00    +0.020 A 
ATOM      5  C   UNL     1      14.387   8.041  16.269  0.00  0.00    +0.023 A 
ATOM      6  C   UNL     1      13.748   8.145  16.780  0.00  0.00    +0.116 A 
ENDBRANCH   7   6
ENDBRANCH  10   9
ENDBRANCH  11  10
TORSDOF 6
ENDMDL
