MODEL 1
REMARK VINA RESULT:     -18.8      0.000      0.000
REMARK  Name = 
REMARK  2 active torsions:
REMARK  status: ('A' for Active; 'I' for Inactive)
REMARK    1  A    between atoms: C_5  and  C_8
REMARK    2  A    between atoms: C_19  and  C_20
REMARK                            x       y       z     vdW  Elec       q    Type
REMARK                         _______ _______ _______ _____ _____    ______ ____
ROOT
ATOM      8  C   UNL     1      -2.920   1.714  23.378  0.00  0.00    +0.249 C 
ATOM      9  O   UNL     1      -2.390   2.058  22.769  0.00  0.00    -0.270 OA
ATOM     10  N   UNL     1      -3.277   2.407  23.640  0.00  0.00    -0.276 N 
ATOM     11  C   UNL     1      -3.356   3.238  23.588  0.00  0.00    +0.096 C 
ATOM     12  C   UNL     1      -4.043   3.383  24.283  0.00  0.00    +0.043 C 
ATOM     13  C   UNL     1      -4.594   3.666  24.813  0.00  0.00    +0.011 C 
ATOM     14  C   UNL     1      -4.322   3.045  24.629  0.00  0.00    +0.058 C 
ATOM     15  C   UNL     1      -3.657   2.921  23.954  0.00  0.00    +0.099 C 
ATOM     16  C   UNL     1      -4.373   2.149  24.826  0.00  0.00    +0.041 A 
ATOM     17  C   UNL     1      -4.769   1.624  25.324  0.00  0.00    +0.013 A 
ATOM     18  C   UNL     1      -4.607   0.816  25.285  0.00  0.00    +0.006 A 
ATOM     19  C   UNL     1      -4.049   0.533  24.747  0.00  0.00    +0.062 A 
ATOM     29  C   UNL     1      -3.653   1.058  24.249  0.00  0.00    +0.261 A 
ATOM     30  O   UNL     1      -2.939   1.016  23.510  0.00  0.00    -0.267 OA
ATOM     31  N   UNL     1      -3.815   1.866  24.288  0.00  0.00    -0.299 N 
ATOM     32  C   UNL     1      -4.089   2.444  24.482  0.00  0.00    +0.110 C 
ENDROOT
BRANCH  19  20
ATOM     20  C   UNL     1      -3.887  -0.274  24.708  0.00  0.00    +0.034 A 
ATOM     21  C   UNL     1      -4.186  -0.803  24.150  0.00  0.00    +0.007 A 
ATOM     22  C   UNL     1      -3.882  -1.551  24.318  0.00  0.00    +0.006 A 
ATOM     23  C   UNL     1      -3.394  -1.485  24.981  0.00  0.00    +0.029 A 
ATOM     24  S   UNL     1      -3.398  -0.696  25.221  0.00  0.00    -0.087 S 
ATOM     25  C   UNL     1      -3.010  -2.152  25.278  0.00  0.00    +0.006 A 
ATOM     26  C   UNL     1      -3.114  -2.884  24.914  0.00  0.00    +0.001 A 
ATOM     27  C   UNL     1      -3.601  -2.951  24.252  0.00  0.00    +0.000 A 
ATOM     28  C   UNL     1      -3.985  -2.284  23.954  0.00  0.00    +0.001 A 
ENDBRANCH  19  20
BRANCH   8   5
ATOM      1  F   UNL     1      -4.515  -1.251  25.464  0.00  0.00    -0.204 F 
ATOM      2  C   UNL     1      -4.073  -0.486  24.948  0.00  0.00    +0.140 A 
ATOM      3  C   UNL     1      -4.386  -0.037  24.232  0.00  0.00    +0.030 A 
ATOM      4  C   UNL     1      -4.032   0.664  23.722  0.00  0.00    +0.007 A 
ATOM      5  C   UNL     1      -3.296   0.999  23.886  0.00  0.00    +0.054 A 
ATOM      6  C   UNL     1      -2.846   0.719  24.517  0.00  0.00    +0.007 A 
ATOM      7  C   UNL     1      -3.062   0.187  24.943  0.00  0.00    +0.030 A 
ENDBRANCH   8   5
TORSDOF 2
ENDMDL
MODEL 2
REMARK VINA RESULT:     -18.3      1.400      3.907
REMARK  Name = 
REMARK  2 active torsions:
REMARK  status: ('A' for Active; 'I' for Inactive)
REMARK    1  A    between atoms: C_5  and  C_8
REMARK    2  A    between atoms: C_19  and  C_20
REMARK                            x       y       z     vdW  Elec       q    Type
REMARK                         _______ _______ _______ _____ _____    ______ ____
ROOT
ATOM      8  C   UNL     1      -2.010  -0.672  25.107  0.00  0.00    +0.249 C 
ATOM      9  O   UNL     1      -1.204  -0.849  25.406  0.00  0.00    -0.270 OA
ATOM     10  N   UNL     1      -2.257  -1.442  24.949  0.00  0.00    -0.276 N 
ATOM     11  C   UNL     1      -2.094  -2.261  24.946  0.00  0.00    +0.096 C 
ATOM     12  C   UNL     1      -2.950  -2.599  24.587  0.00  0.00    +0.043 C 
ATOM     13  C   UNL     1      -3.582  -3.030  24.308  0.00  0.00    +0.011 C 
ATOM     14  C   UNL     1      -3.424  -2.356  24.423  0.00  0.00    +0.058 C 
ATOM     15  C   UNL     1      -2.591  -2.045  24.771  0.00  0.00    +0.099 C 
ATOM     16  C   UNL     1      -3.779  -1.511  24.354  0.00  0.00    +0.041 A 
ATOM     17  C   UNL     1      -4.467  -1.123  24.118  0.00  0.00    +0.013 A 
ATOM     18  C   UNL     1      -4.513  -0.301  24.167  0.00  0.00    +0.006 A 
ATOM     19  C   UNL     1      -3.871   0.133  24.451  0.00  0.00    +0.062 A 
ATOM     29  C   UNL     1      -3.183  -0.255  24.686  0.00  0.00    +0.261 A 
ATOM     30  O   UNL     1      -2.259  -0.008  25.064  0.00  0.00    -0.267 OA
ATOM     31  N   UNL     1      -3.137  -1.078  24.638  0.00  0.00    -0.299 N 
ATOM     32  C   UNL     1      -3.312  -1.713  24.519  0.00  0.00    +0.110 C 
ENDROOT
BRANCH  19  20
ATOM     20  C   UNL     1      -3.918   0.955  24.499  0.00  0.00    +0.034 A 
ATOM     21  C   UNL     1      -4.146   1.390  25.161  0.00  0.00    +0.007 A 
ATOM     22  C   UNL     1      -4.114   2.191  24.964  0.00  0.00    +0.006 A 
ATOM     23  C   UNL     1      -3.867   2.250  24.178  0.00  0.00    +0.029 A 
ATOM     24  S   UNL     1      -3.747   1.487  23.891  0.00  0.00    -0.087 S 
ATOM     25  C   UNL     1      -3.785   2.993  23.827  0.00  0.00    +0.006 A 
ATOM     26  C   UNL     1      -3.949   3.674  24.261  0.00  0.00    +0.001 A 
ATOM     27  C   UNL     1      -4.195   3.615  25.046  0.00  0.00    +0.000 A 
ATOM     28  C   UNL     1      -4.278   2.874  25.397  0.00  0.00    +0.001 A 
ENDBRANCH  19  20
BRANCH   8   5
ATOM      1  F   UNL     1      -5.032   1.711  24.169  0.00  0.00    -0.204 F 
ATOM      2  C   UNL     1      -4.236   1.104  24.379  0.00  0.00    +0.140 A 
ATOM      3  C   UNL     1      -4.092   0.598  25.111  0.00  0.00    +0.030 A 
ATOM      4  C   UNL     1      -3.390   0.029  25.357  0.00  0.00    +0.007 A 
ATOM      5  C   UNL     1      -2.734  -0.096  24.873  0.00  0.00    +0.054 A 
ATOM      6  C   UNL     1      -2.679   0.286  24.144  0.00  0.00    +0.007 A 
ATOM      7  C   UNL     1      -3.182   0.733  23.900  0.00  0.00    +0.030 A 
ENDBRANCH   8   5
TORSDOF 2
ENDMDL
