MODEL 1
REMARK VINA RESULT:     -13.1      0.000      0.000
REMARK  Name = 
REMARK  7 active torsions:
REMARK  status: ('A' for Active; 'I' for Inactive)
REMARK    1  A    between atoms: C_2  and  C_5
REMARK    2  A    between atoms: C_8  and  C_11
REMARK    3  A    between atoms: C_13  and  C_14
REMARK    4  A    between atoms: C_14  and  C_15
REMARK    5  A    between atoms: C_20  and  C_21
REMARK    6  A    between atoms: C_21  and  C_22
REMARK    7  A    between atoms: N_24  and  C_25
REMARK                            x       y       z     vdW  Elec       q    Type
REMARK                         _______ _______ _______ _____ _____    ______ ____
ROOT
ATOM     11  C   UNL     1      -4.338   0.721  24.589  0.00  0.00    +0.177 A 
ATOM     12  C   UNL     1      -3.791   1.333  24.505  0.00  0.00    +0.058 A 
ATOM     13  C   UNL     1      -4.202   2.048  24.532  0.00  0.00    +0.101 A 
ATOM     28  N   UNL     1      -5.003   1.879  24.633  0.00  0.00    -0.081 NA
ATOM     29  O   UNL     1      -5.088   1.059  24.668  0.00  0.00    -0.354 OA
ENDROOT
BRANCH  11   8
ATOM      5  C   UNL     1      -3.825  -1.699  24.601  0.00  0.00    -0.023 A 
ATOM      6  C   UNL     1      -4.118  -1.343  23.916  0.00  0.00    -0.004 A 
ATOM      7  C   UNL     1      -4.289  -0.537  23.913  0.00  0.00    +0.003 A 
ATOM      8  C   UNL     1      -4.167  -0.085  24.593  0.00  0.00    +0.037 A 
ATOM      9  C   UNL     1      -3.874  -0.442  25.277  0.00  0.00    +0.003 A 
ATOM     10  C   UNL     1      -3.703  -1.249  25.281  0.00  0.00    -0.004 A 
BRANCH   5   2
ATOM      1  C   UNL     1      -3.481  -3.313  24.611  0.00  0.00    +0.004 C 
ATOM      2  C   UNL     1      -3.653  -2.507  24.605  0.00  0.00    +0.019 C 
ATOM      3  C   UNL     1      -4.045  -2.594  23.885  0.00  0.00    +0.004 C 
ATOM      4  C   UNL     1      -3.262  -2.419  25.327  0.00  0.00    +0.004 C 
ENDBRANCH   5   2
ENDBRANCH  11   8
BRANCH  13  14
ATOM     14  C   UNL     1      -3.871   2.801  24.469  0.00  0.00    +0.051 C 
BRANCH  14  15
ATOM     15  C   UNL     1      -3.808   3.281  25.139  0.00  0.00    +0.024 C 
ATOM     16  C   UNL     1      -4.476   3.439  25.597  0.00  0.00    +0.089 C 
ATOM     17  N   UNL     1      -4.413   3.918  26.265  0.00  0.00    -0.218 NA
ATOM     18  C   UNL     1      -3.682   4.239  26.476  0.00  0.00    +0.089 C 
ATOM     19  C   UNL     1      -3.015   4.080  26.018  0.00  0.00    +0.019 C 
ATOM     20  C   UNL     1      -3.078   3.601  25.349  0.00  0.00    +0.012 C 
BRANCH  20  21
ATOM     21  C   UNL     1      -2.411   3.442  24.891  0.00  0.00    +0.087 C 
BRANCH  21  22
ATOM     22  C   UNL     1      -1.663   3.431  25.242  0.00  0.00    +0.241 C 
ATOM     23  O   UNL     1      -1.312   4.136  25.486  0.00  0.00    -0.273 OA
ATOM     24  N   UNL     1      -1.268   2.715  25.348  0.00  0.00    -0.207 NA
BRANCH  24  25
ATOM     25  C   UNL     1      -0.520   2.704  25.697  0.00  0.00    +0.095 C 
ATOM     26  C   UNL     1       0.289   2.854  25.657  0.00  0.00    +0.023 C 
ATOM     27  C   UNL     1      -0.037   2.535  26.344  0.00  0.00    +0.023 C 
ENDBRANCH  24  25
ENDBRANCH  21  22
ENDBRANCH  20  21
ENDBRANCH  14  15
ENDBRANCH  13  14
TORSDOF 7
ENDMDL
MODEL 2
REMARK VINA RESULT:     -11.7      1.476      2.915
REMARK  Name = 
REMARK  7 active torsions:
REMARK  status: ('A' for Active; 'I' for Inactive)
REMARK    1  A    between atoms: C_2  and  C_5
REMARK    2  A    between atoms: C_8  and  C_11
REMARK    3  A    between atoms: C_13  and  C_14
REMARK    4  A    between atoms: C_14  and  C_15
REMARK    5  A    between atoms: C_20  and  C_21
REMARK    6  A    between atoms: C_21  and  C_22
REMARK    7  A    between atoms: N_24  and  C_25
REMARK                            x       y       z     vdW  Elec       q    Type
REMARK                         _______ _______ _______ _____ _____    ______ ____
ROOT
ATOM     11  C   UNL     1      -1.534   0.007  24.987  0.00  0.00    +0.177 A 
ATOM     12  C   UNL     1      -1.704   0.725  25.356  0.00  0.00    +0.058 A 
ATOM     13  C   UNL     1      -0.999   1.150  25.422  0.00  0.00    +0.101 A 
ATOM     28  N   UNL     1      -0.395   0.695  25.094  0.00  0.00    -0.081 NA
ATOM     29  O   UNL     1      -0.725  -0.012  24.825  0.00  0.00    -0.354 OA
ENDROOT
BRANCH  11   8
ATOM      5  C   UNL     1      -3.164  -1.778  24.460  0.00  0.00    -0.023 A 
ATOM      6  C   UNL     1      -2.364  -1.962  24.545  0.00  0.00    -0.004 A 
ATOM      7  C   UNL     1      -1.821  -1.367  24.721  0.00  0.00    +0.003 A 
ATOM      8  C   UNL     1      -2.077  -0.588  24.812  0.00  0.00    +0.037 A 
ATOM      9  C   UNL     1      -2.877  -0.404  24.727  0.00  0.00    +0.003 A 
ATOM     10  C   UNL     1      -3.421  -1.001  24.551  0.00  0.00    -0.004 A 
BRANCH   5   2
ATOM      1  C   UNL     1      -4.251  -2.970  24.109  0.00  0.00    +0.004 C 
ATOM      2  C   UNL     1      -3.708  -2.374  24.284  0.00  0.00    +0.019 C 
ATOM      3  C   UNL     1      -4.086  -1.871  23.751  0.00  0.00    +0.004 C 
ATOM      4  C   UNL     1      -3.329  -2.877  24.818  0.00  0.00    +0.004 C 
ENDBRANCH   5   2
ENDBRANCH  11   8
BRANCH  13  14
ATOM     14  C   UNL     1      -0.914   1.900  25.757  0.00  0.00    +0.051 C 
BRANCH  14  15
ATOM     15  C   UNL     1      -0.785   2.556  25.272  0.00  0.00    +0.024 C 
ATOM     16  C   UNL     1      -0.192   2.535  24.699  0.00  0.00    +0.089 C 
ATOM     17  N   UNL     1      -0.064   3.190  24.215  0.00  0.00    -0.218 NA
ATOM     18  C   UNL     1      -0.529   3.867  24.304  0.00  0.00    +0.089 C 
ATOM     19  C   UNL     1      -1.121   3.887  24.877  0.00  0.00    +0.019 C 
ATOM     20  C   UNL     1      -1.250   3.231  25.361  0.00  0.00    +0.012 C 
BRANCH  20  21
ATOM     21  C   UNL     1      -1.842   3.252  25.934  0.00  0.00    +0.087 C 
BRANCH  21  22
ATOM     22  C   UNL     1      -2.552   3.645  25.780  0.00  0.00    +0.241 C 
ATOM     23  O   UNL     1      -2.564   4.468  25.731  0.00  0.00    -0.273 OA
ATOM     24  N   UNL     1      -3.248   3.214  25.675  0.00  0.00    -0.207 NA
BRANCH  24  25
ATOM     25  C   UNL     1      -3.956   3.607  25.521  0.00  0.00    +0.095 C 
ATOM     26  C   UNL     1      -4.479   3.954  24.986  0.00  0.00    +0.023 C 
ATOM     27  C   UNL     1      -4.661   3.941  25.791  0.00  0.00    +0.023 C 
ENDBRANCH  24  25
ENDBRANCH  21  22
ENDBRANCH  20  21
ENDBRANCH  14  15
ENDBRANCH  13  14
TORSDOF 7
ENDMDL
MODEL 3
REMARK VINA RESULT:     -11.3      2.269      6.050
REMARK  Name = 
REMARK  7 active torsions:
REMARK  status: ('A' for Active; 'I' for Inactive)
REMARK    1  A    between atoms: C_2  and  C_5
REMARK    2  A    between atoms: C_8  and  C_11
REMARK    3  A    between atoms: C_13  and  C_14
REMARK    4  A    between atoms: C_14  and  C_15
REMARK    5  A    between atoms: C_20  and  C_21
REMARK    6  A    between atoms: C_21  and  C_22
REMARK    7  A    between atoms: N_24  and  C_25
REMARK                            x       y       z     vdW  Elec       q    Type
REMARK                         _______ _______ _______ _____ _____    ______ ____
ROOT
ATOM     11  C   UNL     1      -0.969   2.154  25.678  0.00  0.00    +0.177 A 
ATOM     12  C   UNL     1      -1.402   1.517  25.383  0.00  0.00    +0.058 A 
ATOM     13  C   UNL     1      -1.068   0.823  25.680  0.00  0.00    +0.101 A 
ATOM     28  N   UNL     1      -0.430   1.031  26.159  0.00  0.00    -0.081 NA
ATOM     29  O   UNL     1      -0.368   1.854  26.158  0.00  0.00    -0.354 OA
ENDROOT
BRANCH  11   8
ATOM      5  C   UNL     1      -1.399   4.546  25.209  0.00  0.00    -0.023 A 
ATOM      6  C   UNL     1      -1.966   4.094  25.604  0.00  0.00    -0.004 A 
ATOM      7  C   UNL     1      -1.822   3.298  25.760  0.00  0.00    +0.003 A 
ATOM      8  C   UNL     1      -1.112   2.951  25.522  0.00  0.00    +0.037 A 
ATOM      9  C   UNL     1      -0.545   3.402  25.127  0.00  0.00    +0.003 A 
ATOM     10  C   UNL     1      -0.689   4.200  24.971  0.00  0.00    -0.004 A 
BRANCH   5   2
ATOM      1  C   UNL     1      -1.684   6.140  24.895  0.00  0.00    +0.004 C 
ATOM      2  C   UNL     1      -1.542   5.343  25.052  0.00  0.00    +0.019 C 
ATOM      3  C   UNL     1      -2.296   5.272  25.377  0.00  0.00    +0.004 C 
ATOM      4  C   UNL     1      -0.786   5.414  24.727  0.00  0.00    +0.004 C 
ENDBRANCH   5   2
ENDBRANCH  11   8
BRANCH  13  14
ATOM     14  C   UNL     1      -1.327   0.055  25.526  0.00  0.00    +0.051 C 
BRANCH  14  15
ATOM     15  C   UNL     1      -0.946  -0.401  24.952  0.00  0.00    +0.024 C 
ATOM     16  C   UNL     1      -0.284  -0.102  24.561  0.00  0.00    +0.089 C 
ATOM     17  N   UNL     1       0.097  -0.558  23.988  0.00  0.00    -0.218 NA
ATOM     18  C   UNL     1      -0.185  -1.313  23.806  0.00  0.00    +0.089 C 
ATOM     19  C   UNL     1      -0.847  -1.610  24.198  0.00  0.00    +0.019 C 
ATOM     20  C   UNL     1      -1.227  -1.155  24.771  0.00  0.00    +0.012 C 
BRANCH  20  21
ATOM     21  C   UNL     1      -1.889  -1.453  25.162  0.00  0.00    +0.087 C 
BRANCH  21  22
ATOM     22  C   UNL     1      -2.430  -1.927  24.756  0.00  0.00    +0.241 C 
ATOM     23  O   UNL     1      -2.190  -2.651  24.444  0.00  0.00    -0.273 OA
ATOM     24  N   UNL     1      -3.210  -1.675  24.663  0.00  0.00    -0.207 NA
BRANCH  24  25
ATOM     25  C   UNL     1      -3.750  -2.148  24.257  0.00  0.00    +0.095 C 
ATOM     26  C   UNL     1      -4.357  -2.226  23.704  0.00  0.00    +0.023 C 
ATOM     27  C   UNL     1      -4.078  -2.890  24.108  0.00  0.00    +0.023 C 
ENDBRANCH  24  25
ENDBRANCH  21  22
ENDBRANCH  20  21
ENDBRANCH  14  15
ENDBRANCH  13  14
TORSDOF 7
ENDMDL
MODEL 4
REMARK VINA RESULT:     -11.1      1.813      5.061
REMARK  Name = 
REMARK  7 active torsions:
REMARK  status: ('A' for Active; 'I' for Inactive)
REMARK    1  A    between atoms: C_2  and  C_5
REMARK    2  A    between atoms: C_8  and  C_11
REMARK    3  A    between atoms: C_13  and  C_14
REMARK    4  A    between atoms: C_14  and  C_15
REMARK    5  A    between atoms: C_20  and  C_21
REMARK    6  A    between atoms: C_21  and  C_22
REMARK    7  A    between atoms: N_24  and  C_25
REMARK                            x       y       z     vdW  Elec       q    Type
REMARK                         _______ _______ _______ _____ _____    ______ ____
ROOT
ATOM     11  C   UNL     1      -3.465   1.973  25.024  0.00  0.00    +0.177 A 
ATOM     12  C   UNL     1      -3.275   1.231  25.330  0.00  0.00    +0.058 A 
ATOM     13  C   UNL     1      -3.919   0.730  25.202  0.00  0.00    +0.101 A 
ATOM     28  N   UNL     1      -4.506   1.163  24.816  0.00  0.00    -0.081 NA
ATOM     29  O   UNL     1      -4.226   1.931  24.706  0.00  0.00    -0.354 OA
ENDROOT
BRANCH  11   8
ATOM      5  C   UNL     1      -2.009   3.974  25.051  0.00  0.00    -0.023 A 
ATOM      6  C   UNL     1      -2.705   3.964  25.495  0.00  0.00    -0.004 A 
ATOM      7  C   UNL     1      -3.190   3.296  25.485  0.00  0.00    +0.003 A 
ATOM      8  C   UNL     1      -2.980   2.640  25.033  0.00  0.00    +0.037 A 
ATOM      9  C   UNL     1      -2.284   2.650  24.589  0.00  0.00    +0.003 A 
ATOM     10  C   UNL     1      -1.799   3.318  24.599  0.00  0.00    -0.004 A 
BRANCH   5   2
ATOM      1  C   UNL     1      -1.038   5.307  25.070  0.00  0.00    +0.004 C 
ATOM      2  C   UNL     1      -1.524   4.641  25.061  0.00  0.00    +0.019 C 
ATOM      3  C   UNL     1      -2.181   5.118  25.203  0.00  0.00    +0.004 C 
ATOM      4  C   UNL     1      -0.866   4.163  24.918  0.00  0.00    +0.004 C 
ENDBRANCH   5   2
ENDBRANCH  11   8
BRANCH  13  14
ATOM     14  C   UNL     1      -3.967  -0.064  25.421  0.00  0.00    +0.051 C 
BRANCH  14  15
ATOM     15  C   UNL     1      -4.028  -0.649  24.840  0.00  0.00    +0.024 C 
ATOM     16  C   UNL     1      -4.606  -0.588  24.254  0.00  0.00    +0.089 C 
ATOM     17  N   UNL     1      -4.667  -1.172  23.674  0.00  0.00    -0.218 NA
ATOM     18  C   UNL     1      -4.151  -1.817  23.681  0.00  0.00    +0.089 C 
ATOM     19  C   UNL     1      -3.574  -1.876  24.268  0.00  0.00    +0.019 C 
ATOM     20  C   UNL     1      -3.513  -1.292  24.848  0.00  0.00    +0.012 C 
BRANCH  20  21
ATOM     21  C   UNL     1      -2.937  -1.352  25.434  0.00  0.00    +0.087 C 
BRANCH  21  22
ATOM     22  C   UNL     1      -2.188  -1.648  25.248  0.00  0.00    +0.241 C 
ATOM     23  O   UNL     1      -2.111  -2.408  24.938  0.00  0.00    -0.273 OA
ATOM     24  N   UNL     1      -1.518  -1.183  25.373  0.00  0.00    -0.207 NA
BRANCH  24  25
ATOM     25  C   UNL     1      -0.771  -1.479  25.188  0.00  0.00    +0.095 C 
ATOM     26  C   UNL     1      -0.102  -1.478  24.705  0.00  0.00    +0.023 C 
ATOM     27  C   UNL     1      -0.146  -1.992  25.349  0.00  0.00    +0.023 C 
ENDBRANCH  24  25
ENDBRANCH  21  22
ENDBRANCH  20  21
ENDBRANCH  14  15
ENDBRANCH  13  14
TORSDOF 7
ENDMDL
