MODEL 1
REMARK VINA RESULT:     -12.8      0.000      0.000
REMARK  Name = 
REMARK  7 active torsions:
REMARK  status: ('A' for Active; 'I' for Inactive)
REMARK    1  A    between atoms: O_2  and  C_3
REMARK    2  A    between atoms: C_6  and  C_9
REMARK    3  A    between atoms: C_11  and  C_12
REMARK    4  A    between atoms: C_12  and  C_13
REMARK    5  A    between atoms: C_18  and  C_19
REMARK    6  A    between atoms: C_19  and  N_20
REMARK    7  A    between atoms: C_21  and  C_23
REMARK                            x       y       z     vdW  Elec       q    Type
REMARK                         _______ _______ _______ _____ _____    ______ ____
ROOT
ATOM     13  C   UNL     1      -3.907   3.056  24.952  0.00  0.00    +0.121 C 
ATOM     14  C   UNL     1      -4.132   3.705  25.407  0.00  0.00    +0.033 C 
ATOM     15  C   UNL     1      -3.560   4.162  25.788  0.00  0.00    +0.038 C 
ATOM     16  C   UNL     1      -2.761   3.968  25.713  0.00  0.00    +0.181 C 
ATOM     17  O   UNL     1      -2.188   4.423  26.093  0.00  0.00    -0.220 OA
ATOM     18  C   UNL     1      -2.535   3.318  25.256  0.00  0.00    +0.167 C 
ATOM     32  O   UNL     1      -3.109   2.863  24.876  0.00  0.00    -0.354 OA
ENDROOT
BRANCH  13  12
ATOM     12  C   UNL     1      -4.479   2.600  24.571  0.00  0.00    +0.079 C 
BRANCH  12  11
ATOM      9  C   UNL     1      -4.512   0.487  24.875  0.00  0.00    +0.177 A 
ATOM     10  C   UNL     1      -4.223   1.155  24.485  0.00  0.00    +0.058 A 
ATOM     11  C   UNL     1      -4.602   1.817  24.800  0.00  0.00    +0.103 A 
ATOM     33  N   UNL     1      -5.124   1.559  25.384  0.00  0.00    -0.081 NA
ATOM     34  O   UNL     1      -5.068   0.737  25.431  0.00  0.00    -0.354 OA
BRANCH   9   6
ATOM      3  C   UNL     1      -3.827  -1.853  24.452  0.00  0.00    +0.139 A 
ATOM      4  C   UNL     1      -4.151  -1.402  23.843  0.00  0.00    +0.037 A 
ATOM      5  C   UNL     1      -4.380  -0.622  23.984  0.00  0.00    +0.006 A 
ATOM      6  C   UNL     1      -4.284  -0.293  24.734  0.00  0.00    +0.037 A 
ATOM      7  C   UNL     1      -3.959  -0.744  25.344  0.00  0.00    +0.006 A 
ATOM      8  C   UNL     1      -3.730  -1.524  25.202  0.00  0.00    +0.037 A 
BRANCH   3   2
ATOM      1  C   UNL     1      -3.266  -3.082  24.918  0.00  0.00    +0.252 C 
ATOM      2  O   UNL     1      -3.598  -2.634  24.311  0.00  0.00    -0.471 OA
ENDBRANCH   3   2
ENDBRANCH   9   6
ENDBRANCH  12  11
ENDBRANCH  13  12
BRANCH  18  19
ATOM     19  C   UNL     1      -1.737   3.124  25.181  0.00  0.00    +0.147 C 
BRANCH  19  20
ATOM     20  N   UNL     1      -1.518   2.388  24.881  0.00  0.00    -0.199 NA
ATOM     21  C   UNL     1      -0.732   2.143  24.922  0.00  0.00    +0.265 C 
ATOM     22  O   UNL     1      -0.164   2.634  25.264  0.00  0.00    -0.268 OA
BRANCH  21  23
ATOM     23  C   UNL     1      -0.512   1.406  24.622  0.00  0.00    +0.058 A 
ATOM     24  C   UNL     1      -0.177   1.350  23.870  0.00  0.00    +0.008 A 
ATOM     25  C   UNL     1       0.042   0.614  23.571  0.00  0.00    +0.040 A 
ATOM     26  C   UNL     1      -0.074  -0.067  24.022  0.00  0.00    +0.176 A 
ATOM     27  O   UNL     1       0.086  -0.862  23.874  0.00  0.00    -0.435 OA
ATOM     28  C   UNL     1      -0.150  -1.298  24.533  0.00  0.00    +0.429 C 
ATOM     29  O   UNL     1      -0.456  -0.771  25.089  0.00  0.00    -0.435 OA
ATOM     30  C   UNL     1      -0.409  -0.011  24.774  0.00  0.00    +0.177 A 
ATOM     31  C   UNL     1      -0.629   0.726  25.074  0.00  0.00    +0.045 A 
ENDBRANCH  21  23
ENDBRANCH  19  20
ENDBRANCH  18  19
TORSDOF 7
ENDMDL
MODEL 2
REMARK VINA RESULT:     -12.6      1.282      5.431
REMARK  Name = 
REMARK  7 active torsions:
REMARK  status: ('A' for Active; 'I' for Inactive)
REMARK    1  A    between atoms: O_2  and  C_3
REMARK    2  A    between atoms: C_6  and  C_9
REMARK    3  A    between atoms: C_11  and  C_12
REMARK    4  A    between atoms: C_12  and  C_13
REMARK    5  A    between atoms: C_18  and  C_19
REMARK    6  A    between atoms: C_19  and  N_20
REMARK    7  A    between atoms: C_21  and  C_23
REMARK                            x       y       z     vdW  Elec       q    Type
REMARK                         _______ _______ _______ _____ _____    ______ ____
ROOT
ATOM     13  C   UNL     1      -1.821  -1.269  25.142  0.00  0.00    +0.121 C 
ATOM     14  C   UNL     1      -1.770  -2.035  24.843  0.00  0.00    +0.033 C 
ATOM     15  C   UNL     1      -2.432  -2.390  24.502  0.00  0.00    +0.038 C 
ATOM     16  C   UNL     1      -3.145  -1.978  24.460  0.00  0.00    +0.181 C 
ATOM     17  O   UNL     1      -3.808  -2.331  24.119  0.00  0.00    -0.220 OA
ATOM     18  C   UNL     1      -3.197  -1.210  24.760  0.00  0.00    +0.167 C 
ATOM     32  O   UNL     1      -2.534  -0.856  25.101  0.00  0.00    -0.354 OA
ENDROOT
BRANCH  13  12
ATOM     12  C   UNL     1      -1.159  -0.913  25.484  0.00  0.00    +0.079 C 
BRANCH  12  11
ATOM      9  C   UNL     1      -0.624   1.086  24.959  0.00  0.00    +0.177 A 
ATOM     10  C   UNL     1      -1.046   0.552  25.425  0.00  0.00    +0.058 A 
ATOM     11  C   UNL     1      -0.860  -0.211  25.170  0.00  0.00    +0.103 A 
ATOM     33  N   UNL     1      -0.324  -0.148  24.547  0.00  0.00    -0.081 NA
ATOM     34  O   UNL     1      -0.177   0.653  24.416  0.00  0.00    -0.354 OA
BRANCH   9   6
ATOM      3  C   UNL     1      -0.687   3.552  25.153  0.00  0.00    +0.139 A 
ATOM      4  C   UNL     1      -0.723   3.084  25.831  0.00  0.00    +0.037 A 
ATOM      5  C   UNL     1      -0.702   2.262  25.766  0.00  0.00    +0.006 A 
ATOM      6  C   UNL     1      -0.645   1.908  25.024  0.00  0.00    +0.037 A 
ATOM      7  C   UNL     1      -0.609   2.376  24.345  0.00  0.00    +0.006 A 
ATOM      8  C   UNL     1      -0.630   3.198  24.410  0.00  0.00    +0.037 A 
BRANCH   3   2
ATOM      1  C   UNL     1      -1.427   4.774  25.162  0.00  0.00    +0.252 C 
ATOM      2  O   UNL     1      -0.708   4.375  25.218  0.00  0.00    -0.471 OA
ENDBRANCH   3   2
ENDBRANCH   9   6
ENDBRANCH  12  11
ENDBRANCH  13  12
BRANCH  18  19
ATOM     19  C   UNL     1      -3.910  -0.797  24.718  0.00  0.00    +0.147 C 
BRANCH  19  20
ATOM     20  N   UNL     1      -3.912   0.026  24.755  0.00  0.00    -0.199 NA
ATOM     21  C   UNL     1      -4.623   0.440  24.687  0.00  0.00    +0.265 C 
ATOM     22  O   UNL     1      -5.331   0.030  24.580  0.00  0.00    -0.268 OA
BRANCH  21  23
ATOM     23  C   UNL     1      -4.626   1.265  24.725  0.00  0.00    +0.058 A 
ATOM     24  C   UNL     1      -4.282   1.707  24.119  0.00  0.00    +0.008 A 
ATOM     25  C   UNL     1      -4.285   2.530  24.157  0.00  0.00    +0.040 A 
ATOM     26  C   UNL     1      -4.631   2.913  24.800  0.00  0.00    +0.176 A 
ATOM     27  O   UNL     1      -4.717   3.711  24.988  0.00  0.00    -0.435 OA
ATOM     28  C   UNL     1      -5.114   3.763  25.709  0.00  0.00    +0.429 C 
ATOM     29  O   UNL     1      -5.273   2.996  25.968  0.00  0.00    -0.435 OA
ATOM     30  C   UNL     1      -4.975   2.471  25.406  0.00  0.00    +0.177 A 
ATOM     31  C   UNL     1      -4.972   1.646  25.369  0.00  0.00    +0.045 A 
ENDBRANCH  21  23
ENDBRANCH  19  20
ENDBRANCH  18  19
TORSDOF 7
ENDMDL
MODEL 3
REMARK VINA RESULT:     -12.5      1.289      3.859
REMARK  Name = 
REMARK  7 active torsions:
REMARK  status: ('A' for Active; 'I' for Inactive)
REMARK    1  A    between atoms: O_2  and  C_3
REMARK    2  A    between atoms: C_6  and  C_9
REMARK    3  A    between atoms: C_11  and  C_12
REMARK    4  A    between atoms: C_12  and  C_13
REMARK    5  A    between atoms: C_18  and  C_19
REMARK    6  A    between atoms: C_19  and  N_20
REMARK    7  A    between atoms: C_21  and  C_23
REMARK                            x       y       z     vdW  Elec       q    Type
REMARK                         _______ _______ _______ _____ _____    ______ ____
ROOT
ATOM     13  C   UNL     1      -0.623   2.346  24.683  0.00  0.00    +0.121 C 
ATOM     14  C   UNL     1      -0.045   2.839  25.003  0.00  0.00    +0.033 C 
ATOM     15  C   UNL     1      -0.233   3.613  25.215  0.00  0.00    +0.038 C 
ATOM     16  C   UNL     1      -1.001   3.895  25.106  0.00  0.00    +0.181 C 
ATOM     17  O   UNL     1      -1.191   4.670  25.317  0.00  0.00    -0.220 OA
ATOM     18  C   UNL     1      -1.580   3.402  24.785  0.00  0.00    +0.167 C 
ATOM     32  O   UNL     1      -1.390   2.627  24.574  0.00  0.00    -0.354 OA
ENDROOT
BRANCH  13  12
ATOM     12  C   UNL     1      -0.434   1.571  24.471  0.00  0.00    +0.079 C 
BRANCH  12  11
ATOM      9  C   UNL     1      -1.507  -0.136  25.175  0.00  0.00    +0.177 A 
ATOM     10  C   UNL     1      -1.322   0.404  24.578  0.00  0.00    +0.058 A 
ATOM     11  C   UNL     1      -0.771   0.938  24.880  0.00  0.00    +0.103 A 
ATOM     33  N   UNL     1      -0.616   0.730  25.663  0.00  0.00    -0.081 NA
ATOM     34  O   UNL     1      -1.071   0.066  25.845  0.00  0.00    -0.354 OA
BRANCH   9   6
ATOM      3  C   UNL     1      -3.094  -2.026  24.985  0.00  0.00    +0.139 A 
ATOM      4  C   UNL     1      -3.340  -1.313  25.318  0.00  0.00    +0.037 A 
ATOM      5  C   UNL     1      -2.811  -0.682  25.381  0.00  0.00    +0.006 A 
ATOM      6  C   UNL     1      -2.036  -0.765  25.112  0.00  0.00    +0.037 A 
ATOM      7  C   UNL     1      -1.789  -1.479  24.779  0.00  0.00    +0.006 A 
ATOM      8  C   UNL     1      -2.318  -2.109  24.715  0.00  0.00    +0.037 A 
BRANCH   3   2
ATOM      1  C   UNL     1      -3.964  -2.837  24.193  0.00  0.00    +0.252 C 
ATOM      2  O   UNL     1      -3.623  -2.656  24.922  0.00  0.00    -0.471 OA
ENDBRANCH   3   2
ENDBRANCH   9   6
ENDBRANCH  12  11
ENDBRANCH  13  12
BRANCH  18  19
ATOM     19  C   UNL     1      -2.348   3.684  24.676  0.00  0.00    +0.147 C 
BRANCH  19  20
ATOM     20  N   UNL     1      -2.992   3.219  24.895  0.00  0.00    -0.199 NA
ATOM     21  C   UNL     1      -3.752   3.423  24.646  0.00  0.00    +0.265 C 
ATOM     22  O   UNL     1      -3.867   4.092  24.178  0.00  0.00    -0.268 OA
BRANCH  21  23
ATOM     23  C   UNL     1      -4.398   2.957  24.865  0.00  0.00    +0.058 A 
ATOM     24  C   UNL     1      -4.662   2.357  24.365  0.00  0.00    +0.008 A 
ATOM     25  C   UNL     1      -5.307   1.892  24.585  0.00  0.00    +0.040 A 
ATOM     26  C   UNL     1      -5.688   2.027  25.304  0.00  0.00    +0.176 A 
ATOM     27  O   UNL     1      -6.333   1.662  25.665  0.00  0.00    -0.435 OA
ATOM     28  C   UNL     1      -6.467   2.036  26.387  0.00  0.00    +0.429 C 
ATOM     29  O   UNL     1      -5.905   2.634  26.473  0.00  0.00    -0.435 OA
ATOM     30  C   UNL     1      -5.424   2.628  25.803  0.00  0.00    +0.177 A 
ATOM     31  C   UNL     1      -4.778   3.094  25.584  0.00  0.00    +0.045 A 
ENDBRANCH  21  23
ENDBRANCH  19  20
ENDBRANCH  18  19
TORSDOF 7
ENDMDL
MODEL 4
REMARK VINA RESULT:     -12.5      1.232      2.262
REMARK  Name = 
REMARK  7 active torsions:
REMARK  status: ('A' for Active; 'I' for Inactive)
REMARK    1  A    between atoms: O_2  and  C_3
REMARK    2  A    between atoms: C_6  and  C_9
REMARK    3  A    between atoms: C_11  and  C_12
REMARK    4  A    between atoms: C_12  and  C_13
REMARK    5  A    between atoms: C_18  and  C_19
REMARK    6  A    between atoms: C_19  and  N_20
REMARK    7  A    between atoms: C_21  and  C_23
REMARK                            x       y       z     vdW  Elec       q    Type
REMARK                         _______ _______ _______ _____ _____    ______ ____
ROOT
ATOM     13  C   UNL     1      -5.057   1.971  24.889  0.00  0.00    +0.121 C 
ATOM     14  C   UNL     1      -5.752   2.286  25.201  0.00  0.00    +0.033 C 
ATOM     15  C   UNL     1      -5.744   3.031  25.556  0.00  0.00    +0.038 C 
ATOM     16  C   UNL     1      -5.041   3.460  25.599  0.00  0.00    +0.181 C 
ATOM     17  O   UNL     1      -5.033   4.204  25.954  0.00  0.00    -0.220 OA
ATOM     18  C   UNL     1      -4.345   3.144  25.286  0.00  0.00    +0.167 C 
ATOM     32  O   UNL     1      -4.354   2.400  24.931  0.00  0.00    -0.354 OA
ENDROOT
BRANCH  13  12
ATOM     12  C   UNL     1      -5.064   1.226  24.533  0.00  0.00    +0.079 C 
BRANCH  12  11
ATOM      9  C   UNL     1      -3.719  -0.320  25.132  0.00  0.00    +0.177 A 
ATOM     10  C   UNL     1      -3.925   0.301  24.630  0.00  0.00    +0.058 A 
ATOM     11  C   UNL     1      -4.653   0.600  24.880  0.00  0.00    +0.103 A 
ATOM     33  N   UNL     1      -4.896   0.164  25.536  0.00  0.00    -0.081 NA
ATOM     34  O   UNL     1      -4.319  -0.405  25.692  0.00  0.00    -0.354 OA
BRANCH   9   6
ATOM      3  C   UNL     1      -1.662  -1.689  24.985  0.00  0.00    +0.139 A 
ATOM      4  C   UNL     1      -2.353  -1.943  24.615  0.00  0.00    +0.037 A 
ATOM      5  C   UNL     1      -3.039  -1.487  24.664  0.00  0.00    +0.006 A 
ATOM      6  C   UNL     1      -3.033  -0.777  25.083  0.00  0.00    +0.037 A 
ATOM      7  C   UNL     1      -2.341  -0.522  25.453  0.00  0.00    +0.006 A 
ATOM      8  C   UNL     1      -1.656  -0.978  25.404  0.00  0.00    +0.037 A 
BRANCH   3   2
ATOM      1  C   UNL     1      -0.242  -1.804  25.094  0.00  0.00    +0.252 C 
ATOM      2  O   UNL     1      -0.975  -2.145  24.936  0.00  0.00    -0.471 OA
ENDBRANCH   3   2
ENDBRANCH   9   6
ENDBRANCH  12  11
ENDBRANCH  13  12
BRANCH  18  19
ATOM     19  C   UNL     1      -3.642   3.573  25.329  0.00  0.00    +0.147 C 
BRANCH  19  20
ATOM     20  N   UNL     1      -2.918   3.179  25.336  0.00  0.00    -0.199 NA
ATOM     21  C   UNL     1      -2.215   3.607  25.285  0.00  0.00    +0.265 C 
ATOM     22  O   UNL     1      -2.235   4.429  25.226  0.00  0.00    -0.268 OA
BRANCH  21  23
ATOM     23  C   UNL     1      -1.489   3.212  25.292  0.00  0.00    +0.058 A 
ATOM     24  C   UNL     1      -1.071   3.131  25.999  0.00  0.00    +0.008 A 
ATOM     25  C   UNL     1      -0.347   2.736  26.006  0.00  0.00    +0.040 A 
ATOM     26  C   UNL     1      -0.041   2.422  25.307  0.00  0.00    +0.176 A 
ATOM     27  O   UNL     1       0.654   2.009  25.144  0.00  0.00    -0.435 OA
ATOM     28  C   UNL     1       0.665   1.834  24.339  0.00  0.00    +0.429 C 
ATOM     29  O   UNL     1      -0.023   2.140  24.002  0.00  0.00    -0.435 OA
ATOM     30  C   UNL     1      -0.459   2.504  24.600  0.00  0.00    +0.177 A 
ATOM     31  C   UNL     1      -1.184   2.899  24.593  0.00  0.00    +0.045 A 
ENDBRANCH  21  23
ENDBRANCH  19  20
ENDBRANCH  18  19
TORSDOF 7
ENDMDL
MODEL 5
REMARK VINA RESULT:     -12.5      1.279      3.850
REMARK  Name = 
REMARK  7 active torsions:
REMARK  status: ('A' for Active; 'I' for Inactive)
REMARK    1  A    between atoms: O_2  and  C_3
REMARK    2  A    between atoms: C_6  and  C_9
REMARK    3  A    between atoms: C_11  and  C_12
REMARK    4  A    between atoms: C_12  and  C_13
REMARK    5  A    between atoms: C_18  and  C_19
REMARK    6  A    between atoms: C_19  and  N_20
REMARK    7  A    between atoms: C_21  and  C_23
REMARK                            x       y       z     vdW  Elec       q    Type
REMARK                         _______ _______ _______ _____ _____    ______ ____
ROOT
ATOM     13  C   UNL     1      -4.636   3.267  25.154  0.00  0.00    +0.121 C 
ATOM     14  C   UNL     1      -5.301   3.520  25.570  0.00  0.00    +0.033 C 
ATOM     15  C   UNL     1      -5.890   2.980  25.775  0.00  0.00    +0.038 C 
ATOM     16  C   UNL     1      -5.814   2.186  25.563  0.00  0.00    +0.181 C 
ATOM     17  O   UNL     1      -6.402   1.646  25.767  0.00  0.00    -0.220 OA
ATOM     18  C   UNL     1      -5.148   1.933  25.146  0.00  0.00    +0.167 C 
ATOM     32  O   UNL     1      -4.559   2.473  24.942  0.00  0.00    -0.354 OA
ENDROOT
BRANCH  13  12
ATOM     12  C   UNL     1      -4.046   3.807  24.949  0.00  0.00    +0.079 C 
BRANCH  12  11
ATOM      9  C   UNL     1      -2.005   3.319  25.343  0.00  0.00    +0.177 A 
ATOM     10  C   UNL     1      -2.679   3.271  24.869  0.00  0.00    +0.058 A 
ATOM     11  C   UNL     1      -3.278   3.706  25.234  0.00  0.00    +0.103 A 
ATOM     33  N   UNL     1      -2.975   4.021  25.933  0.00  0.00    -0.081 NA
ATOM     34  O   UNL     1      -2.188   3.782  26.001  0.00  0.00    -0.354 OA
BRANCH   9   6
ATOM      3  C   UNL     1       0.181   2.256  24.875  0.00  0.00    +0.139 A 
ATOM      4  C   UNL     1      -0.210   2.673  24.282  0.00  0.00    +0.037 A 
ATOM      5  C   UNL     1      -0.939   3.028  24.437  0.00  0.00    +0.006 A 
ATOM      6  C   UNL     1      -1.277   2.965  25.187  0.00  0.00    +0.037 A 
ATOM      7  C   UNL     1      -0.885   2.547  25.782  0.00  0.00    +0.006 A 
ATOM      8  C   UNL     1      -0.157   2.193  25.626  0.00  0.00    +0.037 A 
BRANCH   3   2
ATOM      1  C   UNL     1       1.043   1.536  23.992  0.00  0.00    +0.252 C 
ATOM      2  O   UNL     1       0.910   1.902  24.719  0.00  0.00    -0.471 OA
ENDBRANCH   3   2
ENDBRANCH   9   6
ENDBRANCH  12  11
ENDBRANCH  13  12
BRANCH  18  19
ATOM     19  C   UNL     1      -5.071   1.139  24.934  0.00  0.00    +0.147 C 
BRANCH  19  20
ATOM     20  N   UNL     1      -4.383   0.727  25.123  0.00  0.00    -0.199 NA
ATOM     21  C   UNL     1      -4.233  -0.006  24.775  0.00  0.00    +0.265 C 
ATOM     22  O   UNL     1      -4.770  -0.326  24.238  0.00  0.00    -0.268 OA
BRANCH  21  23
ATOM     23  C   UNL     1      -3.543  -0.420  24.965  0.00  0.00    +0.058 A 
ATOM     24  C   UNL     1      -3.515  -0.883  25.647  0.00  0.00    +0.008 A 
ATOM     25  C   UNL     1      -2.826  -1.296  25.836  0.00  0.00    +0.040 A 
ATOM     26  C   UNL     1      -2.166  -1.246  25.343  0.00  0.00    +0.176 A 
ATOM     27  O   UNL     1      -1.417  -1.587  25.387  0.00  0.00    -0.435 OA
ATOM     28  C   UNL     1      -0.983  -1.336  24.732  0.00  0.00    +0.429 C 
ATOM     29  O   UNL     1      -1.464  -0.838  24.284  0.00  0.00    -0.435 OA
ATOM     30  C   UNL     1      -2.195  -0.782  24.661  0.00  0.00    +0.177 A 
ATOM     31  C   UNL     1      -2.884  -0.369  24.472  0.00  0.00    +0.045 A 
ENDBRANCH  21  23
ENDBRANCH  19  20
ENDBRANCH  18  19
TORSDOF 7
ENDMDL
MODEL 6
REMARK VINA RESULT:     -12.4      1.241      4.095
REMARK  Name = 
REMARK  7 active torsions:
REMARK  status: ('A' for Active; 'I' for Inactive)
REMARK    1  A    between atoms: O_2  and  C_3
REMARK    2  A    between atoms: C_6  and  C_9
REMARK    3  A    between atoms: C_11  and  C_12
REMARK    4  A    between atoms: C_12  and  C_13
REMARK    5  A    between atoms: C_18  and  C_19
REMARK    6  A    between atoms: C_19  and  N_20
REMARK    7  A    between atoms: C_21  and  C_23
REMARK                            x       y       z     vdW  Elec       q    Type
REMARK                         _______ _______ _______ _____ _____    ______ ____
ROOT
ATOM     13  C   UNL     1      -2.185  -1.144  25.099  0.00  0.00    +0.121 C 
ATOM     14  C   UNL     1      -1.873  -1.786  24.686  0.00  0.00    +0.033 C 
ATOM     15  C   UNL     1      -1.107  -1.748  24.382  0.00  0.00    +0.038 C 
ATOM     16  C   UNL     1      -0.653  -1.069  24.492  0.00  0.00    +0.181 C 
ATOM     17  O   UNL     1       0.113  -1.030  24.189  0.00  0.00    -0.220 OA
ATOM     18  C   UNL     1      -0.965  -0.426  24.906  0.00  0.00    +0.167 C 
ATOM     32  O   UNL     1      -1.731  -0.464  25.209  0.00  0.00    -0.354 OA
ENDROOT
BRANCH  13  12
ATOM     12  C   UNL     1      -2.951  -1.181  25.403  0.00  0.00    +0.079 C 
BRANCH  12  11
ATOM      9  C   UNL     1      -4.372   0.325  24.882  0.00  0.00    +0.177 A 
ATOM     10  C   UNL     1      -3.757   0.048  25.357  0.00  0.00    +0.058 A 
ATOM     11  C   UNL     1      -3.544  -0.702  25.087  0.00  0.00    +0.103 A 
ATOM     33  N   UNL     1      -4.026  -0.888  24.444  0.00  0.00    -0.081 NA
ATOM     34  O   UNL     1      -4.539  -0.253  24.318  0.00  0.00    -0.354 OA
BRANCH   9   6
ATOM      3  C   UNL     1      -5.516   2.508  25.109  0.00  0.00    +0.139 A 
ATOM      4  C   UNL     1      -5.720   1.882  25.605  0.00  0.00    +0.037 A 
ATOM      5  C   UNL     1      -5.339   1.154  25.529  0.00  0.00    +0.006 A 
ATOM      6  C   UNL     1      -4.753   1.052  24.958  0.00  0.00    +0.037 A 
ATOM      7  C   UNL     1      -4.548   1.679  24.461  0.00  0.00    +0.006 A 
ATOM      8  C   UNL     1      -4.930   2.406  24.536  0.00  0.00    +0.037 A 
BRANCH   3   2
ATOM      1  C   UNL     1      -5.554   3.836  25.635  0.00  0.00    +0.252 C 
ATOM      2  O   UNL     1      -5.897   3.237  25.184  0.00  0.00    -0.471 OA
ENDBRANCH   3   2
ENDBRANCH   9   6
ENDBRANCH  12  11
ENDBRANCH  13  12
BRANCH  18  19
ATOM     19  C   UNL     1      -0.510   0.254  25.016  0.00  0.00    +0.147 C 
BRANCH  19  20
ATOM     20  N   UNL     1      -0.864   0.997  24.970  0.00  0.00    -0.199 NA
ATOM     21  C   UNL     1      -0.422   1.674  25.135  0.00  0.00    +0.265 C 
ATOM     22  O   UNL     1       0.372   1.608  25.347  0.00  0.00    -0.268 OA
BRANCH  21  23
ATOM     23  C   UNL     1      -0.776   2.419  25.090  0.00  0.00    +0.058 A 
ATOM     24  C   UNL     1      -0.660   2.891  24.423  0.00  0.00    +0.008 A 
ATOM     25  C   UNL     1      -1.013   3.634  24.377  0.00  0.00    +0.040 A 
ATOM     26  C   UNL     1      -1.482   3.908  24.998  0.00  0.00    +0.176 A 
ATOM     27  O   UNL     1      -1.898   4.611  25.109  0.00  0.00    -0.435 OA
ATOM     28  C   UNL     1      -2.271   4.575  25.843  0.00  0.00    +0.429 C 
ATOM     29  O   UNL     1      -2.085   3.848  26.187  0.00  0.00    -0.435 OA
ATOM     30  C   UNL     1      -1.598   3.436  25.665  0.00  0.00    +0.177 A 
ATOM     31  C   UNL     1      -1.245   2.691  25.711  0.00  0.00    +0.045 A 
ENDBRANCH  21  23
ENDBRANCH  19  20
ENDBRANCH  18  19
TORSDOF 7
ENDMDL
MODEL 7
REMARK VINA RESULT:     -12.3      1.069      4.143
REMARK  Name = 
REMARK  7 active torsions:
REMARK  status: ('A' for Active; 'I' for Inactive)
REMARK    1  A    between atoms: O_2  and  C_3
REMARK    2  A    between atoms: C_6  and  C_9
REMARK    3  A    between atoms: C_11  and  C_12
REMARK    4  A    between atoms: C_12  and  C_13
REMARK    5  A    between atoms: C_18  and  C_19
REMARK    6  A    between atoms: C_19  and  N_20
REMARK    7  A    between atoms: C_21  and  C_23
REMARK                            x       y       z     vdW  Elec       q    Type
REMARK                         _______ _______ _______ _____ _____    ______ ____
ROOT
ATOM     13  C   UNL     1      -3.631  -1.504  24.244  0.00  0.00    +0.121 C 
ATOM     14  C   UNL     1      -3.778  -2.291  24.438  0.00  0.00    +0.033 C 
ATOM     15  C   UNL     1      -3.152  -2.793  24.633  0.00  0.00    +0.038 C 
ATOM     16  C   UNL     1      -2.379  -2.506  24.634  0.00  0.00    +0.181 C 
ATOM     17  O   UNL     1      -1.753  -3.006  24.829  0.00  0.00    -0.220 OA
ATOM     18  C   UNL     1      -2.231  -1.717  24.440  0.00  0.00    +0.167 C 
ATOM     32  O   UNL     1      -2.857  -1.217  24.245  0.00  0.00    -0.354 OA
ENDROOT
BRANCH  13  12
ATOM     12  C   UNL     1      -4.256  -1.002  24.049  0.00  0.00    +0.079 C 
BRANCH  12  11
ATOM      9  C   UNL     1      -4.250   1.034  24.693  0.00  0.00    +0.177 A 
ATOM     10  C   UNL     1      -4.055   0.451  24.141  0.00  0.00    +0.058 A 
ATOM     11  C   UNL     1      -4.332  -0.272  24.426  0.00  0.00    +0.103 A 
ATOM     33  N   UNL     1      -4.697  -0.138  25.153  0.00  0.00    -0.081 NA
ATOM     34  O   UNL     1      -4.646   0.670  25.319  0.00  0.00    -0.354 OA
BRANCH   9   6
ATOM      3  C   UNL     1      -3.734   3.447  24.504  0.00  0.00    +0.139 A 
ATOM      4  C   UNL     1      -3.985   3.134  25.224  0.00  0.00    +0.037 A 
ATOM      5  C   UNL     1      -4.157   2.329  25.288  0.00  0.00    +0.006 A 
ATOM      6  C   UNL     1      -4.078   1.838  24.630  0.00  0.00    +0.037 A 
ATOM      7  C   UNL     1      -3.826   2.150  23.909  0.00  0.00    +0.006 A 
ATOM      8  C   UNL     1      -3.654   2.954  23.846  0.00  0.00    +0.037 A 
BRANCH   3   2
ATOM      1  C   UNL     1      -3.010   4.596  24.948  0.00  0.00    +0.252 C 
ATOM      2  O   UNL     1      -3.562   4.251  24.441  0.00  0.00    -0.471 OA
ENDBRANCH   3   2
ENDBRANCH   9   6
ENDBRANCH  12  11
ENDBRANCH  13  12
BRANCH  18  19
ATOM     19  C   UNL     1      -1.458  -1.430  24.441  0.00  0.00    +0.147 C 
BRANCH  19  20
ATOM     20  N   UNL     1      -1.314  -0.633  24.599  0.00  0.00    -0.199 NA
ATOM     21  C   UNL     1      -0.566  -0.314  24.461  0.00  0.00    +0.265 C 
ATOM     22  O   UNL     1       0.038  -0.791  24.165  0.00  0.00    -0.268 OA
BRANCH  21  23
ATOM     23  C   UNL     1      -0.422   0.483  24.619  0.00  0.00    +0.058 A 
ATOM     24  C   UNL     1      -0.131   0.976  24.025  0.00  0.00    +0.008 A 
ATOM     25  C   UNL     1       0.013   1.772  24.183  0.00  0.00    +0.040 A 
ATOM     26  C   UNL     1      -0.134   2.077  24.936  0.00  0.00    +0.176 A 
ATOM     27  O   UNL     1      -0.046   2.833  25.252  0.00  0.00    -0.435 OA
ATOM     28  C   UNL     1      -0.283   2.808  26.042  0.00  0.00    +0.429 C 
ATOM     29  O   UNL     1      -0.518   2.037  26.213  0.00  0.00    -0.435 OA
ATOM     30  C   UNL     1      -0.426   1.585  25.530  0.00  0.00    +0.177 A 
ATOM     31  C   UNL     1      -0.570   0.787  25.372  0.00  0.00    +0.045 A 
ENDBRANCH  21  23
ENDBRANCH  19  20
ENDBRANCH  18  19
TORSDOF 7
ENDMDL
MODEL 8
REMARK VINA RESULT:     -12.1      1.310      3.793
REMARK  Name = 
REMARK  7 active torsions:
REMARK  status: ('A' for Active; 'I' for Inactive)
REMARK    1  A    between atoms: O_2  and  C_3
REMARK    2  A    between atoms: C_6  and  C_9
REMARK    3  A    between atoms: C_11  and  C_12
REMARK    4  A    between atoms: C_12  and  C_13
REMARK    5  A    between atoms: C_18  and  C_19
REMARK    6  A    between atoms: C_19  and  N_20
REMARK    7  A    between atoms: C_21  and  C_23
REMARK                            x       y       z     vdW  Elec       q    Type
REMARK                         _______ _______ _______ _____ _____    ______ ____
ROOT
ATOM     13  C   UNL     1      -0.732   2.736  25.229  0.00  0.00    +0.121 C 
ATOM     14  C   UNL     1      -0.213   2.994  24.641  0.00  0.00    +0.033 C 
ATOM     15  C   UNL     1       0.239   2.447  24.220  0.00  0.00    +0.038 C 
ATOM     16  C   UNL     1       0.172   1.642  24.387  0.00  0.00    +0.181 C 
ATOM     17  O   UNL     1       0.624   1.094  23.967  0.00  0.00    -0.220 OA
ATOM     18  C   UNL     1      -0.346   1.383  24.975  0.00  0.00    +0.167 C 
ATOM     32  O   UNL     1      -0.798   1.931  25.395  0.00  0.00    -0.354 OA
ENDROOT
BRANCH  13  12
ATOM     12  C   UNL     1      -1.184   3.283  25.650  0.00  0.00    +0.079 C 
BRANCH  12  11
ATOM      9  C   UNL     1      -3.267   3.371  25.188  0.00  0.00    +0.177 A 
ATOM     10  C   UNL     1      -2.618   2.985  25.521  0.00  0.00    +0.058 A 
ATOM     11  C   UNL     1      -1.952   3.458  25.405  0.00  0.00    +0.103 A 
ATOM     33  N   UNL     1      -2.189   4.136  25.000  0.00  0.00    -0.081 NA
ATOM     34  O   UNL     1      -3.002   4.083  24.866  0.00  0.00    -0.354 OA
BRANCH   9   6
ATOM      3  C   UNL     1      -5.598   2.541  25.162  0.00  0.00    +0.139 A 
ATOM      4  C   UNL     1      -5.044   2.231  24.636  0.00  0.00    +0.037 A 
ATOM      5  C   UNL     1      -4.266   2.508  24.645  0.00  0.00    +0.006 A 
ATOM      6  C   UNL     1      -4.044   3.094  25.179  0.00  0.00    +0.037 A 
ATOM      7  C   UNL     1      -4.598   3.405  25.706  0.00  0.00    +0.006 A 
ATOM      8  C   UNL     1      -5.375   3.128  25.697  0.00  0.00    +0.037 A 
BRANCH   3   2
ATOM      1  C   UNL     1      -6.529   1.472  24.982  0.00  0.00    +0.252 C 
ATOM      2  O   UNL     1      -6.376   2.264  25.153  0.00  0.00    -0.471 OA
ENDBRANCH   3   2
ENDBRANCH   9   6
ENDBRANCH  12  11
ENDBRANCH  13  12
BRANCH  18  19
ATOM     19  C   UNL     1      -0.413   0.578  25.142  0.00  0.00    +0.147 C 
BRANCH  19  20
ATOM     20  N   UNL     1      -1.136   0.195  25.042  0.00  0.00    -0.199 NA
ATOM     21  C   UNL     1      -1.246  -0.564  25.346  0.00  0.00    +0.265 C 
ATOM     22  O   UNL     1      -0.633  -0.939  25.751  0.00  0.00    -0.268 OA
BRANCH  21  23
ATOM     23  C   UNL     1      -1.970  -0.948  25.246  0.00  0.00    +0.058 A 
ATOM     24  C   UNL     1      -2.628  -0.708  25.682  0.00  0.00    +0.008 A 
ATOM     25  C   UNL     1      -3.351  -1.092  25.582  0.00  0.00    +0.040 A 
ATOM     26  C   UNL     1      -3.417  -1.716  25.046  0.00  0.00    +0.176 A 
ATOM     27  O   UNL     1      -4.052  -2.195  24.831  0.00  0.00    -0.435 OA
ATOM     28  C   UNL     1      -3.788  -2.730  24.262  0.00  0.00    +0.429 C 
ATOM     29  O   UNL     1      -2.988  -2.582  24.125  0.00  0.00    -0.435 OA
ATOM     30  C   UNL     1      -2.759  -1.955  24.610  0.00  0.00    +0.177 A 
ATOM     31  C   UNL     1      -2.035  -1.571  24.710  0.00  0.00    +0.045 A 
ENDBRANCH  21  23
ENDBRANCH  19  20
ENDBRANCH  18  19
TORSDOF 7
ENDMDL
