MODEL 1
REMARK VINA RESULT:     -15.5      0.000      0.000
REMARK  Name = 
REMARK  4 active torsions:
REMARK  status: ('A' for Active; 'I' for Inactive)
REMARK    1  A    between atoms: N_2  and  C_4
REMARK    2  A    between atoms: C_4  and  C_5
REMARK    3  A    between atoms: C_10  and  C_11
REMARK    4  A    between atoms: C_21  and  C_23
REMARK                            x       y       z     vdW  Elec       q    Type
REMARK                         _______ _______ _______ _____ _____    ______ ____
ROOT
ATOM     11  C   UNL     1      -3.096   2.260  24.267  0.00  0.00    +0.056 A 
ATOM     12  C   UNL     1      -3.384   3.033  24.302  0.00  0.00    +0.006 A 
ATOM     13  C   UNL     1      -4.141   3.178  24.597  0.00  0.00    +0.013 A 
ATOM     14  C   UNL     1      -4.610   2.551  24.856  0.00  0.00    +0.041 A 
ATOM     15  C   UNL     1      -5.439   2.381  25.213  0.00  0.00    +0.058 C 
ATOM     16  C   UNL     1      -6.026   2.704  25.420  0.00  0.00    +0.011 C 
ATOM     17  C   UNL     1      -5.739   1.943  25.383  0.00  0.00    +0.043 C 
ATOM     18  C   UNL     1      -5.574   0.969  25.419  0.00  0.00    +0.096 C 
ATOM     19  N   UNL     1      -4.801   0.946  25.104  0.00  0.00    -0.276 N 
ATOM     20  C   UNL     1      -5.295   1.437  25.254  0.00  0.00    +0.099 C 
ATOM     21  C   UNL     1      -4.085   0.629  24.844  0.00  0.00    +0.249 C 
ATOM     22  O   UNL     1      -3.495   1.127  24.550  0.00  0.00    -0.270 OA
ATOM     30  C   UNL     1      -4.871   2.111  25.009  0.00  0.00    +0.110 C 
ATOM     31  N   UNL     1      -4.322   1.779  24.820  0.00  0.00    -0.299 N 
ATOM     32  C   UNL     1      -3.565   1.633  24.525  0.00  0.00    +0.261 A 
ATOM     33  O   UNL     1      -3.074   0.985  24.393  0.00  0.00    -0.267 OA
ENDROOT
BRANCH  21  23
ATOM     23  C   UNL     1      -3.958  -0.185  24.879  0.00  0.00    +0.054 A 
ATOM     24  C   UNL     1      -4.181  -0.665  24.246  0.00  0.00    +0.007 A 
ATOM     25  C   UNL     1      -4.054  -1.480  24.281  0.00  0.00    +0.030 A 
ATOM     26  C   UNL     1      -3.703  -1.814  24.948  0.00  0.00    +0.140 A 
ATOM     27  F   UNL     1      -3.576  -2.629  24.983  0.00  0.00    -0.204 F 
ATOM     28  C   UNL     1      -3.480  -1.335  25.581  0.00  0.00    +0.030 A 
ATOM     29  C   UNL     1      -3.607  -0.520  25.546  0.00  0.00    +0.007 A 
ENDBRANCH  21  23
BRANCH  11  10
ATOM      5  C   UNL     1      -1.677   2.369  24.393  0.00  0.00    -0.006 A 
ATOM      6  C   UNL     1      -0.920   2.224  24.098  0.00  0.00    -0.003 A 
ATOM      7  C   UNL     1      -0.827   1.826  23.381  0.00  0.00    -0.000 A 
ATOM      8  C   UNL     1      -1.489   1.573  22.960  0.00  0.00    -0.000 A 
ATOM      9  C   UNL     1      -2.246   1.718  23.255  0.00  0.00    -0.000 A 
ATOM     10  C   UNL     1      -2.340   2.116  23.972  0.00  0.00    +0.002 A 
BRANCH   5   4
ATOM      4  C   UNL     1      -1.771   2.766  25.110  0.00  0.00    +0.099 C 
BRANCH   4   2
ATOM      1  C   UNL     1      -0.823   3.810  25.343  0.00  0.00    +0.090 C 
ATOM      2  N   UNL     1      -1.110   3.055  25.511  0.00  0.00    -0.267 NA
ATOM      3  C   UNL     1      -0.737   2.589  26.080  0.00  0.00    +0.090 C 
ENDBRANCH   4   2
ENDBRANCH   5   4
ENDBRANCH  11  10
TORSDOF 4
ENDMDL
MODEL 2
REMARK VINA RESULT:     -14.5      1.717      3.469
REMARK  Name = 
REMARK  4 active torsions:
REMARK  status: ('A' for Active; 'I' for Inactive)
REMARK    1  A    between atoms: N_2  and  C_4
REMARK    2  A    between atoms: C_4  and  C_5
REMARK    3  A    between atoms: C_10  and  C_11
REMARK    4  A    between atoms: C_21  and  C_23
REMARK                            x       y       z     vdW  Elec       q    Type
REMARK                         _______ _______ _______ _____ _____    ______ ____
ROOT
ATOM     11  C   UNL     1      -3.798   1.229  24.432  0.00  0.00    +0.056 A 
ATOM     12  C   UNL     1      -4.474   0.788  24.604  0.00  0.00    +0.006 A 
ATOM     13  C   UNL     1      -4.404   0.050  24.965  0.00  0.00    +0.013 A 
ATOM     14  C   UNL     1      -3.658  -0.247  25.155  0.00  0.00    +0.041 A 
ATOM     15  C   UNL     1      -3.259  -0.982  25.535  0.00  0.00    +0.058 C 
ATOM     16  C   UNL     1      -3.411  -1.603  25.826  0.00  0.00    +0.011 C 
ATOM     17  C   UNL     1      -2.745  -1.165  25.655  0.00  0.00    +0.043 C 
ATOM     18  C   UNL     1      -1.838  -0.793  25.530  0.00  0.00    +0.096 C 
ATOM     19  N   UNL     1      -2.033  -0.067  25.167  0.00  0.00    -0.276 N 
ATOM     20  C   UNL     1      -2.376  -0.637  25.422  0.00  0.00    +0.099 C 
ATOM     21  C   UNL     1      -1.924   0.672  24.816  0.00  0.00    +0.249 C 
ATOM     22  O   UNL     1      -2.576   1.110  24.564  0.00  0.00    -0.270 OA
ATOM     30  C   UNL     1      -3.154  -0.393  25.256  0.00  0.00    +0.110 C 
ATOM     31  N   UNL     1      -2.983   0.194  24.983  0.00  0.00    -0.299 N 
ATOM     32  C   UNL     1      -3.052   0.932  24.621  0.00  0.00    +0.261 A 
ATOM     33  O   UNL     1      -2.555   1.535  24.359  0.00  0.00    -0.267 OA
ENDROOT
BRANCH  21  23
ATOM     23  C   UNL     1      -1.162   0.973  24.717  0.00  0.00    +0.054 A 
ATOM     24  C   UNL     1      -0.723   0.772  24.048  0.00  0.00    +0.007 A 
ATOM     25  C   UNL     1       0.040   1.073  23.950  0.00  0.00    +0.030 A 
ATOM     26  C   UNL     1       0.362   1.574  24.520  0.00  0.00    +0.140 A 
ATOM     27  F   UNL     1       1.124   1.875  24.421  0.00  0.00    -0.204 F 
ATOM     28  C   UNL     1      -0.077   1.775  25.188  0.00  0.00    +0.030 A 
ATOM     29  C   UNL     1      -0.839   1.475  25.287  0.00  0.00    +0.007 A 
ENDBRANCH  21  23
BRANCH  11  10
ATOM      5  C   UNL     1      -4.202   2.598  24.483  0.00  0.00    -0.006 A 
ATOM      6  C   UNL     1      -4.273   3.337  24.120  0.00  0.00    -0.003 A 
ATOM      7  C   UNL     1      -4.009   3.442  23.345  0.00  0.00    -0.000 A 
ATOM      8  C   UNL     1      -3.676   2.811  22.933  0.00  0.00    -0.000 A 
ATOM      9  C   UNL     1      -3.606   2.073  23.295  0.00  0.00    -0.000 A 
ATOM     10  C   UNL     1      -3.869   1.967  24.070  0.00  0.00    +0.002 A 
BRANCH   5   4
ATOM      4  C   UNL     1      -4.465   2.492  25.258  0.00  0.00    +0.099 C 
BRANCH   4   2
ATOM      1  C   UNL     1      -5.607   3.244  25.674  0.00  0.00    +0.090 C 
ATOM      2  N   UNL     1      -4.790   3.127  25.673  0.00  0.00    -0.267 NA
ATOM      3  C   UNL     1      -4.299   3.645  26.087  0.00  0.00    +0.090 C 
ENDBRANCH   4   2
ENDBRANCH   5   4
ENDBRANCH  11  10
TORSDOF 4
ENDMDL
MODEL 3
REMARK VINA RESULT:     -14.2      1.952      3.374
REMARK  Name = 
REMARK  4 active torsions:
REMARK  status: ('A' for Active; 'I' for Inactive)
REMARK    1  A    between atoms: N_2  and  C_4
REMARK    2  A    between atoms: C_4  and  C_5
REMARK    3  A    between atoms: C_10  and  C_11
REMARK    4  A    between atoms: C_21  and  C_23
REMARK                            x       y       z     vdW  Elec       q    Type
REMARK                         _______ _______ _______ _____ _____    ______ ____
ROOT
ATOM     11  C   UNL     1      -3.134   0.968  24.341  0.00  0.00    +0.056 A 
ATOM     12  C   UNL     1      -3.732   0.404  24.271  0.00  0.00    +0.006 A 
ATOM     13  C   UNL     1      -4.504   0.590  24.494  0.00  0.00    +0.013 A 
ATOM     14  C   UNL     1      -4.678   1.341  24.788  0.00  0.00    +0.041 A 
ATOM     15  C   UNL     1      -5.384   1.837  25.103  0.00  0.00    +0.058 C 
ATOM     16  C   UNL     1      -6.073   1.796  25.231  0.00  0.00    +0.011 C 
ATOM     17  C   UNL     1      -5.480   2.351  25.299  0.00  0.00    +0.043 C 
ATOM     18  C   UNL     1      -4.912   3.144  25.454  0.00  0.00    +0.096 C 
ATOM     19  N   UNL     1      -4.177   2.842  25.199  0.00  0.00    -0.276 N 
ATOM     20  C   UNL     1      -4.848   2.613  25.259  0.00  0.00    +0.099 C 
ATOM     21  C   UNL     1      -3.370   2.824  25.027  0.00  0.00    +0.249 C 
ATOM     22  O   UNL     1      -3.028   2.138  24.721  0.00  0.00    -0.270 OA
ATOM     30  C   UNL     1      -4.737   1.840  24.971  0.00  0.00    +0.110 C 
ATOM     31  N   UNL     1      -4.080   1.905  24.858  0.00  0.00    -0.299 N 
ATOM     32  C   UNL     1      -3.308   1.719  24.635  0.00  0.00    +0.261 A 
ATOM     33  O   UNL     1      -2.572   2.089  24.610  0.00  0.00    -0.267 OA
ENDROOT
BRANCH  21  23
ATOM     23  C   UNL     1      -2.905   3.493  25.160  0.00  0.00    +0.054 A 
ATOM     24  C   UNL     1      -2.506   3.582  25.876  0.00  0.00    +0.007 A 
ATOM     25  C   UNL     1      -2.041   4.251  26.009  0.00  0.00    +0.030 A 
ATOM     26  C   UNL     1      -1.976   4.830  25.426  0.00  0.00    +0.140 A 
ATOM     27  F   UNL     1      -1.511   5.499  25.559  0.00  0.00    -0.204 F 
ATOM     28  C   UNL     1      -2.375   4.742  24.710  0.00  0.00    +0.030 A 
ATOM     29  C   UNL     1      -2.840   4.073  24.576  0.00  0.00    +0.007 A 
ENDBRANCH  21  23
BRANCH  11  10
ATOM      5  C   UNL     1      -1.945   0.198  24.525  0.00  0.00    -0.006 A 
ATOM      6  C   UNL     1      -1.172   0.011  24.301  0.00  0.00    -0.003 A 
ATOM      7  C   UNL     1      -0.819   0.408  23.670  0.00  0.00    -0.000 A 
ATOM      8  C   UNL     1      -1.237   0.991  23.263  0.00  0.00    -0.000 A 
ATOM      9  C   UNL     1      -2.009   1.177  23.487  0.00  0.00    -0.000 A 
ATOM     10  C   UNL     1      -2.363   0.781  24.118  0.00  0.00    +0.002 A 
BRANCH   5   4
ATOM      4  C   UNL     1      -2.299  -0.198  25.157  0.00  0.00    +0.099 C 
BRANCH   4   2
ATOM      1  C   UNL     1      -1.968  -1.583  25.277  0.00  0.00    +0.090 C 
ATOM      2  N   UNL     1      -1.893  -0.805  25.542  0.00  0.00    -0.267 NA
ATOM      3  C   UNL     1      -1.413  -0.634  26.190  0.00  0.00    +0.090 C 
ENDBRANCH   4   2
ENDBRANCH   5   4
ENDBRANCH  11  10
TORSDOF 4
ENDMDL
MODEL 4
REMARK VINA RESULT:     -13.8      1.850      3.483
REMARK  Name = 
REMARK  4 active torsions:
REMARK  status: ('A' for Active; 'I' for Inactive)
REMARK    1  A    between atoms: N_2  and  C_4
REMARK    2  A    between atoms: C_4  and  C_5
REMARK    3  A    between atoms: C_10  and  C_11
REMARK    4  A    between atoms: C_21  and  C_23
REMARK                            x       y       z     vdW  Elec       q    Type
REMARK                         _______ _______ _______ _____ _____    ______ ____
ROOT
ATOM     11  C   UNL     1      -1.601  -0.395  24.971  0.00  0.00    +0.056 A 
ATOM     12  C   UNL     1      -1.276  -1.153  24.949  0.00  0.00    +0.006 A 
ATOM     13  C   UNL     1      -1.756  -1.803  24.781  0.00  0.00    +0.013 A 
ATOM     14  C   UNL     1      -2.560  -1.694  24.633  0.00  0.00    +0.041 A 
ATOM     15  C   UNL     1      -3.319  -2.171  24.429  0.00  0.00    +0.058 C 
ATOM     16  C   UNL     1      -3.542  -2.825  24.310  0.00  0.00    +0.011 C 
ATOM     17  C   UNL     1      -3.860  -2.075  24.332  0.00  0.00    +0.043 C 
ATOM     18  C   UNL     1      -4.421  -1.262  24.313  0.00  0.00    +0.096 C 
ATOM     19  N   UNL     1      -3.841  -0.688  24.493  0.00  0.00    -0.276 N 
ATOM     20  C   UNL     1      -3.874  -1.394  24.407  0.00  0.00    +0.099 C 
ATOM     21  C   UNL     1      -3.514   0.055  24.642  0.00  0.00    +0.249 C 
ATOM     22  O   UNL     1      -2.709   0.125  24.810  0.00  0.00    -0.270 OA
ATOM     30  C   UNL     1      -3.072  -1.569  24.546  0.00  0.00    +0.110 C 
ATOM     31  N   UNL     1      -2.885  -0.936  24.655  0.00  0.00    -0.299 N 
ATOM     32  C   UNL     1      -2.405  -0.286  24.823  0.00  0.00    +0.261 A 
ATOM     33  O   UNL     1      -2.485   0.531  24.900  0.00  0.00    -0.267 OA
ENDROOT
BRANCH  21  23
ATOM     23  C   UNL     1      -3.992   0.727  24.623  0.00  0.00    +0.054 A 
ATOM     24  C   UNL     1      -3.948   1.247  23.985  0.00  0.00    +0.007 A 
ATOM     25  C   UNL     1      -4.427   1.920  23.966  0.00  0.00    +0.030 A 
ATOM     26  C   UNL     1      -4.948   2.071  24.587  0.00  0.00    +0.140 A 
ATOM     27  F   UNL     1      -5.426   2.744  24.568  0.00  0.00    -0.204 F 
ATOM     28  C   UNL     1      -4.992   1.552  25.226  0.00  0.00    +0.030 A 
ATOM     29  C   UNL     1      -4.514   0.880  25.244  0.00  0.00    +0.007 A 
ENDBRANCH  21  23
BRANCH  11  10
ATOM      5  C   UNL     1      -0.527   0.477  24.612  0.00  0.00    -0.006 A 
ATOM      6  C   UNL     1      -0.046   1.127  24.781  0.00  0.00    -0.003 A 
ATOM      7  C   UNL     1      -0.161   1.553  25.479  0.00  0.00    -0.000 A 
ATOM      8  C   UNL     1      -0.755   1.330  26.006  0.00  0.00    -0.000 A 
ATOM      9  C   UNL     1      -1.235   0.681  25.836  0.00  0.00    -0.000 A 
ATOM     10  C   UNL     1      -1.121   0.254  25.139  0.00  0.00    +0.002 A 
BRANCH   5   4
ATOM      4  C   UNL     1      -0.413   0.050  23.915  0.00  0.00    +0.099 C 
BRANCH   4   2
ATOM      1  C   UNL     1       0.040   0.900  22.859  0.00  0.00    +0.090 C 
ATOM      2  N   UNL     1       0.176   0.278  23.384  0.00  0.00    -0.267 NA
ATOM      3  C   UNL     1       0.901  -0.116  23.377  0.00  0.00    +0.090 C 
ENDBRANCH   4   2
ENDBRANCH   5   4
ENDBRANCH  11  10
TORSDOF 4
ENDMDL
MODEL 5
REMARK VINA RESULT:     -13.6      1.874      3.528
REMARK  Name = 
REMARK  4 active torsions:
REMARK  status: ('A' for Active; 'I' for Inactive)
REMARK    1  A    between atoms: N_2  and  C_4
REMARK    2  A    between atoms: C_4  and  C_5
REMARK    3  A    between atoms: C_10  and  C_11
REMARK    4  A    between atoms: C_21  and  C_23
REMARK                            x       y       z     vdW  Elec       q    Type
REMARK                         _______ _______ _______ _____ _____    ______ ____
ROOT
ATOM     11  C   UNL     1      -0.962   1.747  25.275  0.00  0.00    +0.056 A 
ATOM     12  C   UNL     1      -0.235   2.122  25.379  0.00  0.00    +0.006 A 
ATOM     13  C   UNL     1      -0.190   2.946  25.368  0.00  0.00    +0.013 A 
ATOM     14  C   UNL     1      -0.872   3.394  25.252  0.00  0.00    +0.041 A 
ATOM     15  C   UNL     1      -1.150   4.268  25.189  0.00  0.00    +0.058 C 
ATOM     16  C   UNL     1      -0.906   4.926  25.212  0.00  0.00    +0.011 C 
ATOM     17  C   UNL     1      -1.623   4.552  25.110  0.00  0.00    +0.043 C 
ATOM     18  C   UNL     1      -2.566   4.291  24.970  0.00  0.00    +0.096 C 
ATOM     19  N   UNL     1      -2.487   3.460  25.001  0.00  0.00    -0.276 N 
ATOM     20  C   UNL     1      -2.065   4.032  25.053  0.00  0.00    +0.099 C 
ATOM     21  C   UNL     1      -2.707   2.665  24.984  0.00  0.00    +0.249 C 
ATOM     22  O   UNL     1      -2.137   2.076  25.086  0.00  0.00    -0.270 OA
ATOM     30  C   UNL     1      -1.342   3.637  25.174  0.00  0.00    +0.110 C 
ATOM     31  N   UNL     1      -1.600   3.019  25.148  0.00  0.00    -0.299 N 
ATOM     32  C   UNL     1      -1.645   2.196  25.159  0.00  0.00    +0.261 A 
ATOM     33  O   UNL     1      -2.223   1.612  25.083  0.00  0.00    -0.267 OA
ENDROOT
BRANCH  21  23
ATOM     23  C   UNL     1      -3.496   2.458  24.867  0.00  0.00    +0.054 A 
ATOM     24  C   UNL     1      -3.769   2.285  24.108  0.00  0.00    +0.007 A 
ATOM     25  C   UNL     1      -4.560   2.078  23.991  0.00  0.00    +0.030 A 
ATOM     26  C   UNL     1      -5.077   2.045  24.633  0.00  0.00    +0.140 A 
ATOM     27  F   UNL     1      -5.867   1.838  24.515  0.00  0.00    -0.204 F 
ATOM     28  C   UNL     1      -4.805   2.218  25.391  0.00  0.00    +0.030 A 
ATOM     29  C   UNL     1      -4.014   2.425  25.509  0.00  0.00    +0.007 A 
ENDBRANCH  21  23
BRANCH  11  10
ATOM      5  C   UNL     1      -0.654   0.483  24.685  0.00  0.00    -0.006 A 
ATOM      6  C   UNL     1      -0.698  -0.342  24.698  0.00  0.00    -0.003 A 
ATOM      7  C   UNL     1      -1.095  -0.723  25.312  0.00  0.00    -0.000 A 
ATOM      8  C   UNL     1      -1.448  -0.282  25.913  0.00  0.00    -0.000 A 
ATOM      9  C   UNL     1      -1.403   0.541  25.901  0.00  0.00    -0.000 A 
ATOM     10  C   UNL     1      -1.006   0.924  25.287  0.00  0.00    +0.002 A 
BRANCH   5   4
ATOM      4  C   UNL     1      -0.257   0.866  24.071  0.00  0.00    +0.099 C 
BRANCH   4   2
ATOM      1  C   UNL     1      -0.364   0.237  22.792  0.00  0.00    +0.090 C 
ATOM      2  N   UNL     1       0.081   0.425  23.461  0.00  0.00    -0.267 NA
ATOM      3  C   UNL     1       0.864   0.171  23.520  0.00  0.00    +0.090 C 
ENDBRANCH   4   2
ENDBRANCH   5   4
ENDBRANCH  11  10
TORSDOF 4
ENDMDL
MODEL 6
REMARK VINA RESULT:     -13.4      1.391      3.177
REMARK  Name = 
REMARK  4 active torsions:
REMARK  status: ('A' for Active; 'I' for Inactive)
REMARK    1  A    between atoms: N_2  and  C_4
REMARK    2  A    between atoms: C_4  and  C_5
REMARK    3  A    between atoms: C_10  and  C_11
REMARK    4  A    between atoms: C_21  and  C_23
REMARK                            x       y       z     vdW  Elec       q    Type
REMARK                         _______ _______ _______ _____ _____    ______ ____
ROOT
ATOM     11  C   UNL     1      -2.235   1.972  24.106  0.00  0.00    +0.056 A 
ATOM     12  C   UNL     1      -1.635   2.448  23.798  0.00  0.00    +0.006 A 
ATOM     13  C   UNL     1      -0.886   2.130  23.661  0.00  0.00    +0.013 A 
ATOM     14  C   UNL     1      -0.738   1.337  23.831  0.00  0.00    +0.041 A 
ATOM     15  C   UNL     1      -0.062   0.714  23.798  0.00  0.00    +0.058 C 
ATOM     16  C   UNL     1       0.612   0.642  23.617  0.00  0.00    +0.011 C 
ATOM     17  C   UNL     1       0.017   0.176  23.920  0.00  0.00    +0.043 C 
ATOM     18  C   UNL     1      -0.561  -0.538  24.285  0.00  0.00    +0.096 C 
ATOM     19  N   UNL     1      -1.271  -0.108  24.380  0.00  0.00    -0.276 N 
ATOM     20  C   UNL     1      -0.608   0.014  24.150  0.00  0.00    +0.099 C 
ATOM     21  C   UNL     1      -2.059   0.043  24.574  0.00  0.00    +0.249 C 
ATOM     22  O   UNL     1      -2.373   0.799  24.464  0.00  0.00    -0.270 OA
ATOM     30  C   UNL     1      -0.695   0.819  23.958  0.00  0.00    +0.110 C 
ATOM     31  N   UNL     1      -1.338   0.861  24.138  0.00  0.00    -0.299 N 
ATOM     32  C   UNL     1      -2.087   1.179  24.276  0.00  0.00    +0.261 A 
ATOM     33  O   UNL     1      -2.817   0.924  24.562  0.00  0.00    -0.267 OA
ENDROOT
BRANCH  21  23
ATOM     23  C   UNL     1      -2.532  -0.560  24.878  0.00  0.00    +0.054 A 
ATOM     24  C   UNL     1      -2.590  -0.668  25.694  0.00  0.00    +0.007 A 
ATOM     25  C   UNL     1      -3.063  -1.272  25.998  0.00  0.00    +0.030 A 
ATOM     26  C   UNL     1      -3.478  -1.767  25.485  0.00  0.00    +0.140 A 
ATOM     27  F   UNL     1      -3.952  -2.371  25.790  0.00  0.00    -0.204 F 
ATOM     28  C   UNL     1      -3.421  -1.660  24.670  0.00  0.00    +0.030 A 
ATOM     29  C   UNL     1      -2.947  -1.056  24.366  0.00  0.00    +0.007 A 
ENDBRANCH  21  23
BRANCH  11  10
ATOM      5  C   UNL     1      -3.084   2.878  24.812  0.00  0.00    -0.006 A 
ATOM      6  C   UNL     1      -3.834   3.196  24.949  0.00  0.00    -0.003 A 
ATOM      7  C   UNL     1      -4.481   2.926  24.515  0.00  0.00    -0.000 A 
ATOM      8  C   UNL     1      -4.381   2.338  23.945  0.00  0.00    -0.000 A 
ATOM      9  C   UNL     1      -3.632   2.020  23.809  0.00  0.00    -0.000 A 
ATOM     10  C   UNL     1      -2.984   2.290  24.243  0.00  0.00    +0.002 A 
BRANCH   5   4
ATOM      4  C   UNL     1      -2.436   3.148  25.246  0.00  0.00    +0.099 C 
BRANCH   4   2
ATOM      1  C   UNL     1      -2.336   4.548  25.516  0.00  0.00    +0.090 C 
ATOM      2  N   UNL     1      -2.523   3.784  25.765  0.00  0.00    -0.267 NA
ATOM      3  C   UNL     1      -2.798   3.655  26.532  0.00  0.00    +0.090 C 
ENDBRANCH   4   2
ENDBRANCH   5   4
ENDBRANCH  11  10
TORSDOF 4
ENDMDL
MODEL 7
REMARK VINA RESULT:     -13.0      1.874      3.830
REMARK  Name = 
REMARK  4 active torsions:
REMARK  status: ('A' for Active; 'I' for Inactive)
REMARK    1  A    between atoms: N_2  and  C_4
REMARK    2  A    between atoms: C_4  and  C_5
REMARK    3  A    between atoms: C_10  and  C_11
REMARK    4  A    between atoms: C_21  and  C_23
REMARK                            x       y       z     vdW  Elec       q    Type
REMARK                         _______ _______ _______ _____ _____    ______ ____
ROOT
ATOM     11  C   UNL     1      -2.019   1.554  24.382  0.00  0.00    +0.056 A 
ATOM     12  C   UNL     1      -1.203   1.547  24.257  0.00  0.00    +0.006 A 
ATOM     13  C   UNL     1      -0.756   2.224  24.408  0.00  0.00    +0.013 A 
ATOM     14  C   UNL     1      -1.125   2.908  24.685  0.00  0.00    +0.041 A 
ATOM     15  C   UNL     1      -0.933   3.771  24.935  0.00  0.00    +0.058 C 
ATOM     16  C   UNL     1      -0.396   4.219  24.998  0.00  0.00    +0.011 C 
ATOM     17  C   UNL     1      -1.202   4.223  25.121  0.00  0.00    +0.043 C 
ATOM     18  C   UNL     1      -2.147   4.422  25.329  0.00  0.00    +0.096 C 
ATOM     19  N   UNL     1      -2.490   3.684  25.142  0.00  0.00    -0.276 N 
ATOM     20  C   UNL     1      -1.842   3.979  25.139  0.00  0.00    +0.099 C 
ATOM     21  C   UNL     1      -3.075   3.109  25.044  0.00  0.00    +0.249 C 
ATOM     22  O   UNL     1      -2.872   2.357  24.771  0.00  0.00    -0.270 OA
ATOM     30  C   UNL     1      -1.412   3.322  24.862  0.00  0.00    +0.110 C 
ATOM     31  N   UNL     1      -1.941   2.915  24.810  0.00  0.00    -0.299 N 
ATOM     32  C   UNL     1      -2.387   2.238  24.659  0.00  0.00    +0.261 A 
ATOM     33  O   UNL     1      -3.177   2.002  24.702  0.00  0.00    -0.267 OA
ENDROOT
BRANCH  21  23
ATOM     23  C   UNL     1      -3.860   3.287  25.221  0.00  0.00    +0.054 A 
ATOM     24  C   UNL     1      -4.172   3.093  25.959  0.00  0.00    +0.007 A 
ATOM     25  C   UNL     1      -4.959   3.271  26.135  0.00  0.00    +0.030 A 
ATOM     26  C   UNL     1      -5.433   3.642  25.572  0.00  0.00    +0.140 A 
ATOM     27  F   UNL     1      -6.220   3.820  25.748  0.00  0.00    -0.204 F 
ATOM     28  C   UNL     1      -5.122   3.836  24.834  0.00  0.00    +0.030 A 
ATOM     29  C   UNL     1      -4.336   3.658  24.657  0.00  0.00    +0.007 A 
ENDBRANCH  21  23
BRANCH  11  10
ATOM      5  C   UNL     1      -2.325   0.186  24.659  0.00  0.00    -0.006 A 
ATOM      6  C   UNL     1      -2.771  -0.491  24.507  0.00  0.00    -0.003 A 
ATOM      7  C   UNL     1      -3.358  -0.476  23.926  0.00  0.00    -0.000 A 
ATOM      8  C   UNL     1      -3.498   0.215  23.498  0.00  0.00    -0.000 A 
ATOM      9  C   UNL     1      -3.051   0.892  23.651  0.00  0.00    -0.000 A 
ATOM     10  C   UNL     1      -2.465   0.877  24.231  0.00  0.00    +0.002 A 
BRANCH   5   4
ATOM      4  C   UNL     1      -1.738   0.172  25.239  0.00  0.00    +0.099 C 
BRANCH   4   2
ATOM      1  C   UNL     1      -1.999  -0.735  26.312  0.00  0.00    +0.090 C 
ATOM      2  N   UNL     1      -1.569  -0.531  25.637  0.00  0.00    -0.267 NA
ATOM      3  C   UNL     1      -0.972  -1.029  25.362  0.00  0.00    +0.090 C 
ENDBRANCH   4   2
ENDBRANCH   5   4
ENDBRANCH  11  10
TORSDOF 4
ENDMDL
MODEL 8
REMARK VINA RESULT:     -12.8      1.473      3.782
REMARK  Name = 
REMARK  4 active torsions:
REMARK  status: ('A' for Active; 'I' for Inactive)
REMARK    1  A    between atoms: N_2  and  C_4
REMARK    2  A    between atoms: C_4  and  C_5
REMARK    3  A    between atoms: C_10  and  C_11
REMARK    4  A    between atoms: C_21  and  C_23
REMARK                            x       y       z     vdW  Elec       q    Type
REMARK                         _______ _______ _______ _____ _____    ______ ____
ROOT
ATOM     11  C   UNL     1      -3.764   0.148  25.206  0.00  0.00    +0.056 A 
ATOM     12  C   UNL     1      -4.579   0.278  25.213  0.00  0.00    +0.006 A 
ATOM     13  C   UNL     1      -4.881   1.014  24.994  0.00  0.00    +0.013 A 
ATOM     14  C   UNL     1      -4.369   1.620  24.769  0.00  0.00    +0.041 A 
ATOM     15  C   UNL     1      -4.378   2.495  24.488  0.00  0.00    +0.058 C 
ATOM     16  C   UNL     1      -4.818   3.022  24.344  0.00  0.00    +0.011 C 
ATOM     17  C   UNL     1      -4.015   2.890  24.339  0.00  0.00    +0.043 C 
ATOM     18  C   UNL     1      -3.030   2.926  24.268  0.00  0.00    +0.096 C 
ATOM     19  N   UNL     1      -2.844   2.148  24.508  0.00  0.00    -0.276 N 
ATOM     20  C   UNL     1      -3.427   2.545  24.415  0.00  0.00    +0.099 C 
ATOM     21  C   UNL     1      -2.382   1.489  24.693  0.00  0.00    +0.249 C 
ATOM     22  O   UNL     1      -2.743   0.789  24.939  0.00  0.00    -0.270 OA
ATOM     30  C   UNL     1      -3.995   1.976  24.632  0.00  0.00    +0.110 C 
ATOM     31  N   UNL     1      -3.554   1.490  24.762  0.00  0.00    -0.299 N 
ATOM     32  C   UNL     1      -3.251   0.754  24.981  0.00  0.00    +0.261 A 
ATOM     33  O   UNL     1      -2.514   0.392  25.054  0.00  0.00    -0.267 OA
ENDROOT
BRANCH  21  23
ATOM     23  C   UNL     1      -1.561   1.531  24.630  0.00  0.00    +0.054 A 
ATOM     24  C   UNL     1      -1.113   1.815  25.262  0.00  0.00    +0.007 A 
ATOM     25  C   UNL     1      -0.291   1.856  25.199  0.00  0.00    +0.030 A 
ATOM     26  C   UNL     1       0.082   1.613  24.505  0.00  0.00    +0.140 A 
ATOM     27  F   UNL     1       0.905   1.655  24.443  0.00  0.00    -0.204 F 
ATOM     28  C   UNL     1      -0.365   1.329  23.873  0.00  0.00    +0.030 A 
ATOM     29  C   UNL     1      -1.187   1.288  23.936  0.00  0.00    +0.007 A 
ENDBRANCH  21  23
BRANCH  11  10
ATOM      5  C   UNL     1      -3.594  -1.246  24.947  0.00  0.00    -0.006 A 
ATOM      6  C   UNL     1      -3.291  -1.983  25.167  0.00  0.00    -0.003 A 
ATOM      7  C   UNL     1      -2.858  -2.058  25.865  0.00  0.00    -0.000 A 
ATOM      8  C   UNL     1      -2.727  -1.399  26.343  0.00  0.00    -0.000 A 
ATOM      9  C   UNL     1      -3.029  -0.664  26.123  0.00  0.00    -0.000 A 
ATOM     10  C   UNL     1      -3.462  -0.587  25.425  0.00  0.00    +0.002 A 
BRANCH   5   4
ATOM      4  C   UNL     1      -4.027  -1.170  24.249  0.00  0.00    +0.099 C 
BRANCH   4   2
ATOM      1  C   UNL     1      -3.595  -1.921  23.113  0.00  0.00    +0.090 C 
ATOM      2  N   UNL     1      -4.115  -1.818  23.745  0.00  0.00    -0.267 NA
ATOM      3  C   UNL     1      -4.721  -2.361  23.874  0.00  0.00    +0.090 C 
ENDBRANCH   4   2
ENDBRANCH   5   4
ENDBRANCH  11  10
TORSDOF 4
ENDMDL
