MODEL 1
REMARK VINA RESULT:     -13.7      0.000      0.000
REMARK  Name = 
REMARK  4 active torsions:
REMARK  status: ('A' for Active; 'I' for Inactive)
REMARK    1  A    between atoms: C_3  and  C_11
REMARK    2  A    between atoms: N_14  and  C_15
REMARK    3  A    between atoms: C_15  and  C_16
REMARK    4  A    between atoms: C_19  and  C_22
REMARK                            x       y       z     vdW  Elec       q    Type
REMARK                         _______ _______ _______ _____ _____    ______ ____
ROOT
ATOM     11  C   UNL     1      -3.212   2.145  24.487  0.00  0.00    +0.074 C 
ATOM     12  C   UNL     1      -3.521   1.931  23.753  0.00  0.00    +0.026 C 
ATOM     13  C   UNL     1      -4.007   1.272  23.862  0.00  0.00    +0.073 C 
ATOM     14  N   UNL     1      -3.997   1.079  24.664  0.00  0.00    -0.269 NA
ATOM     26  C   UNL     1      -3.506   1.619  25.051  0.00  0.00    +0.080 C 
ENDROOT
BRANCH  11   3
ATOM      1  C   UNL     1      -1.436   2.139  24.232  0.00  0.00    +0.132 C 
ATOM      2  N   UNL     1      -1.882   2.772  24.515  0.00  0.00    -0.313 N 
ATOM      3  C   UNL     1      -2.699   2.775  24.632  0.00  0.00    +0.121 A 
ATOM      4  N   UNL     1      -2.913   3.517  24.920  0.00  0.00    -0.231 NA
ATOM      5  C   UNL     1      -2.228   3.973  24.981  0.00  0.00    +0.098 A 
ATOM      6  C   UNL     1      -1.592   3.512  24.731  0.00  0.00    +0.079 A 
ATOM      7  C   UNL     1      -0.829   3.828  24.732  0.00  0.00    +0.019 A 
ATOM      8  C   UNL     1      -0.703   4.603  24.983  0.00  0.00    +0.002 A 
ATOM      9  C   UNL     1      -1.340   5.064  25.233  0.00  0.00    +0.002 A 
ATOM     10  C   UNL     1      -2.103   4.750  25.233  0.00  0.00    +0.021 A 
ENDBRANCH  11   3
BRANCH  14  15
ATOM     15  C   UNL     1      -4.406   0.457  25.018  0.00  0.00    +0.099 C 
BRANCH  15  16
ATOM     16  C   UNL     1      -4.126  -0.315  24.947  0.00  0.00    -0.006 A 
ATOM     17  C   UNL     1      -4.326  -0.768  24.286  0.00  0.00    -0.003 A 
ATOM     18  C   UNL     1      -4.045  -1.540  24.216  0.00  0.00    +0.004 A 
ATOM     19  C   UNL     1      -3.564  -1.860  24.804  0.00  0.00    +0.071 A 
ATOM     20  C   UNL     1      -3.363  -1.407  25.465  0.00  0.00    +0.004 A 
ATOM     21  C   UNL     1      -3.645  -0.634  25.536  0.00  0.00    -0.003 A 
BRANCH  19  22
ATOM     22  C   UNL     1      -3.283  -2.632  24.733  0.00  0.00    +0.419 C 
ATOM     23  F   UNL     1      -3.001  -3.404  24.660  0.00  0.00    -0.166 F 
ATOM     24  F   UNL     1      -2.858  -2.415  24.059  0.00  0.00    -0.166 F 
ATOM     25  F   UNL     1      -3.707  -2.849  25.405  0.00  0.00    -0.166 F 
ENDBRANCH  19  22
ENDBRANCH  15  16
ENDBRANCH  14  15
TORSDOF 4
ENDMDL
MODEL 2
REMARK VINA RESULT:     -13.4      2.623      5.341
REMARK  Name = 
REMARK  4 active torsions:
REMARK  status: ('A' for Active; 'I' for Inactive)
REMARK    1  A    between atoms: C_3  and  C_11
REMARK    2  A    between atoms: N_14  and  C_15
REMARK    3  A    between atoms: C_15  and  C_16
REMARK    4  A    between atoms: C_19  and  C_22
REMARK                            x       y       z     vdW  Elec       q    Type
REMARK                         _______ _______ _______ _____ _____    ______ ____
ROOT
ATOM     11  C   UNL     1      -4.357   0.611  24.725  0.00  0.00    +0.074 C 
ATOM     12  C   UNL     1      -4.891   0.935  25.264  0.00  0.00    +0.026 C 
ATOM     13  C   UNL     1      -4.908   1.752  25.145  0.00  0.00    +0.073 C 
ATOM     14  N   UNL     1      -4.386   1.932  24.533  0.00  0.00    -0.269 NA
ATOM     26  C   UNL     1      -4.045   1.227  24.273  0.00  0.00    +0.080 C 
ENDROOT
BRANCH  11   3
ATOM      1  C   UNL     1      -3.197  -0.299  25.749  0.00  0.00    +0.132 C 
ATOM      2  N   UNL     1      -3.635  -0.607  25.122  0.00  0.00    -0.313 N 
ATOM      3  C   UNL     1      -4.168  -0.189  24.651  0.00  0.00    +0.121 A 
ATOM      4  N   UNL     1      -4.480  -0.711  24.094  0.00  0.00    -0.231 NA
ATOM      5  C   UNL     1      -4.139  -1.451  24.220  0.00  0.00    +0.098 A 
ATOM      6  C   UNL     1      -3.617  -1.387  24.856  0.00  0.00    +0.079 A 
ATOM      7  C   UNL     1      -3.193  -2.048  25.109  0.00  0.00    +0.019 A 
ATOM      8  C   UNL     1      -3.290  -2.772  24.727  0.00  0.00    +0.002 A 
ATOM      9  C   UNL     1      -3.812  -2.836  24.092  0.00  0.00    +0.002 A 
ATOM     10  C   UNL     1      -4.237  -2.176  23.838  0.00  0.00    +0.021 A 
ENDBRANCH  11   3
BRANCH  14  15
ATOM     15  C   UNL     1      -4.231   2.684  24.232  0.00  0.00    +0.099 C 
BRANCH  15  16
ATOM     16  C   UNL     1      -3.590   3.118  24.516  0.00  0.00    -0.006 A 
ATOM     17  C   UNL     1      -2.852   3.051  24.151  0.00  0.00    -0.003 A 
ATOM     18  C   UNL     1      -2.212   3.485  24.435  0.00  0.00    +0.004 A 
ATOM     19  C   UNL     1      -2.306   3.986  25.084  0.00  0.00    +0.071 A 
ATOM     20  C   UNL     1      -3.044   4.053  25.449  0.00  0.00    +0.004 A 
ATOM     21  C   UNL     1      -3.686   3.618  25.165  0.00  0.00    -0.003 A 
BRANCH  19  22
ATOM     22  C   UNL     1      -1.665   4.420  25.368  0.00  0.00    +0.419 C 
ATOM     23  F   UNL     1      -1.023   4.853  25.652  0.00  0.00    -0.166 F 
ATOM     24  F   UNL     1      -1.417   3.766  25.807  0.00  0.00    -0.166 F 
ATOM     25  F   UNL     1      -1.912   5.073  24.929  0.00  0.00    -0.166 F 
ENDBRANCH  19  22
ENDBRANCH  15  16
ENDBRANCH  14  15
TORSDOF 4
ENDMDL
MODEL 3
REMARK VINA RESULT:     -13.2      3.048      5.637
REMARK  Name = 
REMARK  4 active torsions:
REMARK  status: ('A' for Active; 'I' for Inactive)
REMARK    1  A    between atoms: C_3  and  C_11
REMARK    2  A    between atoms: N_14  and  C_15
REMARK    3  A    between atoms: C_15  and  C_16
REMARK    4  A    between atoms: C_19  and  C_22
REMARK                            x       y       z     vdW  Elec       q    Type
REMARK                         _______ _______ _______ _____ _____    ______ ____
ROOT
ATOM     11  C   UNL     1      -1.485   0.281  24.751  0.00  0.00    +0.074 C 
ATOM     12  C   UNL     1      -0.837   0.434  24.265  0.00  0.00    +0.026 C 
ATOM     13  C   UNL     1      -0.416   1.064  24.591  0.00  0.00    +0.073 C 
ATOM     14  N   UNL     1      -0.804   1.301  25.280  0.00  0.00    -0.269 NA
ATOM     26  C   UNL     1      -1.465   0.817  25.379  0.00  0.00    +0.080 C 
ENDROOT
BRANCH  11   3
ATOM      1  C   UNL     1      -1.273  -1.474  25.059  0.00  0.00    +0.132 C 
ATOM      2  N   UNL     1      -1.956  -1.111  24.774  0.00  0.00    -0.313 N 
ATOM      3  C   UNL     1      -2.054  -0.304  24.632  0.00  0.00    +0.121 A 
ATOM      4  N   UNL     1      -2.820  -0.186  24.351  0.00  0.00    -0.231 NA
ATOM      5  C   UNL     1      -3.196  -0.919  24.318  0.00  0.00    +0.098 A 
ATOM      6  C   UNL     1      -2.662  -1.491  24.580  0.00  0.00    +0.079 A 
ATOM      7  C   UNL     1      -2.889  -2.284  24.607  0.00  0.00    +0.019 A 
ATOM      8  C   UNL     1      -3.648  -2.505  24.373  0.00  0.00    +0.002 A 
ATOM      9  C   UNL     1      -4.182  -1.933  24.112  0.00  0.00    +0.002 A 
ATOM     10  C   UNL     1      -3.956  -1.140  24.084  0.00  0.00    +0.021 A 
ENDBRANCH  11   3
BRANCH  14  15
ATOM     15  C   UNL     1      -0.572   1.914  25.781  0.00  0.00    +0.099 C 
BRANCH  15  16
ATOM     16  C   UNL     1      -0.789   2.691  25.611  0.00  0.00    -0.006 A 
ATOM     17  C   UNL     1      -0.330   3.144  25.095  0.00  0.00    -0.003 A 
ATOM     18  C   UNL     1      -0.548   3.921  24.926  0.00  0.00    +0.004 A 
ATOM     19  C   UNL     1      -1.223   4.246  25.270  0.00  0.00    +0.071 A 
ATOM     20  C   UNL     1      -1.682   3.792  25.786  0.00  0.00    +0.004 A 
ATOM     21  C   UNL     1      -1.464   3.015  25.956  0.00  0.00    -0.003 A 
BRANCH  19  22
ATOM     22  C   UNL     1      -1.440   5.023  25.100  0.00  0.00    +0.419 C 
ATOM     23  F   UNL     1      -1.657   5.801  24.930  0.00  0.00    -0.166 F 
ATOM     24  F   UNL     1      -0.644   5.241  25.079  0.00  0.00    -0.166 F 
ATOM     25  F   UNL     1      -2.235   4.806  25.121  0.00  0.00    -0.166 F 
ENDBRANCH  19  22
ENDBRANCH  15  16
ENDBRANCH  14  15
TORSDOF 4
ENDMDL
