MODEL 1
REMARK VINA RESULT:     -10.7      0.000      0.000
REMARK  Name = 
REMARK  7 active torsions:
REMARK  status: ('A' for Active; 'I' for Inactive)
REMARK    1  A    between atoms: O_2  and  C_3
REMARK    2  A    between atoms: C_8  and  O_9
REMARK    3  A    between atoms: C_11  and  C_12
REMARK    4  A    between atoms: C_12  and  C_13
REMARK    5  A    between atoms: C_18  and  C_19
REMARK    6  A    between atoms: C_19  and  C_20
REMARK    7  A    between atoms: C_23  and  C_25
REMARK                            x       y       z     vdW  Elec       q    Type
REMARK                         _______ _______ _______ _____ _____    ______ ____
ROOT
ATOM     13  C   UNL     1      -3.830   1.257  24.786  0.00  0.00    +0.026 C 
ATOM     14  C   UNL     1      -3.292   0.632  24.790  0.00  0.00    +0.094 C 
ATOM     15  N   UNL     1      -3.564  -0.147  24.763  0.00  0.00    -0.276 N 
ATOM     16  C   UNL     1      -4.374  -0.300  24.732  0.00  0.00    +0.094 C 
ATOM     17  C   UNL     1      -4.911   0.325  24.727  0.00  0.00    +0.022 C 
ATOM     18  C   UNL     1      -4.640   1.103  24.754  0.00  0.00    +0.015 C 
ATOM     23  C   UNL     1      -3.025  -0.772  24.768  0.00  0.00    +0.255 C 
ATOM     24  O   UNL     1      -2.215  -0.618  24.799  0.00  0.00    -0.269 OA
ENDROOT
BRANCH  23  25
ATOM     25  C   UNL     1      -3.297  -1.550  24.741  0.00  0.00    +0.083 A 
ATOM     26  C   UNL     1      -3.602  -1.935  24.077  0.00  0.00    +0.012 A 
ATOM     27  C   UNL     1      -3.805  -2.704  24.298  0.00  0.00    +0.008 A 
ATOM     28  C   UNL     1      -3.626  -2.794  25.098  0.00  0.00    +0.036 A 
ATOM     29  S   UNL     1      -3.312  -2.081  25.372  0.00  0.00    -0.082 S 
ENDBRANCH  23  25
BRANCH  13  12
ATOM     12  C   UNL     1      -3.559   2.035  24.813  0.00  0.00    +0.047 C 
BRANCH  12  11
ATOM      3  C   UNL     1      -1.468   4.137  25.073  0.00  0.00    +0.172 A 
ATOM      4  C   UNL     1      -1.312   3.744  24.364  0.00  0.00    +0.036 A 
ATOM      5  C   UNL     1      -1.795   3.120  24.121  0.00  0.00    -0.016 A 
ATOM      6  C   UNL     1      -2.436   2.889  24.588  0.00  0.00    +0.012 A 
ATOM      7  C   UNL     1      -2.592   3.282  25.297  0.00  0.00    +0.041 A 
ATOM      8  C   UNL     1      -2.109   3.905  25.540  0.00  0.00    +0.172 A 
ATOM     11  C   UNL     1      -2.919   2.266  24.346  0.00  0.00    +0.054 C 
ATOM     30  N   UNL     1      -2.763   1.874  23.638  0.00  0.00    -0.274 NA
ATOM     31  C   UNL     1      -2.122   2.106  23.171  0.00  0.00    +0.130 C 
ATOM     32  C   UNL     1      -1.639   2.729  23.413  0.00  0.00    +0.053 C 
BRANCH   3   2
ATOM      1  C   UNL     1      -0.574   5.203  24.755  0.00  0.00    +0.253 C 
ATOM      2  O   UNL     1      -0.985   4.759  25.315  0.00  0.00    -0.468 OA
ENDBRANCH   3   2
BRANCH   8   9
ATOM      9  O   UNL     1      -2.265   4.297  26.248  0.00  0.00    -0.468 OA
ATOM     10  C   UNL     1      -3.024   4.283  26.569  0.00  0.00    +0.253 C 
ENDBRANCH   8   9
ENDBRANCH  12  11
ENDBRANCH  13  12
BRANCH  18  19
ATOM     19  C   UNL     1      -5.179   1.728  24.750  0.00  0.00    +0.114 C 
BRANCH  19  20
ATOM     20  C   UNL     1      -5.916   1.640  25.108  0.00  0.00    +0.365 C 
ATOM     21  O   UNL     1      -5.991   1.723  25.925  0.00  0.00    -0.246 OA
ATOM     22  O   UNL     1      -6.580   1.467  24.648  0.00  0.00    -0.246 OA
ENDBRANCH  19  20
ENDBRANCH  18  19
TORSDOF 7
ENDMDL
MODEL 2
REMARK VINA RESULT:     -10.1      1.721      4.692
REMARK  Name = 
REMARK  7 active torsions:
REMARK  status: ('A' for Active; 'I' for Inactive)
REMARK    1  A    between atoms: O_2  and  C_3
REMARK    2  A    between atoms: C_8  and  O_9
REMARK    3  A    between atoms: C_11  and  C_12
REMARK    4  A    between atoms: C_12  and  C_13
REMARK    5  A    between atoms: C_18  and  C_19
REMARK    6  A    between atoms: C_19  and  C_20
REMARK    7  A    between atoms: C_23  and  C_25
REMARK                            x       y       z     vdW  Elec       q    Type
REMARK                         _______ _______ _______ _____ _____    ______ ____
ROOT
ATOM     13  C   UNL     1      -3.661   1.945  25.114  0.00  0.00    +0.026 C 
ATOM     14  C   UNL     1      -2.851   2.073  25.038  0.00  0.00    +0.094 C 
ATOM     15  N   UNL     1      -2.553   2.843  25.036  0.00  0.00    -0.276 N 
ATOM     16  C   UNL     1      -3.067   3.484  25.109  0.00  0.00    +0.094 C 
ATOM     17  C   UNL     1      -3.877   3.356  25.185  0.00  0.00    +0.022 C 
ATOM     18  C   UNL     1      -4.176   2.587  25.188  0.00  0.00    +0.015 C 
ATOM     23  C   UNL     1      -1.741   2.972  24.960  0.00  0.00    +0.255 C 
ATOM     24  O   UNL     1      -1.228   2.330  24.886  0.00  0.00    -0.269 OA
ENDROOT
BRANCH  23  25
ATOM     25  C   UNL     1      -1.444   3.740  24.957  0.00  0.00    +0.083 A 
ATOM     26  C   UNL     1      -1.573   4.313  25.538  0.00  0.00    +0.012 A 
ATOM     27  C   UNL     1      -1.174   5.000  25.314  0.00  0.00    +0.008 A 
ATOM     28  C   UNL     1      -0.798   4.851  24.594  0.00  0.00    +0.036 A 
ATOM     29  S   UNL     1      -0.964   4.074  24.374  0.00  0.00    -0.082 S 
ENDBRANCH  23  25
BRANCH  13  12
ATOM     12  C   UNL     1      -3.959   1.176  25.117  0.00  0.00    +0.047 C 
BRANCH  12  11
ATOM      3  C   UNL     1      -3.476  -1.750  24.883  0.00  0.00    +0.172 A 
ATOM      4  C   UNL     1      -3.431  -1.448  24.116  0.00  0.00    +0.036 A 
ATOM      5  C   UNL     1      -3.540  -0.641  23.982  0.00  0.00    -0.016 A 
ATOM      6  C   UNL     1      -3.695  -0.135  24.616  0.00  0.00    +0.012 A 
ATOM      7  C   UNL     1      -3.741  -0.437  25.383  0.00  0.00    +0.041 A 
ATOM      8  C   UNL     1      -3.632  -1.244  25.517  0.00  0.00    +0.172 A 
ATOM     11  C   UNL     1      -3.804   0.671  24.483  0.00  0.00    +0.054 C 
ATOM     30  N   UNL     1      -3.759   0.973  23.717  0.00  0.00    -0.274 NA
ATOM     31  C   UNL     1      -3.603   0.467  23.083  0.00  0.00    +0.130 C 
ATOM     32  C   UNL     1      -3.494  -0.340  23.216  0.00  0.00    +0.053 C 
BRANCH   3   2
ATOM      1  C   UNL     1      -3.490  -3.096  24.405  0.00  0.00    +0.253 C 
ATOM      2  O   UNL     1      -3.367  -2.556  25.016  0.00  0.00    -0.468 OA
ENDBRANCH   3   2
BRANCH   8   9
ATOM      9  O   UNL     1      -3.678  -1.546  26.283  0.00  0.00    -0.468 OA
ATOM     10  C   UNL     1      -3.112  -1.334  26.844  0.00  0.00    +0.253 C 
ENDBRANCH   8   9
ENDBRANCH  12  11
ENDBRANCH  13  12
BRANCH  18  19
ATOM     19  C   UNL     1      -4.987   2.459  25.264  0.00  0.00    +0.114 C 
BRANCH  19  20
ATOM     20  C   UNL     1      -5.454   3.004  25.670  0.00  0.00    +0.365 C 
ATOM     21  O   UNL     1      -5.633   2.881  26.466  0.00  0.00    -0.246 OA
ATOM     22  O   UNL     1      -5.742   3.672  25.280  0.00  0.00    -0.246 OA
ENDBRANCH  19  20
ENDBRANCH  18  19
TORSDOF 7
ENDMDL
MODEL 3
REMARK VINA RESULT:      -9.8      1.618      2.871
REMARK  Name = 
REMARK  7 active torsions:
REMARK  status: ('A' for Active; 'I' for Inactive)
REMARK    1  A    between atoms: O_2  and  C_3
REMARK    2  A    between atoms: C_8  and  O_9
REMARK    3  A    between atoms: C_11  and  C_12
REMARK    4  A    between atoms: C_12  and  C_13
REMARK    5  A    between atoms: C_18  and  C_19
REMARK    6  A    between atoms: C_19  and  C_20
REMARK    7  A    between atoms: C_23  and  C_25
REMARK                            x       y       z     vdW  Elec       q    Type
REMARK                         _______ _______ _______ _____ _____    ______ ____
ROOT
ATOM     13  C   UNL     1      -2.279   0.921  24.460  0.00  0.00    +0.026 C 
ATOM     14  C   UNL     1      -2.957   0.477  24.607  0.00  0.00    +0.094 C 
ATOM     15  N   UNL     1      -2.922  -0.347  24.596  0.00  0.00    -0.276 N 
ATOM     16  C   UNL     1      -2.207  -0.727  24.438  0.00  0.00    +0.094 C 
ATOM     17  C   UNL     1      -1.528  -0.283  24.291  0.00  0.00    +0.022 C 
ATOM     18  C   UNL     1      -1.563   0.541  24.302  0.00  0.00    +0.015 C 
ATOM     23  C   UNL     1      -3.602  -0.791  24.744  0.00  0.00    +0.255 C 
ATOM     24  O   UNL     1      -4.317  -0.411  24.902  0.00  0.00    -0.269 OA
ENDROOT
BRANCH  23  25
ATOM     25  C   UNL     1      -3.566  -1.615  24.733  0.00  0.00    +0.083 A 
ATOM     26  C   UNL     1      -3.751  -2.101  24.091  0.00  0.00    +0.012 A 
ATOM     27  C   UNL     1      -3.639  -2.885  24.323  0.00  0.00    +0.008 A 
ATOM     28  C   UNL     1      -3.384  -2.883  25.108  0.00  0.00    +0.036 A 
ATOM     29  S   UNL     1      -3.340  -2.100  25.361  0.00  0.00    -0.082 S 
ENDBRANCH  23  25
BRANCH  13  12
ATOM     12  C   UNL     1      -2.314   1.745  24.470  0.00  0.00    +0.047 C 
BRANCH  12  11
ATOM      3  C   UNL     1      -4.289   3.879  25.101  0.00  0.00    +0.172 A 
ATOM      4  C   UNL     1      -4.398   3.693  24.304  0.00  0.00    +0.036 A 
ATOM      5  C   UNL     1      -3.931   3.114  23.947  0.00  0.00    -0.016 A 
ATOM      6  C   UNL     1      -3.355   2.719  24.387  0.00  0.00    +0.012 A 
ATOM      7  C   UNL     1      -3.247   2.904  25.184  0.00  0.00    +0.041 A 
ATOM      8  C   UNL     1      -3.713   3.483  25.541  0.00  0.00    +0.172 A 
ATOM     11  C   UNL     1      -2.889   2.140  24.030  0.00  0.00    +0.054 C 
ATOM     30  N   UNL     1      -2.998   1.955  23.234  0.00  0.00    -0.274 NA
ATOM     31  C   UNL     1      -3.574   2.351  22.794  0.00  0.00    +0.130 C 
ATOM     32  C   UNL     1      -4.040   2.929  23.151  0.00  0.00    +0.053 C 
BRANCH   3   2
ATOM      1  C   UNL     1      -5.577   4.409  25.416  0.00  0.00    +0.253 C 
ATOM      2  O   UNL     1      -4.755   4.457  25.458  0.00  0.00    -0.468 OA
ENDBRANCH   3   2
BRANCH   8   9
ATOM      9  O   UNL     1      -3.604   3.668  26.337  0.00  0.00    -0.468 OA
ATOM     10  C   UNL     1      -2.861   3.900  26.609  0.00  0.00    +0.253 C 
ENDBRANCH   8   9
ENDBRANCH  12  11
ENDBRANCH  13  12
BRANCH  18  19
ATOM     19  C   UNL     1      -0.884   0.985  24.154  0.00  0.00    +0.114 C 
BRANCH  19  20
ATOM     20  C   UNL     1      -0.158   0.607  24.055  0.00  0.00    +0.365 C 
ATOM     21  O   UNL     1       0.106   0.411  23.298  0.00  0.00    -0.246 OA
ATOM     22  O   UNL     1       0.306   0.423  24.713  0.00  0.00    -0.246 OA
ENDBRANCH  19  20
ENDBRANCH  18  19
TORSDOF 7
ENDMDL
MODEL 4
REMARK VINA RESULT:      -9.8      2.034      3.182
REMARK  Name = 
REMARK  7 active torsions:
REMARK  status: ('A' for Active; 'I' for Inactive)
REMARK    1  A    between atoms: O_2  and  C_3
REMARK    2  A    between atoms: C_8  and  O_9
REMARK    3  A    between atoms: C_11  and  C_12
REMARK    4  A    between atoms: C_12  and  C_13
REMARK    5  A    between atoms: C_18  and  C_19
REMARK    6  A    between atoms: C_19  and  C_20
REMARK    7  A    between atoms: C_23  and  C_25
REMARK                            x       y       z     vdW  Elec       q    Type
REMARK                         _______ _______ _______ _____ _____    ______ ____
ROOT
ATOM     13  C   UNL     1      -3.543  -0.166  24.607  0.00  0.00    +0.026 C 
ATOM     14  C   UNL     1      -2.798   0.056  24.881  0.00  0.00    +0.094 C 
ATOM     15  N   UNL     1      -2.171  -0.480  24.853  0.00  0.00    -0.276 N 
ATOM     16  C   UNL     1      -2.291  -1.238  24.551  0.00  0.00    +0.094 C 
ATOM     17  C   UNL     1      -3.036  -1.460  24.277  0.00  0.00    +0.022 C 
ATOM     18  C   UNL     1      -3.663  -0.925  24.305  0.00  0.00    +0.015 C 
ATOM     23  C   UNL     1      -1.425  -0.258  25.127  0.00  0.00    +0.255 C 
ATOM     24  O   UNL     1      -1.307   0.501  25.429  0.00  0.00    -0.269 OA
ENDROOT
BRANCH  23  25
ATOM     25  C   UNL     1      -0.800  -0.793  25.099  0.00  0.00    +0.083 A 
ATOM     26  C   UNL     1      -0.649  -1.393  25.646  0.00  0.00    +0.012 A 
ATOM     27  C   UNL     1       0.030  -1.795  25.404  0.00  0.00    +0.008 A 
ATOM     28  C   UNL     1       0.299  -1.444  24.708  0.00  0.00    +0.036 A 
ATOM     29  S   UNL     1      -0.213  -0.826  24.519  0.00  0.00    -0.082 S 
ENDBRANCH  23  25
BRANCH  13  12
ATOM     12  C   UNL     1      -4.170   0.370  24.635  0.00  0.00    +0.047 C 
BRANCH  12  11
ATOM      3  C   UNL     1      -5.291   3.019  25.395  0.00  0.00    +0.172 A 
ATOM      4  C   UNL     1      -4.785   3.158  24.758  0.00  0.00    +0.036 A 
ATOM      5  C   UNL     1      -4.378   2.531  24.408  0.00  0.00    -0.016 A 
ATOM      6  C   UNL     1      -4.477   1.763  24.696  0.00  0.00    +0.012 A 
ATOM      7  C   UNL     1      -4.983   1.624  25.333  0.00  0.00    +0.041 A 
ATOM      8  C   UNL     1      -5.391   2.251  25.683  0.00  0.00    +0.172 A 
ATOM     11  C   UNL     1      -4.071   1.137  24.347  0.00  0.00    +0.054 C 
ATOM     30  N   UNL     1      -3.565   1.276  23.711  0.00  0.00    -0.274 NA
ATOM     31  C   UNL     1      -3.466   2.044  23.423  0.00  0.00    +0.130 C 
ATOM     32  C   UNL     1      -3.873   2.671  23.772  0.00  0.00    +0.053 C 
BRANCH   3   2
ATOM      1  C   UNL     1      -5.575   4.416  25.477  0.00  0.00    +0.253 C 
ATOM      2  O   UNL     1      -5.698   3.646  25.743  0.00  0.00    -0.468 OA
ENDBRANCH   3   2
BRANCH   8   9
ATOM      9  O   UNL     1      -5.896   2.112  26.319  0.00  0.00    -0.468 OA
ATOM     10  C   UNL     1      -6.396   1.456  26.312  0.00  0.00    +0.253 C 
ENDBRANCH   8   9
ENDBRANCH  12  11
ENDBRANCH  13  12
BRANCH  18  19
ATOM     19  C   UNL     1      -4.408  -1.147  24.031  0.00  0.00    +0.114 C 
BRANCH  19  20
ATOM     20  C   UNL     1      -4.535  -1.915  23.758  0.00  0.00    +0.365 C 
ATOM     21  O   UNL     1      -4.733  -2.514  24.289  0.00  0.00    -0.246 OA
ATOM     22  O   UNL     1      -4.464  -2.084  22.953  0.00  0.00    -0.246 OA
ENDBRANCH  19  20
ENDBRANCH  18  19
TORSDOF 7
ENDMDL
MODEL 5
REMARK VINA RESULT:      -9.4      1.590      2.884
REMARK  Name = 
REMARK  7 active torsions:
REMARK  status: ('A' for Active; 'I' for Inactive)
REMARK    1  A    between atoms: O_2  and  C_3
REMARK    2  A    between atoms: C_8  and  O_9
REMARK    3  A    between atoms: C_11  and  C_12
REMARK    4  A    between atoms: C_12  and  C_13
REMARK    5  A    between atoms: C_18  and  C_19
REMARK    6  A    between atoms: C_19  and  C_20
REMARK    7  A    between atoms: C_23  and  C_25
REMARK                            x       y       z     vdW  Elec       q    Type
REMARK                         _______ _______ _______ _____ _____    ______ ____
ROOT
ATOM     13  C   UNL     1      -1.628   0.248  24.616  0.00  0.00    +0.026 C 
ATOM     14  C   UNL     1      -2.379  -0.029  24.812  0.00  0.00    +0.094 C 
ATOM     15  N   UNL     1      -2.582  -0.815  24.661  0.00  0.00    -0.276 N 
ATOM     16  C   UNL     1      -2.032  -1.323  24.314  0.00  0.00    +0.094 C 
ATOM     17  C   UNL     1      -1.281  -1.046  24.119  0.00  0.00    +0.022 C 
ATOM     18  C   UNL     1      -1.078  -0.261  24.270  0.00  0.00    +0.015 C 
ATOM     23  C   UNL     1      -3.334  -1.092  24.856  0.00  0.00    +0.255 C 
ATOM     24  O   UNL     1      -3.883  -0.583  25.203  0.00  0.00    -0.269 OA
ENDROOT
BRANCH  23  25
ATOM     25  C   UNL     1      -3.536  -1.877  24.705  0.00  0.00    +0.083 A 
ATOM     26  C   UNL     1      -3.348  -2.527  25.179  0.00  0.00    +0.012 A 
ATOM     27  C   UNL     1      -3.657  -3.203  24.821  0.00  0.00    +0.008 A 
ATOM     28  C   UNL     1      -4.036  -2.971  24.126  0.00  0.00    +0.036 A 
ATOM     29  S   UNL     1      -3.961  -2.153  24.054  0.00  0.00    -0.082 S 
ENDBRANCH  23  25
BRANCH  13  12
ATOM     12  C   UNL     1      -1.425   1.033  24.767  0.00  0.00    +0.047 C 
BRANCH  12  11
ATOM      3  C   UNL     1      -1.643   3.941  25.357  0.00  0.00    +0.172 A 
ATOM      4  C   UNL     1      -2.190   3.787  24.758  0.00  0.00    +0.036 A 
ATOM      5  C   UNL     1      -2.272   3.022  24.460  0.00  0.00    -0.016 A 
ATOM      6  C   UNL     1      -1.807   2.409  24.762  0.00  0.00    +0.012 A 
ATOM      7  C   UNL     1      -1.261   2.564  25.361  0.00  0.00    +0.041 A 
ATOM      8  C   UNL     1      -1.179   3.329  25.659  0.00  0.00    +0.172 A 
ATOM     11  C   UNL     1      -1.890   1.645  24.465  0.00  0.00    +0.054 C 
ATOM     30  N   UNL     1      -2.435   1.491  23.867  0.00  0.00    -0.274 NA
ATOM     31  C   UNL     1      -2.900   2.104  23.565  0.00  0.00    +0.130 C 
ATOM     32  C   UNL     1      -2.818   2.868  23.862  0.00  0.00    +0.053 C 
BRANCH   3   2
ATOM      1  C   UNL     1      -1.689   5.355  25.163  0.00  0.00    +0.253 C 
ATOM      2  O   UNL     1      -1.561   4.706  25.654  0.00  0.00    -0.468 OA
ENDBRANCH   3   2
BRANCH   8   9
ATOM      9  O   UNL     1      -0.633   3.482  26.257  0.00  0.00    -0.468 OA
ATOM     10  C   UNL     1      -0.078   2.910  26.467  0.00  0.00    +0.253 C 
ENDBRANCH   8   9
ENDBRANCH  12  11
ENDBRANCH  13  12
BRANCH  18  19
ATOM     19  C   UNL     1      -0.326   0.016  24.074  0.00  0.00    +0.114 C 
BRANCH  19  20
ATOM     20  C   UNL     1       0.233  -0.498  23.754  0.00  0.00    +0.365 C 
ATOM     21  O   UNL     1       0.610  -1.052  24.236  0.00  0.00    -0.246 OA
ATOM     22  O   UNL     1       0.415  -0.460  22.949  0.00  0.00    -0.246 OA
ENDBRANCH  19  20
ENDBRANCH  18  19
TORSDOF 7
ENDMDL
MODEL 6
REMARK VINA RESULT:      -9.2      1.955      5.172
REMARK  Name = 
REMARK  7 active torsions:
REMARK  status: ('A' for Active; 'I' for Inactive)
REMARK    1  A    between atoms: O_2  and  C_3
REMARK    2  A    between atoms: C_8  and  O_9
REMARK    3  A    between atoms: C_11  and  C_12
REMARK    4  A    between atoms: C_12  and  C_13
REMARK    5  A    between atoms: C_18  and  C_19
REMARK    6  A    between atoms: C_19  and  C_20
REMARK    7  A    between atoms: C_23  and  C_25
REMARK                            x       y       z     vdW  Elec       q    Type
REMARK                         _______ _______ _______ _____ _____    ______ ____
ROOT
ATOM     13  C   UNL     1      -2.446   1.614  23.825  0.00  0.00    +0.026 C 
ATOM     14  C   UNL     1      -2.179   1.972  24.518  0.00  0.00    +0.094 C 
ATOM     15  N   UNL     1      -2.023   2.782  24.530  0.00  0.00    -0.276 N 
ATOM     16  C   UNL     1      -2.136   3.234  23.849  0.00  0.00    +0.094 C 
ATOM     17  C   UNL     1      -2.403   2.876  23.157  0.00  0.00    +0.022 C 
ATOM     18  C   UNL     1      -2.558   2.066  23.144  0.00  0.00    +0.015 C 
ATOM     23  C   UNL     1      -1.756   3.140  25.224  0.00  0.00    +0.255 C 
ATOM     24  O   UNL     1      -1.644   2.688  25.905  0.00  0.00    -0.269 OA
ENDROOT
BRANCH  23  25
ATOM     25  C   UNL     1      -1.601   3.950  25.236  0.00  0.00    +0.083 A 
ATOM     26  C   UNL     1      -0.889   4.311  25.026  0.00  0.00    +0.012 A 
ATOM     27  C   UNL     1      -0.978   5.126  25.121  0.00  0.00    +0.008 A 
ATOM     28  C   UNL     1      -1.745   5.269  25.390  0.00  0.00    +0.036 A 
ATOM     29  S   UNL     1      -2.129   4.542  25.461  0.00  0.00    -0.082 S 
ENDBRANCH  23  25
BRANCH  13  12
ATOM     12  C   UNL     1      -2.601   0.804  23.812  0.00  0.00    +0.047 C 
BRANCH  12  11
ATOM      3  C   UNL     1      -3.002  -1.847  25.102  0.00  0.00    +0.172 A 
ATOM      4  C   UNL     1      -3.649  -1.385  25.321  0.00  0.00    +0.036 A 
ATOM      5  C   UNL     1      -3.711  -0.606  25.054  0.00  0.00    -0.016 A 
ATOM      6  C   UNL     1      -3.125  -0.290  24.566  0.00  0.00    +0.012 A 
ATOM      7  C   UNL     1      -2.478  -0.752  24.347  0.00  0.00    +0.041 A 
ATOM      8  C   UNL     1      -2.416  -1.531  24.614  0.00  0.00    +0.172 A 
ATOM     11  C   UNL     1      -3.187   0.488  24.299  0.00  0.00    +0.054 C 
ATOM     30  N   UNL     1      -3.833   0.949  24.519  0.00  0.00    -0.274 NA
ATOM     31  C   UNL     1      -4.420   0.633  25.007  0.00  0.00    +0.130 C 
ATOM     32  C   UNL     1      -4.358  -0.145  25.274  0.00  0.00    +0.053 C 
BRANCH   3   2
ATOM      1  C   UNL     1      -3.568  -3.148  25.263  0.00  0.00    +0.253 C 
ATOM      2  O   UNL     1      -2.940  -2.625  25.369  0.00  0.00    -0.468 OA
ENDBRANCH   3   2
BRANCH   8   9
ATOM      9  O   UNL     1      -1.769  -1.992  24.394  0.00  0.00    -0.468 OA
ATOM     10  C   UNL     1      -1.003  -1.705  24.496  0.00  0.00    +0.253 C 
ENDBRANCH   8   9
ENDBRANCH  12  11
ENDBRANCH  13  12
BRANCH  18  19
ATOM     19  C   UNL     1      -2.826   1.708  22.450  0.00  0.00    +0.114 C 
BRANCH  19  20
ATOM     20  C   UNL     1      -2.759   2.104  21.730  0.00  0.00    +0.365 C 
ATOM     21  O   UNL     1      -3.310   2.681  21.523  0.00  0.00    -0.246 OA
ATOM     22  O   UNL     1      -2.139   1.922  21.215  0.00  0.00    -0.246 OA
ENDBRANCH  19  20
ENDBRANCH  18  19
TORSDOF 7
ENDMDL
MODEL 7
REMARK VINA RESULT:      -8.5      2.348      3.860
REMARK  Name = 
REMARK  7 active torsions:
REMARK  status: ('A' for Active; 'I' for Inactive)
REMARK    1  A    between atoms: O_2  and  C_3
REMARK    2  A    between atoms: C_8  and  O_9
REMARK    3  A    between atoms: C_11  and  C_12
REMARK    4  A    between atoms: C_12  and  C_13
REMARK    5  A    between atoms: C_18  and  C_19
REMARK    6  A    between atoms: C_19  and  C_20
REMARK    7  A    between atoms: C_23  and  C_25
REMARK                            x       y       z     vdW  Elec       q    Type
REMARK                         _______ _______ _______ _____ _____    ______ ____
ROOT
ATOM     13  C   UNL     1      -2.695   0.376  24.880  0.00  0.00    +0.026 C 
ATOM     14  C   UNL     1      -3.041   1.106  24.719  0.00  0.00    +0.094 C 
ATOM     15  N   UNL     1      -3.832   1.240  24.913  0.00  0.00    -0.276 N 
ATOM     16  C   UNL     1      -4.275   0.642  25.270  0.00  0.00    +0.094 C 
ATOM     17  C   UNL     1      -3.929  -0.088  25.431  0.00  0.00    +0.022 C 
ATOM     18  C   UNL     1      -3.138  -0.222  25.237  0.00  0.00    +0.015 C 
ATOM     23  C   UNL     1      -4.179   1.971  24.751  0.00  0.00    +0.255 C 
ATOM     24  O   UNL     1      -3.735   2.568  24.395  0.00  0.00    -0.269 OA
ENDROOT
BRANCH  23  25
ATOM     25  C   UNL     1      -4.969   2.104  24.946  0.00  0.00    +0.083 A 
ATOM     26  C   UNL     1      -5.625   1.790  24.555  0.00  0.00    +0.012 A 
ATOM     27  C   UNL     1      -6.305   2.066  24.933  0.00  0.00    +0.008 A 
ATOM     28  C   UNL     1      -6.069   2.551  25.557  0.00  0.00    +0.036 A 
ATOM     29  S   UNL     1      -5.244   2.574  25.565  0.00  0.00    -0.082 S 
ENDBRANCH  23  25
BRANCH  13  12
ATOM     12  C   UNL     1      -1.904   0.242  24.686  0.00  0.00    +0.047 C 
BRANCH  12  11
ATOM      3  C   UNL     1       0.799   0.918  23.643  0.00  0.00    +0.172 A 
ATOM      4  C   UNL     1       0.668   1.421  24.284  0.00  0.00    +0.036 A 
ATOM      5  C   UNL     1      -0.040   1.379  24.705  0.00  0.00    -0.016 A 
ATOM      6  C   UNL     1      -0.619   0.832  24.485  0.00  0.00    +0.012 A 
ATOM      7  C   UNL     1      -0.488   0.328  23.845  0.00  0.00    +0.041 A 
ATOM      8  C   UNL     1       0.221   0.371  23.423  0.00  0.00    +0.172 A 
ATOM     11  C   UNL     1      -1.326   0.789  24.906  0.00  0.00    +0.054 C 
ATOM     30  N   UNL     1      -1.457   1.291  25.546  0.00  0.00    -0.274 NA
ATOM     31  C   UNL     1      -0.879   1.838  25.766  0.00  0.00    +0.130 C 
ATOM     32  C   UNL     1      -0.171   1.881  25.345  0.00  0.00    +0.053 C 
BRANCH   3   2
ATOM      1  C   UNL     1       2.139   1.398  23.522  0.00  0.00    +0.253 C 
ATOM      2  O   UNL     1       1.507   0.961  23.223  0.00  0.00    -0.468 OA
ENDBRANCH   3   2
BRANCH   8   9
ATOM      9  O   UNL     1       0.351  -0.132  22.783  0.00  0.00    -0.468 OA
ATOM     10  C   UNL     1       0.147  -0.929  22.836  0.00  0.00    +0.253 C 
ENDBRANCH   8   9
ENDBRANCH  12  11
ENDBRANCH  13  12
BRANCH  18  19
ATOM     19  C   UNL     1      -2.791  -0.952  25.399  0.00  0.00    +0.114 C 
BRANCH  19  20
ATOM     20  C   UNL     1      -3.265  -1.601  25.584  0.00  0.00    +0.365 C 
ATOM     21  O   UNL     1      -3.455  -1.764  26.370  0.00  0.00    -0.246 OA
ATOM     22  O   UNL     1      -3.549  -2.090  24.981  0.00  0.00    -0.246 OA
ENDBRANCH  19  20
ENDBRANCH  18  19
TORSDOF 7
ENDMDL
MODEL 8
REMARK VINA RESULT:      -8.4      2.150      5.079
REMARK  Name = 
REMARK  7 active torsions:
REMARK  status: ('A' for Active; 'I' for Inactive)
REMARK    1  A    between atoms: O_2  and  C_3
REMARK    2  A    between atoms: C_8  and  O_9
REMARK    3  A    between atoms: C_11  and  C_12
REMARK    4  A    between atoms: C_12  and  C_13
REMARK    5  A    between atoms: C_18  and  C_19
REMARK    6  A    between atoms: C_19  and  C_20
REMARK    7  A    between atoms: C_23  and  C_25
REMARK                            x       y       z     vdW  Elec       q    Type
REMARK                         _______ _______ _______ _____ _____    ______ ____
ROOT
ATOM     13  C   UNL     1      -3.475   1.131  23.965  0.00  0.00    +0.026 C 
ATOM     14  C   UNL     1      -3.989   1.306  24.585  0.00  0.00    +0.094 C 
ATOM     15  N   UNL     1      -4.250   2.081  24.700  0.00  0.00    -0.276 N 
ATOM     16  C   UNL     1      -3.996   2.680  24.193  0.00  0.00    +0.094 C 
ATOM     17  C   UNL     1      -3.482   2.505  23.573  0.00  0.00    +0.022 C 
ATOM     18  C   UNL     1      -3.221   1.731  23.458  0.00  0.00    +0.015 C 
ATOM     23  C   UNL     1      -4.765   2.256  25.320  0.00  0.00    +0.255 C 
ATOM     24  O   UNL     1      -5.018   1.655  25.827  0.00  0.00    -0.269 OA
ENDROOT
BRANCH  23  25
ATOM     25  C   UNL     1      -5.025   3.029  25.434  0.00  0.00    +0.083 A 
ATOM     26  C   UNL     1      -5.770   3.325  25.239  0.00  0.00    +0.012 A 
ATOM     27  C   UNL     1      -5.793   4.123  25.448  0.00  0.00    +0.008 A 
ATOM     28  C   UNL     1      -5.060   4.321  25.772  0.00  0.00    +0.036 A 
ATOM     29  S   UNL     1      -4.586   3.646  25.764  0.00  0.00    -0.082 S 
ENDBRANCH  23  25
BRANCH  13  12
ATOM     12  C   UNL     1      -3.215   0.357  23.850  0.00  0.00    +0.047 C 
BRANCH  12  11
ATOM      3  C   UNL     1      -3.380  -2.381  25.003  0.00  0.00    +0.172 A 
ATOM      4  C   UNL     1      -2.784  -1.991  25.421  0.00  0.00    +0.036 A 
ATOM      5  C   UNL     1      -2.593  -1.210  25.238  0.00  0.00    -0.016 A 
ATOM      6  C   UNL     1      -2.999  -0.817  24.635  0.00  0.00    +0.012 A 
ATOM      7  C   UNL     1      -3.595  -1.206  24.218  0.00  0.00    +0.041 A 
ATOM      8  C   UNL     1      -3.786  -1.988  24.401  0.00  0.00    +0.172 A 
ATOM     11  C   UNL     1      -2.809  -0.036  24.452  0.00  0.00    +0.054 C 
ATOM     30  N   UNL     1      -2.214   0.353  24.870  0.00  0.00    -0.274 NA
ATOM     31  C   UNL     1      -1.808  -0.040  25.472  0.00  0.00    +0.130 C 
ATOM     32  C   UNL     1      -1.998  -0.821  25.655  0.00  0.00    +0.053 C 
BRANCH   3   2
ATOM      1  C   UNL     1      -3.144  -3.565  25.766  0.00  0.00    +0.253 C 
ATOM      2  O   UNL     1      -3.570  -3.162  25.187  0.00  0.00    -0.468 OA
ENDBRANCH   3   2
BRANCH   8   9
ATOM      9  O   UNL     1      -4.381  -2.376  23.983  0.00  0.00    -0.468 OA
ATOM     10  C   UNL     1      -4.389  -2.353  23.159  0.00  0.00    +0.253 C 
ENDBRANCH   8   9
ENDBRANCH  12  11
ENDBRANCH  13  12
BRANCH  18  19
ATOM     19  C   UNL     1      -2.707   1.556  22.837  0.00  0.00    +0.114 C 
BRANCH  19  20
ATOM     20  C   UNL     1      -2.427   2.161  22.351  0.00  0.00    +0.365 C 
ATOM     21  O   UNL     1      -2.779   2.298  21.618  0.00  0.00    -0.246 OA
ATOM     22  O   UNL     1      -1.793   2.629  22.599  0.00  0.00    -0.246 OA
ENDBRANCH  19  20
ENDBRANCH  18  19
TORSDOF 7
ENDMDL
MODEL 9
REMARK VINA RESULT:      -8.3      2.833      4.113
REMARK  Name = 
REMARK  7 active torsions:
REMARK  status: ('A' for Active; 'I' for Inactive)
REMARK    1  A    between atoms: O_2  and  C_3
REMARK    2  A    between atoms: C_8  and  O_9
REMARK    3  A    between atoms: C_11  and  C_12
REMARK    4  A    between atoms: C_12  and  C_13
REMARK    5  A    between atoms: C_18  and  C_19
REMARK    6  A    between atoms: C_19  and  C_20
REMARK    7  A    between atoms: C_23  and  C_25
REMARK                            x       y       z     vdW  Elec       q    Type
REMARK                         _______ _______ _______ _____ _____    ______ ____
ROOT
ATOM     13  C   UNL     1      -0.867   0.344  24.557  0.00  0.00    +0.026 C 
ATOM     14  C   UNL     1      -0.300   0.747  24.115  0.00  0.00    +0.094 C 
ATOM     15  N   UNL     1       0.281   0.326  23.707  0.00  0.00    -0.276 N 
ATOM     16  C   UNL     1       0.294  -0.498  23.741  0.00  0.00    +0.094 C 
ATOM     17  C   UNL     1      -0.273  -0.901  24.183  0.00  0.00    +0.022 C 
ATOM     18  C   UNL     1      -0.854  -0.481  24.591  0.00  0.00    +0.015 C 
ATOM     23  C   UNL     1       0.848   0.730  23.264  0.00  0.00    +0.255 C 
ATOM     24  O   UNL     1       0.834   1.554  23.231  0.00  0.00    -0.269 OA
ENDROOT
BRANCH  23  25
ATOM     25  C   UNL     1       1.429   0.310  22.857  0.00  0.00    +0.083 A 
ATOM     26  C   UNL     1       1.319  -0.115  22.157  0.00  0.00    +0.012 A 
ATOM     27  C   UNL     1       2.044  -0.448  21.944  0.00  0.00    +0.008 A 
ATOM     28  C   UNL     1       2.601  -0.228  22.512  0.00  0.00    +0.036 A 
ATOM     29  S   UNL     1       2.221   0.239  23.075  0.00  0.00    -0.082 S 
ENDBRANCH  23  25
BRANCH  13  12
ATOM     12  C   UNL     1      -1.448   0.763  24.965  0.00  0.00    +0.047 C 
BRANCH  12  11
ATOM      3  C   UNL     1      -2.748   3.425  25.244  0.00  0.00    +0.172 A 
ATOM      4  C   UNL     1      -2.052   3.462  25.687  0.00  0.00    +0.036 A 
ATOM      5  C   UNL     1      -1.553   2.806  25.728  0.00  0.00    -0.016 A 
ATOM      6  C   UNL     1      -1.750   2.112  25.326  0.00  0.00    +0.012 A 
ATOM      7  C   UNL     1      -2.446   2.075  24.884  0.00  0.00    +0.041 A 
ATOM      8  C   UNL     1      -2.945   2.731  24.842  0.00  0.00    +0.172 A 
ATOM     11  C   UNL     1      -1.251   1.457  25.367  0.00  0.00    +0.054 C 
ATOM     30  N   UNL     1      -0.556   1.494  25.809  0.00  0.00    -0.274 NA
ATOM     31  C   UNL     1      -0.360   2.188  26.211  0.00  0.00    +0.130 C 
ATOM     32  C   UNL     1      -0.858   2.843  26.170  0.00  0.00    +0.053 C 
BRANCH   3   2
ATOM      1  C   UNL     1      -3.121   4.726  25.701  0.00  0.00    +0.253 C 
ATOM      2  O   UNL     1      -3.247   4.080  25.203  0.00  0.00    -0.468 OA
ENDBRANCH   3   2
BRANCH   8   9
ATOM      9  O   UNL     1      -3.640   2.693  24.401  0.00  0.00    -0.468 OA
ATOM     10  C   UNL     1      -4.102   2.011  24.415  0.00  0.00    +0.253 C 
ENDBRANCH   8   9
ENDBRANCH  12  11
ENDBRANCH  13  12
BRANCH  18  19
ATOM     19  C   UNL     1      -1.421  -0.885  25.034  0.00  0.00    +0.114 C 
BRANCH  19  20
ATOM     20  C   UNL     1      -1.557  -1.686  24.896  0.00  0.00    +0.365 C 
ATOM     21  O   UNL     1      -1.090  -2.255  25.269  0.00  0.00    -0.246 OA
ATOM     22  O   UNL     1      -2.162  -1.920  24.384  0.00  0.00    -0.246 OA
ENDBRANCH  19  20
ENDBRANCH  18  19
TORSDOF 7
ENDMDL
