MODEL 1
REMARK VINA RESULT:     -12.5      0.000      0.000
REMARK  Name = 
REMARK  6 active torsions:
REMARK  status: ('A' for Active; 'I' for Inactive)
REMARK    1  A    between atoms: C_5  and  C_6
REMARK    2  A    between atoms: C_6  and  C_7
REMARK    3  A    between atoms: N_12  and  C_15
REMARK    4  A    between atoms: C_23  and  C_24
REMARK    5  A    between atoms: C_24  and  N_25
REMARK    6  A    between atoms: C_26  and  C_28
REMARK                            x       y       z     vdW  Elec       q    Type
REMARK                         _______ _______ _______ _____ _____    ______ ____
ROOT
ATOM      1  O   UNL     1      -0.524   4.349  24.480  0.00  0.00    -0.218 OA
ATOM      2  C   UNL     1      -0.749   3.565  24.600  0.00  0.00    +0.213 C 
ATOM      3  C   UNL     1      -0.249   2.909  24.580  0.00  0.00    +0.212 C 
ATOM      4  O   UNL     1       0.562   2.921  24.435  0.00  0.00    -0.218 OA
ATOM      5  C   UNL     1      -0.705   2.237  24.730  0.00  0.00    +0.157 C 
ATOM     22  O   UNL     1      -1.485   2.478  24.843  0.00  0.00    -0.351 OA
ATOM     23  C   UNL     1      -1.513   3.299  24.763  0.00  0.00    +0.170 C 
ENDROOT
BRANCH   5   6
ATOM      6  C   UNL     1      -0.427   1.461  24.761  0.00  0.00    +0.117 C 
BRANCH   6   7
ATOM      7  C   UNL     1      -0.680   0.956  25.362  0.00  0.00    +0.228 C 
ATOM      8  O   UNL     1      -0.448   1.095  26.142  0.00  0.00    -0.275 OA
ATOM      9  N   UNL     1      -1.164   0.312  25.185  0.00  0.00    -0.276 N 
ATOM     10  C   UNL     1      -1.417  -0.193  25.786  0.00  0.00    +0.115 C 
ATOM     11  C   UNL     1      -1.901  -0.836  25.609  0.00  0.00    +0.112 C 
ATOM     12  N   UNL     1      -2.133  -0.976  24.830  0.00  0.00    -0.304 N 
ATOM     13  C   UNL     1      -1.881  -0.471  24.228  0.00  0.00    +0.112 C 
ATOM     14  C   UNL     1      -1.396   0.173  24.405  0.00  0.00    +0.115 C 
BRANCH  12  15
ATOM     15  C   UNL     1      -2.617  -1.619  24.653  0.00  0.00    +0.048 A 
ATOM     16  C   UNL     1      -3.412  -1.499  24.465  0.00  0.00    +0.017 A 
ATOM     17  C   UNL     1      -3.895  -2.143  24.288  0.00  0.00    +0.031 A 
ATOM     18  C   UNL     1      -3.586  -2.907  24.298  0.00  0.00    +0.140 A 
ATOM     19  F   UNL     1      -4.069  -3.551  24.121  0.00  0.00    -0.204 F 
ATOM     20  C   UNL     1      -2.791  -3.028  24.486  0.00  0.00    +0.031 A 
ATOM     21  C   UNL     1      -2.307  -2.383  24.663  0.00  0.00    +0.017 A 
ENDBRANCH  12  15
ENDBRANCH   6   7
ENDBRANCH   5   6
BRANCH  23  24
ATOM     24  C   UNL     1      -2.186   3.771  24.833  0.00  0.00    +0.148 C 
BRANCH  24  25
ATOM     25  N   UNL     1      -2.905   3.436  25.059  0.00  0.00    -0.199 NA
ATOM     26  C   UNL     1      -3.612   3.721  24.744  0.00  0.00    +0.265 C 
ATOM     27  O   UNL     1      -3.599   4.343  24.202  0.00  0.00    -0.268 OA
BRANCH  26  28
ATOM     28  C   UNL     1      -4.330   3.386  24.970  0.00  0.00    +0.058 A 
ATOM     29  C   UNL     1      -4.559   2.656  24.663  0.00  0.00    +0.045 A 
ATOM     30  C   UNL     1      -5.278   2.320  24.890  0.00  0.00    +0.177 A 
ATOM     31  C   UNL     1      -5.768   2.715  25.423  0.00  0.00    +0.176 A 
ATOM     32  O   UNL     1      -6.439   2.252  25.544  0.00  0.00    -0.435 OA
ATOM     33  C   UNL     1      -6.365   1.571  25.085  0.00  0.00    +0.429 C 
ATOM     34  O   UNL     1      -5.647   1.613  24.681  0.00  0.00    -0.435 OA
ATOM     35  C   UNL     1      -5.539   3.446  25.730  0.00  0.00    +0.040 A 
ATOM     36  C   UNL     1      -4.820   3.781  25.503  0.00  0.00    +0.008 A 
ENDBRANCH  26  28
ENDBRANCH  24  25
ENDBRANCH  23  24
TORSDOF 6
ENDMDL
MODEL 2
REMARK VINA RESULT:     -11.6      3.453      6.760
REMARK  Name = 
REMARK  6 active torsions:
REMARK  status: ('A' for Active; 'I' for Inactive)
REMARK    1  A    between atoms: C_5  and  C_6
REMARK    2  A    between atoms: C_6  and  C_7
REMARK    3  A    between atoms: N_12  and  C_15
REMARK    4  A    between atoms: C_23  and  C_24
REMARK    5  A    between atoms: C_24  and  N_25
REMARK    6  A    between atoms: C_26  and  C_28
REMARK                            x       y       z     vdW  Elec       q    Type
REMARK                         _______ _______ _______ _____ _____    ______ ____
ROOT
ATOM      1  O   UNL     1       0.325  -1.398  23.988  0.00  0.00    -0.218 OA
ATOM      2  C   UNL     1       0.082  -0.613  23.911  0.00  0.00    +0.213 C 
ATOM      3  C   UNL     1      -0.525  -0.251  24.337  0.00  0.00    +0.212 C 
ATOM      4  O   UNL     1      -0.995  -0.607  24.913  0.00  0.00    -0.218 OA
ATOM      5  C   UNL     1      -0.580   0.534  24.084  0.00  0.00    +0.157 C 
ATOM     22  O   UNL     1      -0.006   0.655  23.503  0.00  0.00    -0.351 OA
ATOM     23  C   UNL     1       0.402  -0.054  23.396  0.00  0.00    +0.170 C 
ENDROOT
BRANCH   5   6
ATOM      6  C   UNL     1      -1.113   1.097  24.364  0.00  0.00    +0.117 C 
BRANCH   6   7
ATOM      7  C   UNL     1      -1.616   1.485  23.838  0.00  0.00    +0.228 C 
ATOM      8  O   UNL     1      -1.443   1.495  23.032  0.00  0.00    -0.275 OA
ATOM      9  N   UNL     1      -2.293   1.865  24.119  0.00  0.00    -0.276 N 
ATOM     10  C   UNL     1      -2.797   2.253  23.593  0.00  0.00    +0.115 C 
ATOM     11  C   UNL     1      -3.473   2.633  23.874  0.00  0.00    +0.112 C 
ATOM     12  N   UNL     1      -3.647   2.624  24.681  0.00  0.00    -0.304 N 
ATOM     13  C   UNL     1      -3.144   2.235  25.206  0.00  0.00    +0.112 C 
ATOM     14  C   UNL     1      -2.467   1.856  24.926  0.00  0.00    +0.115 C 
BRANCH  12  15
ATOM     15  C   UNL     1      -4.323   3.003  24.961  0.00  0.00    +0.048 A 
ATOM     16  C   UNL     1      -4.999   2.563  25.139  0.00  0.00    +0.017 A 
ATOM     17  C   UNL     1      -5.675   2.943  25.420  0.00  0.00    +0.031 A 
ATOM     18  C   UNL     1      -5.677   3.762  25.522  0.00  0.00    +0.140 A 
ATOM     19  F   UNL     1      -6.353   4.142  25.802  0.00  0.00    -0.204 F 
ATOM     20  C   UNL     1      -5.001   4.201  25.343  0.00  0.00    +0.031 A 
ATOM     21  C   UNL     1      -4.324   3.821  25.063  0.00  0.00    +0.017 A 
ENDBRANCH  12  15
ENDBRANCH   6   7
ENDBRANCH   5   6
BRANCH  23  24
ATOM     24  C   UNL     1       1.023  -0.182  22.868  0.00  0.00    +0.148 C 
BRANCH  24  25
ATOM     25  N   UNL     1       1.797  -0.000  23.087  0.00  0.00    -0.199 NA
ATOM     26  C   UNL     1       2.394   0.017  22.518  0.00  0.00    +0.265 C 
ATOM     27  O   UNL     1       2.217  -0.147  21.730  0.00  0.00    -0.268 OA
BRANCH  26  28
ATOM     28  C   UNL     1       3.168   0.199  22.738  0.00  0.00    +0.058 A 
ATOM     29  C   UNL     1       3.637  -0.371  23.104  0.00  0.00    +0.045 A 
ATOM     30  C   UNL     1       4.412  -0.190  23.324  0.00  0.00    +0.177 A 
ATOM     31  C   UNL     1       4.716   0.563  23.177  0.00  0.00    +0.176 A 
ATOM     32  O   UNL     1       5.493   0.582  23.453  0.00  0.00    -0.435 OA
ATOM     33  C   UNL     1       5.669  -0.158  23.771  0.00  0.00    +0.429 C 
ATOM     34  O   UNL     1       5.000  -0.635  23.691  0.00  0.00    -0.435 OA
ATOM     35  C   UNL     1       4.246   1.134  22.810  0.00  0.00    +0.040 A 
ATOM     36  C   UNL     1       3.472   0.952  22.591  0.00  0.00    +0.008 A 
ENDBRANCH  26  28
ENDBRANCH  24  25
ENDBRANCH  23  24
TORSDOF 6
ENDMDL
MODEL 3
REMARK VINA RESULT:     -11.4      1.340      3.913
REMARK  Name = 
REMARK  6 active torsions:
REMARK  status: ('A' for Active; 'I' for Inactive)
REMARK    1  A    between atoms: C_5  and  C_6
REMARK    2  A    between atoms: C_6  and  C_7
REMARK    3  A    between atoms: N_12  and  C_15
REMARK    4  A    between atoms: C_23  and  C_24
REMARK    5  A    between atoms: C_24  and  N_25
REMARK    6  A    between atoms: C_26  and  C_28
REMARK                            x       y       z     vdW  Elec       q    Type
REMARK                         _______ _______ _______ _____ _____    ______ ____
ROOT
ATOM      1  O   UNL     1      -6.045   3.814  25.979  0.00  0.00    -0.218 OA
ATOM      2  C   UNL     1      -5.577   3.169  25.767  0.00  0.00    +0.213 C 
ATOM      3  C   UNL     1      -5.848   2.408  25.598  0.00  0.00    +0.212 C 
ATOM      4  O   UNL     1      -6.633   2.159  25.610  0.00  0.00    -0.218 OA
ATOM      5  C   UNL     1      -5.193   1.940  25.413  0.00  0.00    +0.157 C 
ATOM     22  O   UNL     1      -4.519   2.411  25.469  0.00  0.00    -0.351 OA
ATOM     23  C   UNL     1      -4.755   3.171  25.687  0.00  0.00    +0.170 C 
ENDROOT
BRANCH   5   6
ATOM      6  C   UNL     1      -5.211   1.141  25.209  0.00  0.00    +0.117 C 
BRANCH   6   7
ATOM      7  C   UNL     1      -4.823   0.880  24.530  0.00  0.00    +0.228 C 
ATOM      8  O   UNL     1      -5.001   1.216  23.798  0.00  0.00    -0.275 OA
ATOM      9  N   UNL     1      -4.257   0.281  24.581  0.00  0.00    -0.276 N 
ATOM     10  C   UNL     1      -3.870   0.020  23.902  0.00  0.00    +0.115 C 
ATOM     11  C   UNL     1      -3.304  -0.578  23.953  0.00  0.00    +0.112 C 
ATOM     12  N   UNL     1      -3.126  -0.915  24.685  0.00  0.00    -0.304 N 
ATOM     13  C   UNL     1      -3.513  -0.654  25.365  0.00  0.00    +0.112 C 
ATOM     14  C   UNL     1      -4.080  -0.056  25.313  0.00  0.00    +0.115 C 
BRANCH  12  15
ATOM     15  C   UNL     1      -2.560  -1.513  24.737  0.00  0.00    +0.048 A 
ATOM     16  C   UNL     1      -1.788  -1.332  24.964  0.00  0.00    +0.017 A 
ATOM     17  C   UNL     1      -1.223  -1.931  25.016  0.00  0.00    +0.031 A 
ATOM     18  C   UNL     1      -1.429  -2.710  24.840  0.00  0.00    +0.140 A 
ATOM     19  F   UNL     1      -0.864  -3.308  24.892  0.00  0.00    -0.204 F 
ATOM     20  C   UNL     1      -2.201  -2.891  24.613  0.00  0.00    +0.031 A 
ATOM     21  C   UNL     1      -2.767  -2.292  24.562  0.00  0.00    +0.017 A 
ENDBRANCH  12  15
ENDBRANCH   6   7
ENDBRANCH   5   6
BRANCH  23  24
ATOM     24  C   UNL     1      -4.259   3.819  25.806  0.00  0.00    +0.148 C 
BRANCH  24  25
ATOM     25  N   UNL     1      -3.513   3.838  25.455  0.00  0.00    -0.199 NA
ATOM     26  C   UNL     1      -2.897   4.251  25.815  0.00  0.00    +0.265 C 
ATOM     27  O   UNL     1      -3.027   4.646  26.528  0.00  0.00    -0.268 OA
BRANCH  26  28
ATOM     28  C   UNL     1      -2.151   4.270  25.464  0.00  0.00    +0.058 A 
ATOM     29  C   UNL     1      -1.758   3.566  25.293  0.00  0.00    +0.045 A 
ATOM     30  C   UNL     1      -1.012   3.584  24.941  0.00  0.00    +0.177 A 
ATOM     31  C   UNL     1      -0.658   4.308  24.762  0.00  0.00    +0.176 A 
ATOM     32  O   UNL     1       0.076   4.155  24.419  0.00  0.00    -0.435 OA
ATOM     33  C   UNL     1       0.177   3.337  24.387  0.00  0.00    +0.429 C 
ATOM     34  O   UNL     1      -0.495   2.985  24.710  0.00  0.00    -0.435 OA
ATOM     35  C   UNL     1      -1.052   5.013  24.934  0.00  0.00    +0.040 A 
ATOM     36  C   UNL     1      -1.798   4.994  25.285  0.00  0.00    +0.008 A 
ENDBRANCH  26  28
ENDBRANCH  24  25
ENDBRANCH  23  24
TORSDOF 6
ENDMDL
MODEL 4
REMARK VINA RESULT:     -11.4      2.279      4.540
REMARK  Name = 
REMARK  6 active torsions:
REMARK  status: ('A' for Active; 'I' for Inactive)
REMARK    1  A    between atoms: C_5  and  C_6
REMARK    2  A    between atoms: C_6  and  C_7
REMARK    3  A    between atoms: N_12  and  C_15
REMARK    4  A    between atoms: C_23  and  C_24
REMARK    5  A    between atoms: C_24  and  N_25
REMARK    6  A    between atoms: C_26  and  C_28
REMARK                            x       y       z     vdW  Elec       q    Type
REMARK                         _______ _______ _______ _____ _____    ______ ____
ROOT
ATOM      1  O   UNL     1      -2.191  -2.379  25.048  0.00  0.00    -0.218 OA
ATOM      2  C   UNL     1      -1.921  -1.600  25.013  0.00  0.00    +0.213 C 
ATOM      3  C   UNL     1      -1.132  -1.359  25.025  0.00  0.00    +0.212 C 
ATOM      4  O   UNL     1      -0.474  -1.854  25.075  0.00  0.00    -0.218 OA
ATOM      5  C   UNL     1      -1.116  -0.535  24.979  0.00  0.00    +0.157 C 
ATOM     22  O   UNL     1      -1.895  -0.267  24.938  0.00  0.00    -0.351 OA
ATOM     23  C   UNL     1      -2.393  -0.925  24.959  0.00  0.00    +0.170 C 
ENDROOT
BRANCH   5   6
ATOM      6  C   UNL     1      -0.440  -0.063  24.975  0.00  0.00    +0.117 C 
BRANCH   6   7
ATOM      7  C   UNL     1      -0.321   0.482  24.367  0.00  0.00    +0.228 C 
ATOM      8  O   UNL     1      -0.051   0.226  23.631  0.00  0.00    -0.275 OA
ATOM      9  N   UNL     1      -0.473   1.283  24.495  0.00  0.00    -0.276 N 
ATOM     10  C   UNL     1      -0.354   1.828  23.887  0.00  0.00    +0.115 C 
ATOM     11  C   UNL     1      -0.505   2.628  24.015  0.00  0.00    +0.112 C 
ATOM     12  N   UNL     1      -0.776   2.885  24.751  0.00  0.00    -0.304 N 
ATOM     13  C   UNL     1      -0.895   2.340  25.359  0.00  0.00    +0.112 C 
ATOM     14  C   UNL     1      -0.743   1.539  25.231  0.00  0.00    +0.115 C 
BRANCH  12  15
ATOM     15  C   UNL     1      -0.927   3.685  24.879  0.00  0.00    +0.048 A 
ATOM     16  C   UNL     1      -1.600   3.916  25.297  0.00  0.00    +0.017 A 
ATOM     17  C   UNL     1      -1.751   4.717  25.424  0.00  0.00    +0.031 A 
ATOM     18  C   UNL     1      -1.230   5.287  25.134  0.00  0.00    +0.140 A 
ATOM     19  F   UNL     1      -1.380   6.088  25.262  0.00  0.00    -0.204 F 
ATOM     20  C   UNL     1      -0.556   5.056  24.716  0.00  0.00    +0.031 A 
ATOM     21  C   UNL     1      -0.406   4.254  24.589  0.00  0.00    +0.017 A 
ENDBRANCH  12  15
ENDBRANCH   6   7
ENDBRANCH   5   6
BRANCH  23  24
ATOM     24  C   UNL     1      -3.218  -0.911  24.930  0.00  0.00    +0.148 C 
BRANCH  24  25
ATOM     25  N   UNL     1      -3.626  -0.219  25.114  0.00  0.00    -0.199 NA
ATOM     26  C   UNL     1      -4.335  -0.043  24.729  0.00  0.00    +0.265 C 
ATOM     27  O   UNL     1      -4.635  -0.561  24.161  0.00  0.00    -0.268 OA
BRANCH  26  28
ATOM     28  C   UNL     1      -4.743   0.649  24.912  0.00  0.00    +0.058 A 
ATOM     29  C   UNL     1      -4.436   1.381  24.688  0.00  0.00    +0.045 A 
ATOM     30  C   UNL     1      -4.844   2.074  24.871  0.00  0.00    +0.177 A 
ATOM     31  C   UNL     1      -5.560   2.035  25.279  0.00  0.00    +0.176 A 
ATOM     32  O   UNL     1      -5.837   2.804  25.383  0.00  0.00    -0.435 OA
ATOM     33  C   UNL     1      -5.293   3.320  25.039  0.00  0.00    +0.429 C 
ATOM     34  O   UNL     1      -4.680   2.868  24.723  0.00  0.00    -0.435 OA
ATOM     35  C   UNL     1      -5.868   1.302  25.504  0.00  0.00    +0.040 A 
ATOM     36  C   UNL     1      -5.459   0.610  25.321  0.00  0.00    +0.008 A 
ENDBRANCH  26  28
ENDBRANCH  24  25
ENDBRANCH  23  24
TORSDOF 6
ENDMDL
MODEL 5
REMARK VINA RESULT:     -11.4      2.281      4.154
REMARK  Name = 
REMARK  6 active torsions:
REMARK  status: ('A' for Active; 'I' for Inactive)
REMARK    1  A    between atoms: C_5  and  C_6
REMARK    2  A    between atoms: C_6  and  C_7
REMARK    3  A    between atoms: N_12  and  C_15
REMARK    4  A    between atoms: C_23  and  C_24
REMARK    5  A    between atoms: C_24  and  N_25
REMARK    6  A    between atoms: C_26  and  C_28
REMARK                            x       y       z     vdW  Elec       q    Type
REMARK                         _______ _______ _______ _____ _____    ______ ____
ROOT
ATOM      1  O   UNL     1      -4.655   3.652  25.121  0.00  0.00    -0.218 OA
ATOM      2  C   UNL     1      -3.901   3.325  25.055  0.00  0.00    +0.213 C 
ATOM      3  C   UNL     1      -3.193   3.746  25.006  0.00  0.00    +0.212 C 
ATOM      4  O   UNL     1      -3.114   4.567  25.013  0.00  0.00    -0.218 OA
ATOM      5  C   UNL     1      -2.576   3.200  24.947  0.00  0.00    +0.157 C 
ATOM     22  O   UNL     1      -2.903   2.443  24.961  0.00  0.00    -0.351 OA
ATOM     23  C   UNL     1      -3.722   2.520  25.028  0.00  0.00    +0.170 C 
ENDROOT
BRANCH   5   6
ATOM      6  C   UNL     1      -1.774   3.381  24.886  0.00  0.00    +0.117 C 
BRANCH   6   7
ATOM      7  C   UNL     1      -1.217   2.930  25.294  0.00  0.00    +0.228 C 
ATOM      8  O   UNL     1      -1.195   2.948  26.119  0.00  0.00    -0.275 OA
ATOM      9  N   UNL     1      -0.681   2.459  24.878  0.00  0.00    -0.276 N 
ATOM     10  C   UNL     1      -0.124   2.008  25.286  0.00  0.00    +0.115 C 
ATOM     11  C   UNL     1       0.411   1.539  24.871  0.00  0.00    +0.112 C 
ATOM     12  N   UNL     1       0.390   1.520  24.046  0.00  0.00    -0.304 N 
ATOM     13  C   UNL     1      -0.167   1.971  23.638  0.00  0.00    +0.112 C 
ATOM     14  C   UNL     1      -0.703   2.441  24.054  0.00  0.00    +0.115 C 
BRANCH  12  15
ATOM     15  C   UNL     1       0.925   1.050  23.630  0.00  0.00    +0.048 A 
ATOM     16  C   UNL     1       1.713   1.285  23.560  0.00  0.00    +0.017 A 
ATOM     17  C   UNL     1       2.248   0.815  23.144  0.00  0.00    +0.031 A 
ATOM     18  C   UNL     1       1.996   0.110  22.798  0.00  0.00    +0.140 A 
ATOM     19  F   UNL     1       2.531  -0.361  22.383  0.00  0.00    -0.204 F 
ATOM     20  C   UNL     1       1.208  -0.126  22.869  0.00  0.00    +0.031 A 
ATOM     21  C   UNL     1       0.673   0.345  23.285  0.00  0.00    +0.017 A 
ENDBRANCH  12  15
ENDBRANCH   6   7
ENDBRANCH   5   6
BRANCH  23  24
ATOM     24  C   UNL     1      -4.267   1.901  25.061  0.00  0.00    +0.148 C 
BRANCH  24  25
ATOM     25  N   UNL     1      -4.034   1.135  24.865  0.00  0.00    -0.199 NA
ATOM     26  C   UNL     1      -4.549   0.502  24.988  0.00  0.00    +0.265 C 
ATOM     27  O   UNL     1      -5.298   0.636  25.308  0.00  0.00    -0.268 OA
BRANCH  26  28
ATOM     28  C   UNL     1      -4.316  -0.264  24.792  0.00  0.00    +0.058 A 
ATOM     29  C   UNL     1      -3.981  -0.753  25.365  0.00  0.00    +0.045 A 
ATOM     30  C   UNL     1      -3.748  -1.520  25.170  0.00  0.00    +0.177 A 
ATOM     31  C   UNL     1      -3.851  -1.798  24.400  0.00  0.00    +0.176 A 
ATOM     32  O   UNL     1      -3.571  -2.573  24.369  0.00  0.00    -0.435 OA
ATOM     33  C   UNL     1      -3.294  -2.774  25.120  0.00  0.00    +0.429 C 
ATOM     34  O   UNL     1      -3.404  -2.123  25.614  0.00  0.00    -0.435 OA
ATOM     35  C   UNL     1      -4.187  -1.309  23.826  0.00  0.00    +0.040 A 
ATOM     36  C   UNL     1      -4.420  -0.542  24.023  0.00  0.00    +0.008 A 
ENDBRANCH  26  28
ENDBRANCH  24  25
ENDBRANCH  23  24
TORSDOF 6
ENDMDL
MODEL 6
REMARK VINA RESULT:     -11.0      2.074      4.817
REMARK  Name = 
REMARK  6 active torsions:
REMARK  status: ('A' for Active; 'I' for Inactive)
REMARK    1  A    between atoms: C_5  and  C_6
REMARK    2  A    between atoms: C_6  and  C_7
REMARK    3  A    between atoms: N_12  and  C_15
REMARK    4  A    between atoms: C_23  and  C_24
REMARK    5  A    between atoms: C_24  and  N_25
REMARK    6  A    between atoms: C_26  and  C_28
REMARK                            x       y       z     vdW  Elec       q    Type
REMARK                         _______ _______ _______ _____ _____    ______ ____
ROOT
ATOM      1  O   UNL     1       1.202  -0.134  23.515  0.00  0.00    -0.218 OA
ATOM      2  C   UNL     1       0.601   0.332  23.834  0.00  0.00    +0.213 C 
ATOM      3  C   UNL     1       0.555   1.155  23.796  0.00  0.00    +0.212 C 
ATOM      4  O   UNL     1       1.100   1.656  23.433  0.00  0.00    -0.218 OA
ATOM      5  C   UNL     1      -0.134   1.390  24.187  0.00  0.00    +0.157 C 
ATOM     22  O   UNL     1      -0.512   0.712  24.465  0.00  0.00    -0.351 OA
ATOM     23  C   UNL     1      -0.058   0.058  24.248  0.00  0.00    +0.170 C 
ENDROOT
BRANCH   5   6
ATOM      6  C   UNL     1      -0.397   2.166  24.281  0.00  0.00    +0.117 C 
BRANCH   6   7
ATOM      7  C   UNL     1      -0.680   2.419  25.013  0.00  0.00    +0.228 C 
ATOM      8  O   UNL     1      -0.176   2.439  25.666  0.00  0.00    -0.275 OA
ATOM      9  N   UNL     1      -1.467   2.654  25.093  0.00  0.00    -0.276 N 
ATOM     10  C   UNL     1      -1.750   2.907  25.825  0.00  0.00    +0.115 C 
ATOM     11  C   UNL     1      -2.537   3.141  25.905  0.00  0.00    +0.112 C 
ATOM     12  N   UNL     1      -3.042   3.122  25.252  0.00  0.00    -0.304 N 
ATOM     13  C   UNL     1      -2.759   2.868  24.520  0.00  0.00    +0.112 C 
ATOM     14  C   UNL     1      -1.971   2.634  24.440  0.00  0.00    +0.115 C 
BRANCH  12  15
ATOM     15  C   UNL     1      -3.828   3.356  25.332  0.00  0.00    +0.048 A 
ATOM     16  C   UNL     1      -4.020   4.159  25.352  0.00  0.00    +0.017 A 
ATOM     17  C   UNL     1      -4.807   4.392  25.431  0.00  0.00    +0.031 A 
ATOM     18  C   UNL     1      -5.402   3.824  25.492  0.00  0.00    +0.140 A 
ATOM     19  F   UNL     1      -6.189   4.058  25.572  0.00  0.00    -0.204 F 
ATOM     20  C   UNL     1      -5.210   3.022  25.472  0.00  0.00    +0.031 A 
ATOM     21  C   UNL     1      -4.423   2.788  25.392  0.00  0.00    +0.017 A 
ENDBRANCH  12  15
ENDBRANCH   6   7
ENDBRANCH   5   6
BRANCH  23  24
ATOM     24  C   UNL     1      -0.232  -0.731  24.414  0.00  0.00    +0.148 C 
BRANCH  24  25
ATOM     25  N   UNL     1      -0.989  -1.025  24.275  0.00  0.00    -0.199 NA
ATOM     26  C   UNL     1      -1.258  -1.687  24.688  0.00  0.00    +0.265 C 
ATOM     27  O   UNL     1      -0.768  -2.055  25.241  0.00  0.00    -0.268 OA
BRANCH  26  28
ATOM     28  C   UNL     1      -2.015  -1.982  24.549  0.00  0.00    +0.058 A 
ATOM     29  C   UNL     1      -2.622  -1.470  24.326  0.00  0.00    +0.045 A 
ATOM     30  C   UNL     1      -3.380  -1.764  24.186  0.00  0.00    +0.177 A 
ATOM     31  C   UNL     1      -3.531  -2.571  24.270  0.00  0.00    +0.176 A 
ATOM     32  O   UNL     1      -4.327  -2.701  24.098  0.00  0.00    -0.435 OA
ATOM     33  C   UNL     1      -4.668  -1.975  23.907  0.00  0.00    +0.429 C 
ATOM     34  O   UNL     1      -4.083  -1.397  23.962  0.00  0.00    -0.435 OA
ATOM     35  C   UNL     1      -2.924  -3.084  24.494  0.00  0.00    +0.040 A 
ATOM     36  C   UNL     1      -2.166  -2.788  24.633  0.00  0.00    +0.008 A 
ENDBRANCH  26  28
ENDBRANCH  24  25
ENDBRANCH  23  24
TORSDOF 6
ENDMDL
