MODEL 1
REMARK VINA RESULT:     -10.4      0.000      0.000
REMARK  Name = 
REMARK  6 active torsions:
REMARK  status: ('A' for Active; 'I' for Inactive)
REMARK    1  A    between atoms: N_2  and  C_3
REMARK    2  A    between atoms: C_3  and  C_4
REMARK    3  A    between atoms: C_4  and  C_5
REMARK    4  A    between atoms: C_11  and  C_13
REMARK    5  A    between atoms: C_13  and  C_14
REMARK    6  A    between atoms: C_32  and  N_35
REMARK                            x       y       z     vdW  Elec       q    Type
REMARK                         _______ _______ _______ _____ _____    ______ ____
ROOT
ATOM     14  C   UNL     1       0.304   0.026  23.294  0.00  0.00    +0.016 C 
ATOM     15  C   UNL     1       0.393  -0.705  23.664  0.00  0.00    +0.022 C 
ATOM     16  C   UNL     1      -0.205  -0.995  24.154  0.00  0.00    +0.093 C 
ATOM     17  N   UNL     1      -0.882  -0.622  24.307  0.00  0.00    -0.278 N 
ATOM     18  C   UNL     1      -0.980   0.179  23.902  0.00  0.00    +0.098 C 
ATOM     19  C   UNL     1      -0.575   0.688  23.393  0.00  0.00    +0.042 C 
ATOM     20  C   UNL     1      -1.048   1.353  23.269  0.00  0.00    -0.026 C 
ATOM     21  C   UNL     1      -1.744   1.254  23.702  0.00  0.00    +0.016 C 
ATOM     22  C   UNL     1      -2.520   1.681  23.878  0.00  0.00    +0.231 C 
ATOM     23  O   UNL     1      -2.913   1.566  24.157  0.00  0.00    -0.471 OA
ATOM     24  C   UNL     1      -2.977   0.628  24.727  0.00  0.00    +0.136 A 
ATOM     25  C   UNL     1      -3.556   0.308  25.223  0.00  0.00    +0.030 A 
ATOM     26  C   UNL     1      -3.436  -0.426  25.578  0.00  0.00    +0.119 C 
ATOM     27  N   UNL     1      -2.737  -0.843  25.437  0.00  0.00    -0.204 NA
ATOM     28  C   UNL     1      -2.159  -0.524  24.942  0.00  0.00    +0.174 C 
ATOM     29  C   UNL     1      -1.461  -0.940  24.802  0.00  0.00    +0.243 C 
ATOM     30  O   UNL     1      -1.341  -1.675  25.157  0.00  0.00    -0.273 OA
ATOM     31  C   UNL     1      -4.254   0.725  25.363  0.00  0.00    +0.015 A 
ATOM     32  C   UNL     1      -4.374   1.460  25.008  0.00  0.00    +0.048 A 
ATOM     33  C   UNL     1      -3.796   1.779  24.513  0.00  0.00    +0.018 A 
ATOM     34  C   UNL     1      -3.098   1.363  24.373  0.00  0.00    +0.038 A 
ENDROOT
BRANCH  32  35
ATOM     35  N   UNL     1      -5.072   1.876  25.148  0.00  0.00    -0.303 N 
ATOM     36  C   UNL     1      -5.056   2.572  25.591  0.00  0.00    +0.123 C 
ATOM     37  C   UNL     1      -5.754   2.989  25.731  0.00  0.00    +0.164 C 
ATOM     38  O   UNL     1      -6.469   2.709  25.428  0.00  0.00    -0.350 OA
ATOM     39  C   UNL     1      -6.485   2.013  24.986  0.00  0.00    +0.164 C 
ATOM     40  C   UNL     1      -5.787   1.597  24.846  0.00  0.00    +0.123 C 
ENDBRANCH  32  35
BRANCH  14  13
ATOM     13  C   UNL     1       0.922   0.286  22.812  0.00  0.00    +0.086 C 
BRANCH  13  11
ATOM      1  C   UNL     1       2.310  -0.021  21.975  0.00  0.00    +0.115 C 
ATOM      2  N   UNL     1       2.348   0.319  22.726  0.00  0.00    -0.277 N 
ATOM     11  C   UNL     1       1.655   0.472  23.144  0.00  0.00    +0.226 C 
ATOM     12  O   UNL     1       1.692   0.812  23.895  0.00  0.00    -0.275 OA
BRANCH   2   3
ATOM      3  C   UNL     1       3.081   0.505  23.057  0.00  0.00    +0.100 C 
BRANCH   3   4
ATOM      4  C   UNL     1       3.770   0.183  22.741  0.00  0.00    +0.067 C 
BRANCH   4   5
ATOM      5  C   UNL     1       4.449   0.122  23.206  0.00  0.00    +0.061 A 
ATOM      6  N   UNL     1       4.898   0.795  23.371  0.00  0.00    -0.248 NA
ATOM      7  C   UNL     1       5.576   0.736  23.836  0.00  0.00    +0.098 A 
ATOM      8  C   UNL     1       5.807   0.002  24.136  0.00  0.00    +0.021 A 
ATOM      9  C   UNL     1       5.359  -0.670  23.972  0.00  0.00    +0.003 A 
ATOM     10  C   UNL     1       4.679  -0.610  23.506  0.00  0.00    +0.015 A 
ENDBRANCH   4   5
ENDBRANCH   3   4
ENDBRANCH   2   3
ENDBRANCH  13  11
ENDBRANCH  14  13
TORSDOF 6
ENDMDL
MODEL 2
REMARK VINA RESULT:      -8.9      1.367      2.114
REMARK  Name = 
REMARK  6 active torsions:
REMARK  status: ('A' for Active; 'I' for Inactive)
REMARK    1  A    between atoms: N_2  and  C_3
REMARK    2  A    between atoms: C_3  and  C_4
REMARK    3  A    between atoms: C_4  and  C_5
REMARK    4  A    between atoms: C_11  and  C_13
REMARK    5  A    between atoms: C_13  and  C_14
REMARK    6  A    between atoms: C_32  and  N_35
REMARK                            x       y       z     vdW  Elec       q    Type
REMARK                         _______ _______ _______ _____ _____    ______ ____
ROOT
ATOM     14  C   UNL     1       0.325   1.375  23.719  0.00  0.00    +0.016 C 
ATOM     15  C   UNL     1       0.663   2.102  23.911  0.00  0.00    +0.022 C 
ATOM     16  C   UNL     1       0.198   2.698  24.243  0.00  0.00    +0.093 C 
ATOM     17  N   UNL     1      -0.572   2.635  24.400  0.00  0.00    -0.278 N 
ATOM     18  C   UNL     1      -0.942   1.839  24.189  0.00  0.00    +0.098 C 
ATOM     19  C   UNL     1      -0.737   1.106  23.868  0.00  0.00    +0.042 C 
ATOM     20  C   UNL     1      -1.415   0.636  23.851  0.00  0.00    -0.026 C 
ATOM     21  C   UNL     1      -2.038   1.079  24.163  0.00  0.00    +0.016 C 
ATOM     22  C   UNL     1      -2.921   1.007  24.343  0.00  0.00    +0.231 C 
ATOM     23  O   UNL     1      -3.253   1.319  24.537  0.00  0.00    -0.471 OA
ATOM     24  C   UNL     1      -2.987   2.339  24.855  0.00  0.00    +0.136 A 
ATOM     25  C   UNL     1      -3.422   2.956  25.188  0.00  0.00    +0.030 A 
ATOM     26  C   UNL     1      -3.054   3.671  25.369  0.00  0.00    +0.119 C 
ATOM     27  N   UNL     1      -2.248   3.770  25.216  0.00  0.00    -0.204 NA
ATOM     28  C   UNL     1      -1.813   3.153  24.884  0.00  0.00    +0.174 C 
ATOM     29  C   UNL     1      -1.008   3.251  24.732  0.00  0.00    +0.243 C 
ATOM     30  O   UNL     1      -0.639   3.967  24.913  0.00  0.00    -0.273 OA
ATOM     31  C   UNL     1      -4.227   2.857  25.340  0.00  0.00    +0.015 A 
ATOM     32  C   UNL     1      -4.597   2.142  25.160  0.00  0.00    +0.048 A 
ATOM     33  C   UNL     1      -4.161   1.525  24.827  0.00  0.00    +0.018 A 
ATOM     34  C   UNL     1      -3.356   1.623  24.675  0.00  0.00    +0.038 A 
ENDROOT
BRANCH  32  35
ATOM     35  N   UNL     1      -5.401   2.043  25.311  0.00  0.00    -0.303 N 
ATOM     36  C   UNL     1      -5.933   1.963  24.686  0.00  0.00    +0.123 C 
ATOM     37  C   UNL     1      -6.738   1.864  24.837  0.00  0.00    +0.164 C 
ATOM     38  O   UNL     1      -7.011   1.846  25.615  0.00  0.00    -0.350 OA
ATOM     39  C   UNL     1      -6.480   1.926  26.241  0.00  0.00    +0.164 C 
ATOM     40  C   UNL     1      -5.675   2.025  26.089  0.00  0.00    +0.123 C 
ENDBRANCH  32  35
BRANCH  14  13
ATOM     13  C   UNL     1       0.818   0.801  23.389  0.00  0.00    +0.086 C 
BRANCH  13  11
ATOM      1  C   UNL     1       1.791  -0.177  22.484  0.00  0.00    +0.115 C 
ATOM      2  N   UNL     1       2.123   0.414  22.956  0.00  0.00    -0.277 N 
ATOM     11  C   UNL     1       1.638   0.903  23.408  0.00  0.00    +0.226 C 
ATOM     12  O   UNL     1       1.970   1.493  23.879  0.00  0.00    -0.275 OA
BRANCH   2   3
ATOM      3  C   UNL     1       2.943   0.514  22.974  0.00  0.00    +0.100 C 
BRANCH   3   4
ATOM      4  C   UNL     1       3.440  -0.128  22.835  0.00  0.00    +0.067 C 
BRANCH   4   5
ATOM      5  C   UNL     1       4.192  -0.150  23.175  0.00  0.00    +0.061 A 
ATOM      6  N   UNL     1       4.427  -0.807  23.615  0.00  0.00    -0.248 NA
ATOM      7  C   UNL     1       5.178  -0.830  23.955  0.00  0.00    +0.098 A 
ATOM      8  C   UNL     1       5.695  -0.194  23.854  0.00  0.00    +0.021 A 
ATOM      9  C   UNL     1       5.460   0.463  23.414  0.00  0.00    +0.003 A 
ATOM     10  C   UNL     1       4.708   0.485  23.074  0.00  0.00    +0.015 A 
ENDBRANCH   4   5
ENDBRANCH   3   4
ENDBRANCH   2   3
ENDBRANCH  13  11
ENDBRANCH  14  13
TORSDOF 6
ENDMDL
MODEL 3
REMARK VINA RESULT:      -7.3     14.535     18.057
REMARK  Name = 
REMARK  6 active torsions:
REMARK  status: ('A' for Active; 'I' for Inactive)
REMARK    1  A    between atoms: N_2  and  C_3
REMARK    2  A    between atoms: C_3  and  C_4
REMARK    3  A    between atoms: C_4  and  C_5
REMARK    4  A    between atoms: C_11  and  C_13
REMARK    5  A    between atoms: C_13  and  C_14
REMARK    6  A    between atoms: C_32  and  N_35
REMARK                            x       y       z     vdW  Elec       q    Type
REMARK                         _______ _______ _______ _____ _____    ______ ____
ROOT
ATOM     14  C   UNL     1      12.085  -7.365  31.668  0.00  0.00    +0.016 C 
ATOM     15  C   UNL     1      12.327  -7.831  31.032  0.00  0.00    +0.022 C 
ATOM     16  C   UNL     1      12.973  -7.599  30.573  0.00  0.00    +0.093 C 
ATOM     17  N   UNL     1      13.398  -6.946  30.692  0.00  0.00    -0.278 N 
ATOM     18  C   UNL     1      13.134  -6.436  31.388  0.00  0.00    +0.098 C 
ATOM     19  C   UNL     1      12.561  -6.419  31.982  0.00  0.00    +0.042 C 
ATOM     20  C   UNL     1      12.682  -5.738  32.433  0.00  0.00    -0.026 C 
ATOM     21  C   UNL     1      13.329  -5.336  32.116  0.00  0.00    +0.016 C 
ATOM     22  C   UNL     1      13.817  -4.588  32.251  0.00  0.00    +0.231 C 
ATOM     23  O   UNL     1      14.209  -4.393  32.018  0.00  0.00    -0.471 OA
ATOM     24  C   UNL     1      14.674  -4.873  31.144  0.00  0.00    +0.136 A 
ATOM     25  C   UNL     1      15.315  -4.671  30.665  0.00  0.00    +0.030 A 
ATOM     26  C   UNL     1      15.531  -5.159  30.036  0.00  0.00    +0.119 C 
ATOM     27  N   UNL     1      15.106  -5.850  29.885  0.00  0.00    -0.204 NA
ATOM     28  C   UNL     1      14.464  -6.053  30.364  0.00  0.00    +0.174 C 
ATOM     29  C   UNL     1      14.039  -6.743  30.214  0.00  0.00    +0.243 C 
ATOM     30  O   UNL     1      14.256  -7.231  29.585  0.00  0.00    -0.273 OA
ATOM     31  C   UNL     1      15.740  -3.980  30.816  0.00  0.00    +0.015 A 
ATOM     32  C   UNL     1      15.524  -3.492  31.445  0.00  0.00    +0.048 A 
ATOM     33  C   UNL     1      14.883  -3.694  31.924  0.00  0.00    +0.018 A 
ATOM     34  C   UNL     1      14.458  -4.385  31.773  0.00  0.00    +0.038 A 
ENDROOT
BRANCH  32  35
ATOM     35  N   UNL     1      15.949  -2.801  31.596  0.00  0.00    -0.303 N 
ATOM     36  C   UNL     1      16.082  -2.257  30.990  0.00  0.00    +0.123 C 
ATOM     37  C   UNL     1      16.507  -1.567  31.140  0.00  0.00    +0.164 C 
ATOM     38  O   UNL     1      16.800  -1.419  31.898  0.00  0.00    -0.350 OA
ATOM     39  C   UNL     1      16.667  -1.963  32.503  0.00  0.00    +0.164 C 
ATOM     40  C   UNL     1      16.242  -2.654  32.353  0.00  0.00    +0.123 C 
ENDBRANCH  32  35
BRANCH  14  13
ATOM     13  C   UNL     1      11.436  -7.627  32.105  0.00  0.00    +0.086 C 
BRANCH  13  11
ATOM      1  C   UNL     1      10.228  -8.449  32.872  0.00  0.00    +0.115 C 
ATOM      2  N   UNL     1      10.099  -8.132  32.121  0.00  0.00    -0.277 N 
ATOM     11  C   UNL     1      10.702  -7.721  31.738  0.00  0.00    +0.226 C 
ATOM     12  O   UNL     1      10.573  -7.404  30.987  0.00  0.00    -0.275 OA
BRANCH   2   3
ATOM      3  C   UNL     1       9.366  -8.227  31.755  0.00  0.00    +0.100 C 
BRANCH   3   4
ATOM      4  C   UNL     1       8.806  -8.739  32.078  0.00  0.00    +0.067 C 
BRANCH   4   5
ATOM      5  C   UNL     1       8.053  -8.792  31.744  0.00  0.00    +0.061 A 
ATOM      6  N   UNL     1       7.512  -8.178  31.849  0.00  0.00    -0.248 NA
ATOM      7  C   UNL     1       6.759  -8.229  31.516  0.00  0.00    +0.098 A 
ATOM      8  C   UNL     1       6.548  -8.896  31.077  0.00  0.00    +0.021 A 
ATOM      9  C   UNL     1       7.088  -9.509  30.972  0.00  0.00    +0.003 A 
ATOM     10  C   UNL     1       7.842  -9.457  31.306  0.00  0.00    +0.015 A 
ENDBRANCH   4   5
ENDBRANCH   3   4
ENDBRANCH   2   3
ENDBRANCH  13  11
ENDBRANCH  14  13
TORSDOF 6
ENDMDL
MODEL 4
REMARK VINA RESULT:      -7.0     17.539     19.220
REMARK  Name = 
REMARK  6 active torsions:
REMARK  status: ('A' for Active; 'I' for Inactive)
REMARK    1  A    between atoms: N_2  and  C_3
REMARK    2  A    between atoms: C_3  and  C_4
REMARK    3  A    between atoms: C_4  and  C_5
REMARK    4  A    between atoms: C_11  and  C_13
REMARK    5  A    between atoms: C_13  and  C_14
REMARK    6  A    between atoms: C_32  and  N_35
REMARK                            x       y       z     vdW  Elec       q    Type
REMARK                         _______ _______ _______ _____ _____    ______ ____
ROOT
ATOM     14  C   UNL     1      17.114  -6.038  25.730  0.00  0.00    +0.016 C 
ATOM     15  C   UNL     1      17.284  -6.503  25.071  0.00  0.00    +0.022 C 
ATOM     16  C   UNL     1      17.102  -7.308  25.076  0.00  0.00    +0.093 C 
ATOM     17  N   UNL     1      16.766  -7.691  25.679  0.00  0.00    -0.278 N 
ATOM     18  C   UNL     1      16.580  -7.182  26.400  0.00  0.00    +0.098 C 
ATOM     19  C   UNL     1      16.645  -6.401  26.662  0.00  0.00    +0.042 C 
ATOM     20  C   UNL     1      16.336  -6.363  27.427  0.00  0.00    -0.026 C 
ATOM     21  C   UNL     1      16.080  -7.119  27.636  0.00  0.00    +0.016 C 
ATOM     22  C   UNL     1      15.696  -7.558  28.325  0.00  0.00    +0.231 C 
ATOM     23  O   UNL     1      15.562  -8.030  28.393  0.00  0.00    -0.471 OA
ATOM     24  C   UNL     1      15.710  -8.801  27.622  0.00  0.00    +0.136 A 
ATOM     25  C   UNL     1      15.541  -9.609  27.594  0.00  0.00    +0.030 A 
ATOM     26  C   UNL     1      15.724 -10.046  26.919  0.00  0.00    +0.119 C 
ATOM     27  N   UNL     1      16.077  -9.676  26.271  0.00  0.00    -0.204 NA
ATOM     28  C   UNL     1      16.245  -8.868  26.299  0.00  0.00    +0.174 C 
ATOM     29  C   UNL     1      16.597  -8.498  25.651  0.00  0.00    +0.243 C 
ATOM     30  O   UNL     1      16.780  -8.935  24.976  0.00  0.00    -0.273 OA
ATOM     31  C   UNL     1      15.190  -9.979  28.242  0.00  0.00    +0.015 A 
ATOM     32  C   UNL     1      15.006  -9.543  28.918  0.00  0.00    +0.048 A 
ATOM     33  C   UNL     1      15.175  -8.735  28.946  0.00  0.00    +0.018 A 
ATOM     34  C   UNL     1      15.527  -8.365  28.298  0.00  0.00    +0.038 A 
ENDROOT
BRANCH  32  35
ATOM     35  N   UNL     1      14.654  -9.913  29.565  0.00  0.00    -0.303 N 
ATOM     36  C   UNL     1      15.093 -10.052  30.250  0.00  0.00    +0.123 C 
ATOM     37  C   UNL     1      14.741 -10.422  30.897  0.00  0.00    +0.164 C 
ATOM     38  O   UNL     1      13.950 -10.653  30.861  0.00  0.00    -0.350 OA
ATOM     39  C   UNL     1      13.511 -10.513  30.177  0.00  0.00    +0.164 C 
ATOM     40  C   UNL     1      13.863 -10.143  29.529  0.00  0.00    +0.123 C 
ENDBRANCH  32  35
BRANCH  14  13
ATOM     13  C   UNL     1      17.309  -5.237  25.691  0.00  0.00    +0.086 C 
BRANCH  13  11
ATOM      1  C   UNL     1      17.402  -3.590  25.728  0.00  0.00    +0.115 C 
ATOM      2  N   UNL     1      17.159  -3.975  25.039  0.00  0.00    -0.277 N 
ATOM     11  C   UNL     1      17.112  -4.797  25.020  0.00  0.00    +0.226 C 
ATOM     12  O   UNL     1      16.869  -5.182  24.331  0.00  0.00    -0.275 OA
BRANCH   2   3
ATOM      3  C   UNL     1      16.962  -3.534  24.369  0.00  0.00    +0.100 C 
BRANCH   3   4
ATOM      4  C   UNL     1      16.898  -2.714  24.419  0.00  0.00    +0.067 C 
BRANCH   4   5
ATOM      5  C   UNL     1      16.777  -2.267  23.735  0.00  0.00    +0.061 A 
ATOM      6  N   UNL     1      16.027  -2.232  23.394  0.00  0.00    -0.248 NA
ATOM      7  C   UNL     1      15.905  -1.785  22.711  0.00  0.00    +0.098 A 
ATOM      8  C   UNL     1      16.534  -1.373  22.370  0.00  0.00    +0.021 A 
ATOM      9  C   UNL     1      17.284  -1.408  22.711  0.00  0.00    +0.003 A 
ATOM     10  C   UNL     1      17.405  -1.856  23.395  0.00  0.00    +0.015 A 
ENDBRANCH   4   5
ENDBRANCH   3   4
ENDBRANCH   2   3
ENDBRANCH  13  11
ENDBRANCH  14  13
TORSDOF 6
ENDMDL
MODEL 5
REMARK VINA RESULT:      -6.5     17.539     18.700
REMARK  Name = 
REMARK  6 active torsions:
REMARK  status: ('A' for Active; 'I' for Inactive)
REMARK    1  A    between atoms: N_2  and  C_3
REMARK    2  A    between atoms: C_3  and  C_4
REMARK    3  A    between atoms: C_4  and  C_5
REMARK    4  A    between atoms: C_11  and  C_13
REMARK    5  A    between atoms: C_13  and  C_14
REMARK    6  A    between atoms: C_32  and  N_35
REMARK                            x       y       z     vdW  Elec       q    Type
REMARK                         _______ _______ _______ _____ _____    ______ ____
ROOT
ATOM     14  C   UNL     1      16.610  -6.628  27.117  0.00  0.00    +0.016 C 
ATOM     15  C   UNL     1      16.859  -7.276  26.673  0.00  0.00    +0.022 C 
ATOM     16  C   UNL     1      16.610  -8.036  26.878  0.00  0.00    +0.093 C 
ATOM     17  N   UNL     1      16.136  -8.207  27.484  0.00  0.00    -0.278 N 
ATOM     18  C   UNL     1      15.864  -7.497  27.971  0.00  0.00    +0.098 C 
ATOM     19  C   UNL     1      15.947  -6.676  27.999  0.00  0.00    +0.042 C 
ATOM     20  C   UNL     1      15.505  -6.398  28.639  0.00  0.00    -0.026 C 
ATOM     21  C   UNL     1      15.150  -7.047  29.004  0.00  0.00    +0.016 C 
ATOM     22  C   UNL     1      14.608  -7.244  29.699  0.00  0.00    +0.231 C 
ATOM     23  O   UNL     1      14.423  -7.670  29.874  0.00  0.00    -0.471 OA
ATOM     24  C   UNL     1      14.645  -8.643  29.411  0.00  0.00    +0.136 A 
ATOM     25  C   UNL     1      14.415  -9.416  29.588  0.00  0.00    +0.030 A 
ATOM     26  C   UNL     1      14.682 -10.043  29.123  0.00  0.00    +0.119 C 
ATOM     27  N   UNL     1      15.179  -9.898  28.480  0.00  0.00    -0.204 NA
ATOM     28  C   UNL     1      15.409  -9.124  28.303  0.00  0.00    +0.174 C 
ATOM     29  C   UNL     1      15.906  -8.979  27.662  0.00  0.00    +0.243 C 
ATOM     30  O   UNL     1      16.173  -9.606  27.197  0.00  0.00    -0.273 OA
ATOM     31  C   UNL     1      13.918  -9.561  30.230  0.00  0.00    +0.015 A 
ATOM     32  C   UNL     1      13.650  -8.935  30.695  0.00  0.00    +0.048 A 
ATOM     33  C   UNL     1      13.880  -8.162  30.518  0.00  0.00    +0.018 A 
ATOM     34  C   UNL     1      14.377  -8.017  29.876  0.00  0.00    +0.038 A 
ENDROOT
BRANCH  32  35
ATOM     35  N   UNL     1      13.154  -9.080  31.337  0.00  0.00    -0.303 N 
ATOM     36  C   UNL     1      12.364  -9.283  31.211  0.00  0.00    +0.123 C 
ATOM     37  C   UNL     1      11.867  -9.428  31.852  0.00  0.00    +0.164 C 
ATOM     38  O   UNL     1      12.159  -9.370  32.622  0.00  0.00    -0.350 OA
ATOM     39  C   UNL     1      12.949  -9.168  32.748  0.00  0.00    +0.164 C 
ATOM     40  C   UNL     1      13.446  -9.022  32.106  0.00  0.00    +0.123 C 
ENDBRANCH  32  35
BRANCH  14  13
ATOM     13  C   UNL     1      16.878  -5.882  26.885  0.00  0.00    +0.086 C 
BRANCH  13  11
ATOM      1  C   UNL     1      17.405  -4.388  26.423  0.00  0.00    +0.115 C 
ATOM      2  N   UNL     1      16.923  -4.830  25.919  0.00  0.00    -0.277 N 
ATOM     11  C   UNL     1      16.660  -5.576  26.149  0.00  0.00    +0.226 C 
ATOM     12  O   UNL     1      16.178  -6.018  25.646  0.00  0.00    -0.275 OA
BRANCH   2   3
ATOM      3  C   UNL     1      16.706  -4.524  25.184  0.00  0.00    +0.100 C 
BRANCH   3   4
ATOM      4  C   UNL     1      16.898  -3.747  24.988  0.00  0.00    +0.067 C 
BRANCH   4   5
ATOM      5  C   UNL     1      16.698  -3.447  24.245  0.00  0.00    +0.061 A 
ATOM      6  N   UNL     1      17.077  -3.732  23.570  0.00  0.00    -0.248 NA
ATOM      7  C   UNL     1      16.878  -3.433  22.827  0.00  0.00    +0.098 A 
ATOM      8  C   UNL     1      16.299  -2.848  22.760  0.00  0.00    +0.021 A 
ATOM      9  C   UNL     1      15.921  -2.563  23.435  0.00  0.00    +0.003 A 
ATOM     10  C   UNL     1      16.121  -2.862  24.178  0.00  0.00    +0.015 A 
ENDBRANCH   4   5
ENDBRANCH   3   4
ENDBRANCH   2   3
ENDBRANCH  13  11
ENDBRANCH  14  13
TORSDOF 6
ENDMDL
