MODEL 1
REMARK VINA RESULT:     -12.2      0.000      0.000
REMARK  Name = 
REMARK  4 active torsions:
REMARK  status: ('A' for Active; 'I' for Inactive)
REMARK    1  A    between atoms: C_1  and  N_2
REMARK    2  A    between atoms: C_1  and  C_22
REMARK    3  A    between atoms: C_7  and  C_8
REMARK    4  A    between atoms: C_10  and  C_13
REMARK                            x       y       z     vdW  Elec       q    Type
REMARK                         _______ _______ _______ _____ _____    ______ ____
ROOT
ATOM      2  N   UNL     1      -3.363   2.207  24.839  0.00  0.00    -0.257 NA
ATOM      3  C   UNL     1      -3.514   2.951  25.160  0.00  0.00    +0.121 C 
ATOM      4  C   UNL     1      -4.289   3.184  25.319  0.00  0.00    +0.090 A 
ATOM      5  C   UNL     1      -4.915   2.671  25.155  0.00  0.00    +0.077 A 
ATOM      6  C   UNL     1      -4.764   1.926  24.833  0.00  0.00    +0.073 C 
ATOM      7  C   UNL     1      -3.988   1.695  24.675  0.00  0.00    +0.144 C 
ATOM     19  N   UNL     1      -5.616   3.048  25.368  0.00  0.00    -0.227 NA
ATOM     20  C   UNL     1      -5.425   3.794  25.663  0.00  0.00    +0.198 A 
ATOM     21  N   UNL     1      -4.605   3.877  25.633  0.00  0.00    -0.226 NA
ENDROOT
BRANCH   7   8
ATOM      8  C   UNL     1      -3.839   0.950  24.353  0.00  0.00    +0.251 A 
ATOM      9  N   UNL     1      -3.895   0.229  24.749  0.00  0.00    -0.190 NA
ATOM     10  C   UNL     1      -3.697  -0.371  24.218  0.00  0.00    +0.203 A 
ATOM     11  N   UNL     1      -3.519  -0.021  23.494  0.00  0.00    -0.056 NA
ATOM     12  O   UNL     1      -3.606   0.796  23.576  0.00  0.00    -0.336 OA
BRANCH  10  13
ATOM     13  C   UNL     1      -3.681  -1.179  24.384  0.00  0.00    +0.039 A 
ATOM     14  C   UNL     1      -3.287  -1.455  25.054  0.00  0.00    +0.003 A 
ATOM     15  C   UNL     1      -3.272  -2.264  25.219  0.00  0.00    +0.000 A 
ATOM     16  C   UNL     1      -3.650  -2.795  24.715  0.00  0.00    +0.000 A 
ATOM     17  C   UNL     1      -4.045  -2.519  24.045  0.00  0.00    +0.000 A 
ATOM     18  C   UNL     1      -4.061  -1.711  23.879  0.00  0.00    +0.003 A 
ENDBRANCH  10  13
ENDBRANCH   7   8
BRANCH   2   1
ATOM      1  C   UNL     1      -2.588   1.975  24.680  0.00  0.00    +0.106 C 
BRANCH   1  22
ATOM     22  C   UNL     1      -1.958   2.448  24.926  0.00  0.00    +0.023 A 
ATOM     23  C   UNL     1      -1.604   2.436  25.671  0.00  0.00    +0.004 A 
ATOM     24  C   UNL     1      -0.998   2.996  25.675  0.00  0.00    +0.007 A 
ATOM     25  C   UNL     1      -0.978   3.354  24.932  0.00  0.00    +0.035 A 
ATOM     26  S   UNL     1      -1.571   3.015  24.469  0.00  0.00    -0.089 S 
ENDBRANCH   1  22
ENDBRANCH   2   1
TORSDOF 4
ENDMDL
MODEL 2
REMARK VINA RESULT:     -11.6      1.557      2.895
REMARK  Name = 
REMARK  4 active torsions:
REMARK  status: ('A' for Active; 'I' for Inactive)
REMARK    1  A    between atoms: C_1  and  N_2
REMARK    2  A    between atoms: C_1  and  C_22
REMARK    3  A    between atoms: C_7  and  C_8
REMARK    4  A    between atoms: C_10  and  C_13
REMARK                            x       y       z     vdW  Elec       q    Type
REMARK                         _______ _______ _______ _____ _____    ______ ____
ROOT
ATOM      2  N   UNL     1      -2.202   1.676  24.729  0.00  0.00    -0.257 NA
ATOM      3  C   UNL     1      -1.726   2.325  24.551  0.00  0.00    +0.121 C 
ATOM      4  C   UNL     1      -0.908   2.234  24.492  0.00  0.00    +0.090 A 
ATOM      5  C   UNL     1      -0.566   1.493  24.610  0.00  0.00    +0.077 A 
ATOM      6  C   UNL     1      -1.042   0.842  24.788  0.00  0.00    +0.073 C 
ATOM      7  C   UNL     1      -1.860   0.934  24.847  0.00  0.00    +0.144 C 
ATOM     19  N   UNL     1       0.249   1.570  24.517  0.00  0.00    -0.227 NA
ATOM     20  C   UNL     1       0.412   2.359  24.341  0.00  0.00    +0.198 A 
ATOM     21  N   UNL     1      -0.303   2.769  24.326  0.00  0.00    -0.226 NA
ENDROOT
BRANCH   7   8
ATOM      8  C   UNL     1      -2.335   0.284  25.024  0.00  0.00    +0.251 A 
ATOM      9  N   UNL     1      -2.580  -0.298  24.494  0.00  0.00    -0.190 NA
ATOM     10  C   UNL     1      -3.046  -0.841  24.906  0.00  0.00    +0.203 A 
ATOM     11  N   UNL     1      -3.088  -0.594  25.692  0.00  0.00    -0.056 NA
ATOM     12  O   UNL     1      -2.649   0.101  25.766  0.00  0.00    -0.336 OA
BRANCH  10  13
ATOM     13  C   UNL     1      -3.405  -1.511  24.588  0.00  0.00    +0.039 A 
ATOM     14  C   UNL     1      -4.049  -1.432  24.078  0.00  0.00    +0.003 A 
ATOM     15  C   UNL     1      -4.408  -2.104  23.759  0.00  0.00    +0.000 A 
ATOM     16  C   UNL     1      -4.123  -2.854  23.951  0.00  0.00    +0.000 A 
ATOM     17  C   UNL     1      -3.479  -2.933  24.461  0.00  0.00    +0.000 A 
ATOM     18  C   UNL     1      -3.120  -2.262  24.780  0.00  0.00    +0.003 A 
ENDBRANCH  10  13
ENDBRANCH   7   8
BRANCH   2   1
ATOM      1  C   UNL     1      -3.019   1.767  24.788  0.00  0.00    +0.106 C 
BRANCH   1  22
ATOM     22  C   UNL     1      -3.372   2.476  24.559  0.00  0.00    +0.023 A 
ATOM     23  C   UNL     1      -3.609   2.676  23.794  0.00  0.00    +0.004 A 
ATOM     24  C   UNL     1      -3.934   3.434  23.818  0.00  0.00    +0.007 A 
ATOM     25  C   UNL     1      -3.898   3.703  24.597  0.00  0.00    +0.035 A 
ATOM     26  S   UNL     1      -3.551   3.111  25.055  0.00  0.00    -0.089 S 
ENDBRANCH   1  22
ENDBRANCH   2   1
TORSDOF 4
ENDMDL
MODEL 3
REMARK VINA RESULT:     -11.2      1.884      4.633
REMARK  Name = 
REMARK  4 active torsions:
REMARK  status: ('A' for Active; 'I' for Inactive)
REMARK    1  A    between atoms: C_1  and  N_2
REMARK    2  A    between atoms: C_1  and  C_22
REMARK    3  A    between atoms: C_7  and  C_8
REMARK    4  A    between atoms: C_10  and  C_13
REMARK                            x       y       z     vdW  Elec       q    Type
REMARK                         _______ _______ _______ _____ _____    ______ ____
ROOT
ATOM      2  N   UNL     1      -2.471  -0.243  24.454  0.00  0.00    -0.257 NA
ATOM      3  C   UNL     1      -1.828  -0.755  24.520  0.00  0.00    +0.121 C 
ATOM      4  C   UNL     1      -1.064  -0.481  24.371  0.00  0.00    +0.090 A 
ATOM      5  C   UNL     1      -0.944   0.307  24.157  0.00  0.00    +0.077 A 
ATOM      6  C   UNL     1      -1.587   0.820  24.091  0.00  0.00    +0.073 C 
ATOM      7  C   UNL     1      -2.350   0.545  24.240  0.00  0.00    +0.144 C 
ATOM     19  N   UNL     1      -0.135   0.420  24.046  0.00  0.00    -0.227 NA
ATOM     20  C   UNL     1       0.245  -0.298  24.191  0.00  0.00    +0.198 A 
ATOM     21  N   UNL     1      -0.330  -0.854  24.392  0.00  0.00    -0.226 NA
ENDROOT
BRANCH   7   8
ATOM      8  C   UNL     1      -2.993   1.058  24.174  0.00  0.00    +0.251 A 
ATOM      9  N   UNL     1      -3.333   1.491  24.787  0.00  0.00    -0.190 NA
ATOM     10  C   UNL     1      -3.959   1.929  24.474  0.00  0.00    +0.203 A 
ATOM     11  N   UNL     1      -4.005   1.767  23.668  0.00  0.00    -0.056 NA
ATOM     12  O   UNL     1      -3.407   1.228  23.481  0.00  0.00    -0.336 OA
BRANCH  10  13
ATOM     13  C   UNL     1      -4.451   2.440  24.896  0.00  0.00    +0.039 A 
ATOM     14  C   UNL     1      -5.152   2.158  25.227  0.00  0.00    +0.003 A 
ATOM     15  C   UNL     1      -5.644   2.669  25.649  0.00  0.00    +0.000 A 
ATOM     16  C   UNL     1      -5.435   3.462  25.738  0.00  0.00    +0.000 A 
ATOM     17  C   UNL     1      -4.735   3.744  25.406  0.00  0.00    +0.000 A 
ATOM     18  C   UNL     1      -4.242   3.233  24.985  0.00  0.00    +0.003 A 
ENDBRANCH  10  13
ENDBRANCH   7   8
BRANCH   2   1
ATOM      1  C   UNL     1      -3.234  -0.517  24.602  0.00  0.00    +0.106 C 
BRANCH   1  22
ATOM     22  C   UNL     1      -3.374  -1.327  24.676  0.00  0.00    +0.023 A 
ATOM     23  C   UNL     1      -3.569  -1.843  24.063  0.00  0.00    +0.004 A 
ATOM     24  C   UNL     1      -3.659  -2.598  24.384  0.00  0.00    +0.007 A 
ATOM     25  C   UNL     1      -3.520  -2.548  25.196  0.00  0.00    +0.035 A 
ATOM     26  S   UNL     1      -3.344  -1.762  25.376  0.00  0.00    -0.089 S 
ENDBRANCH   1  22
ENDBRANCH   2   1
TORSDOF 4
ENDMDL
MODEL 4
REMARK VINA RESULT:     -11.0      1.650      4.265
REMARK  Name = 
REMARK  4 active torsions:
REMARK  status: ('A' for Active; 'I' for Inactive)
REMARK    1  A    between atoms: C_1  and  N_2
REMARK    2  A    between atoms: C_1  and  C_22
REMARK    3  A    between atoms: C_7  and  C_8
REMARK    4  A    between atoms: C_10  and  C_13
REMARK                            x       y       z     vdW  Elec       q    Type
REMARK                         _______ _______ _______ _____ _____    ______ ____
ROOT
ATOM      2  N   UNL     1      -2.931  -0.642  24.501  0.00  0.00    -0.257 NA
ATOM      3  C   UNL     1      -2.807  -1.456  24.535  0.00  0.00    +0.121 C 
ATOM      4  C   UNL     1      -3.399  -1.976  24.290  0.00  0.00    +0.090 A 
ATOM      5  C   UNL     1      -4.116  -1.680  24.010  0.00  0.00    +0.077 A 
ATOM      6  C   UNL     1      -4.242  -0.865  23.975  0.00  0.00    +0.073 C 
ATOM      7  C   UNL     1      -3.649  -0.346  24.221  0.00  0.00    +0.144 C 
ATOM     19  N   UNL     1      -4.594  -2.320  23.807  0.00  0.00    -0.227 NA
ATOM     20  C   UNL     1      -4.173  -3.012  23.962  0.00  0.00    +0.198 A 
ATOM     21  N   UNL     1      -3.434  -2.799  24.260  0.00  0.00    -0.226 NA
ENDROOT
BRANCH   7   8
ATOM      8  C   UNL     1      -3.775   0.468  24.186  0.00  0.00    +0.251 A 
ATOM      9  N   UNL     1      -4.178   0.922  24.745  0.00  0.00    -0.190 NA
ATOM     10  C   UNL     1      -4.171   1.707  24.490  0.00  0.00    +0.203 A 
ATOM     11  N   UNL     1      -3.764   1.738  23.774  0.00  0.00    -0.056 NA
ATOM     12  O   UNL     1      -3.518   0.973  23.586  0.00  0.00    -0.336 OA
BRANCH  10  13
ATOM     13  C   UNL     1      -4.513   2.347  24.883  0.00  0.00    +0.039 A 
ATOM     14  C   UNL     1      -5.306   2.319  25.106  0.00  0.00    +0.003 A 
ATOM     15  C   UNL     1      -5.647   2.959  25.499  0.00  0.00    +0.000 A 
ATOM     16  C   UNL     1      -5.194   3.627  25.669  0.00  0.00    +0.000 A 
ATOM     17  C   UNL     1      -4.400   3.655  25.447  0.00  0.00    +0.000 A 
ATOM     18  C   UNL     1      -4.059   3.015  25.054  0.00  0.00    +0.003 A 
ENDBRANCH  10  13
ENDBRANCH   7   8
BRANCH   2   1
ATOM      1  C   UNL     1      -2.340  -0.123  24.746  0.00  0.00    +0.106 C 
BRANCH   1  22
ATOM     22  C   UNL     1      -1.619  -0.419  25.018  0.00  0.00    +0.023 A 
ATOM     23  C   UNL     1      -1.447  -0.638  25.795  0.00  0.00    +0.004 A 
ATOM     24  C   UNL     1      -0.665  -0.902  25.818  0.00  0.00    +0.007 A 
ATOM     25  C   UNL     1      -0.354  -0.846  25.056  0.00  0.00    +0.035 A 
ATOM     26  S   UNL     1      -0.944  -0.547  24.562  0.00  0.00    -0.089 S 
ENDBRANCH   1  22
ENDBRANCH   2   1
TORSDOF 4
ENDMDL
MODEL 5
REMARK VINA RESULT:     -10.8      1.627      3.832
REMARK  Name = 
REMARK  4 active torsions:
REMARK  status: ('A' for Active; 'I' for Inactive)
REMARK    1  A    between atoms: C_1  and  N_2
REMARK    2  A    between atoms: C_1  and  C_22
REMARK    3  A    between atoms: C_7  and  C_8
REMARK    4  A    between atoms: C_10  and  C_13
REMARK                            x       y       z     vdW  Elec       q    Type
REMARK                         _______ _______ _______ _____ _____    ______ ____
ROOT
ATOM      2  N   UNL     1      -1.605   0.689  24.776  0.00  0.00    -0.257 NA
ATOM      3  C   UNL     1      -0.968   0.194  24.942  0.00  0.00    +0.121 C 
ATOM      4  C   UNL     1      -1.071  -0.625  24.948  0.00  0.00    +0.090 A 
ATOM      5  C   UNL     1      -1.813  -0.948  24.787  0.00  0.00    +0.077 A 
ATOM      6  C   UNL     1      -2.451  -0.452  24.620  0.00  0.00    +0.073 C 
ATOM      7  C   UNL     1      -2.347   0.366  24.614  0.00  0.00    +0.144 C 
ATOM     19  N   UNL     1      -1.749  -1.768  24.832  0.00  0.00    -0.227 NA
ATOM     20  C   UNL     1      -0.968  -1.954  25.021  0.00  0.00    +0.198 A 
ATOM     21  N   UNL     1      -0.549  -1.247  25.092  0.00  0.00    -0.226 NA
ENDROOT
BRANCH   7   8
ATOM      8  C   UNL     1      -2.985   0.861  24.448  0.00  0.00    +0.251 A 
ATOM      9  N   UNL     1      -3.540   1.139  24.991  0.00  0.00    -0.190 NA
ATOM     10  C   UNL     1      -4.079   1.615  24.586  0.00  0.00    +0.203 A 
ATOM     11  N   UNL     1      -3.857   1.632  23.793  0.00  0.00    -0.056 NA
ATOM     12  O   UNL     1      -3.181   1.166  23.706  0.00  0.00    -0.336 OA
BRANCH  10  13
ATOM     13  C   UNL     1      -4.725   2.006  24.918  0.00  0.00    +0.039 A 
ATOM     14  C   UNL     1      -4.642   2.776  25.201  0.00  0.00    +0.003 A 
ATOM     15  C   UNL     1      -5.289   3.166  25.533  0.00  0.00    +0.000 A 
ATOM     16  C   UNL     1      -6.019   2.785  25.582  0.00  0.00    +0.000 A 
ATOM     17  C   UNL     1      -6.103   2.015  25.300  0.00  0.00    +0.000 A 
ATOM     18  C   UNL     1      -5.456   1.624  24.968  0.00  0.00    +0.003 A 
ENDBRANCH  10  13
ENDBRANCH   7   8
BRANCH   2   1
ATOM      1  C   UNL     1      -1.501   1.507  24.770  0.00  0.00    +0.106 C 
BRANCH   1  22
ATOM     22  C   UNL     1      -0.817   1.838  25.090  0.00  0.00    +0.023 A 
ATOM     23  C   UNL     1      -0.695   2.025  25.885  0.00  0.00    +0.004 A 
ATOM     24  C   UNL     1       0.063   2.343  25.959  0.00  0.00    +0.007 A 
ATOM     25  C   UNL     1       0.409   2.352  25.210  0.00  0.00    +0.035 A 
ATOM     26  S   UNL     1      -0.135   2.040  24.674  0.00  0.00    -0.089 S 
ENDBRANCH   1  22
ENDBRANCH   2   1
TORSDOF 4
ENDMDL
