MODEL 1
REMARK VINA RESULT:      -8.6      0.000      0.000
REMARK  Name = 
REMARK  7 active torsions:
REMARK  status: ('A' for Active; 'I' for Inactive)
REMARK    1  A    between atoms: S_2  and  N_5
REMARK    2  A    between atoms: C_10  and  C_11
REMARK    3  A    between atoms: N_13  and  C_14
REMARK    4  A    between atoms: C_21  and  C_23
REMARK    5  A    between atoms: C_23  and  S_24
REMARK    6  A    between atoms: S_24  and  C_25
REMARK    7  A    between atoms: C_25  and  C_26
REMARK                            x       y       z     vdW  Elec       q    Type
REMARK                         _______ _______ _______ _____ _____    ______ ____
ROOT
ATOM      5  N   UNL     1      -4.718   1.882  25.117  0.00  0.00    -0.148 NA
ATOM      6  C   UNL     1      -4.601   2.678  25.299  0.00  0.00    +0.117 C 
ATOM      7  C   UNL     1      -3.843   3.003  25.259  0.00  0.00    +0.113 C 
ATOM      8  N   UNL     1      -3.204   2.533  25.037  0.00  0.00    -0.275 N 
ATOM      9  C   UNL     1      -3.322   1.736  24.855  0.00  0.00    +0.120 C 
ATOM     10  C   UNL     1      -4.079   1.412  24.895  0.00  0.00    +0.176 C 
ATOM     21  C   UNL     1      -2.447   2.857  24.997  0.00  0.00    +0.237 C 
ATOM     22  O   UNL     1      -1.807   2.386  24.775  0.00  0.00    -0.274 OA
ENDROOT
BRANCH   5   2
ATOM      1  C   UNL     1      -6.233   1.232  25.197  0.00  0.00    +0.196 C 
ATOM      2  S   UNL     1      -5.476   1.557  25.157  0.00  0.00    +0.046 S 
ATOM      3  O   UNL     1      -5.602   1.755  24.367  0.00  0.00    -0.157 OA
ATOM      4  O   UNL     1      -5.349   1.359  25.948  0.00  0.00    -0.157 OA
ENDBRANCH   5   2
BRANCH  10  11
ATOM     11  C   UNL     1      -4.196   0.615  24.713  0.00  0.00    +0.260 C 
ATOM     12  O   UNL     1      -4.860   0.384  24.281  0.00  0.00    -0.272 OA
ATOM     13  N   UNL     1      -3.649   0.051  24.963  0.00  0.00    -0.197 NA
BRANCH  13  14
ATOM     14  C   UNL     1      -3.766  -0.746  24.781  0.00  0.00    +0.173 C 
ATOM     15  C   UNL     1      -4.036  -0.963  24.032  0.00  0.00    +0.033 C 
ATOM     16  C   UNL     1      -4.153  -1.758  23.850  0.00  0.00    +0.026 C 
ATOM     17  C   UNL     1      -4.000  -2.339  24.417  0.00  0.00    +0.115 C 
ATOM     18  N   UNL     1      -3.731  -2.122  25.166  0.00  0.00    -0.204 NA
ATOM     19  C   UNL     1      -3.614  -1.325  25.348  0.00  0.00    +0.261 C 
ATOM     20  O   UNL     1      -3.344  -1.109  26.096  0.00  0.00    -0.271 OA
ENDBRANCH  13  14
ENDBRANCH  10  11
BRANCH  21  23
ATOM     23  C   UNL     1      -2.330   3.653  25.179  0.00  0.00    +0.143 C 
BRANCH  23  24
ATOM     24  S   UNL     1      -1.609   4.015  25.004  0.00  0.00    -0.119 S 
BRANCH  24  25
ATOM     25  C   UNL     1      -1.394   4.713  25.388  0.00  0.00    +0.172 C 
BRANCH  25  26
ATOM     26  C   UNL     1      -1.023   5.318  24.966  0.00  0.00    +0.376 C 
ATOM     27  O   UNL     1      -1.390   6.053  24.892  0.00  0.00    -0.245 OA
ATOM     28  O   UNL     1      -0.286   5.187  24.618  0.00  0.00    -0.245 OA
ENDBRANCH  25  26
ENDBRANCH  24  25
ENDBRANCH  23  24
ENDBRANCH  21  23
TORSDOF 7
ENDMDL
MODEL 2
REMARK VINA RESULT:      -8.6      1.525      4.989
REMARK  Name = 
REMARK  7 active torsions:
REMARK  status: ('A' for Active; 'I' for Inactive)
REMARK    1  A    between atoms: S_2  and  N_5
REMARK    2  A    between atoms: C_10  and  C_11
REMARK    3  A    between atoms: N_13  and  C_14
REMARK    4  A    between atoms: C_21  and  C_23
REMARK    5  A    between atoms: C_23  and  S_24
REMARK    6  A    between atoms: S_24  and  C_25
REMARK    7  A    between atoms: C_25  and  C_26
REMARK                            x       y       z     vdW  Elec       q    Type
REMARK                         _______ _______ _______ _____ _____    ______ ____
ROOT
ATOM      5  N   UNL     1      -4.364   2.371  25.022  0.00  0.00    -0.148 NA
ATOM      6  C   UNL     1      -4.834   1.694  25.055  0.00  0.00    +0.117 C 
ATOM      7  C   UNL     1      -4.509   0.958  24.870  0.00  0.00    +0.113 C 
ATOM      8  N   UNL     1      -3.716   0.901  24.651  0.00  0.00    -0.275 N 
ATOM      9  C   UNL     1      -3.247   1.579  24.617  0.00  0.00    +0.120 C 
ATOM     10  C   UNL     1      -3.572   2.314  24.803  0.00  0.00    +0.176 C 
ATOM     21  C   UNL     1      -3.391   0.166  24.465  0.00  0.00    +0.237 C 
ATOM     22  O   UNL     1      -2.598   0.108  24.246  0.00  0.00    -0.274 OA
ENDROOT
BRANCH   5   2
ATOM      1  C   UNL     1      -5.014   3.843  25.394  0.00  0.00    +0.196 C 
ATOM      2  S   UNL     1      -4.689   3.108  25.208  0.00  0.00    +0.046 S 
ATOM      3  O   UNL     1      -4.854   3.236  24.410  0.00  0.00    -0.157 OA
ATOM      4  O   UNL     1      -4.524   2.979  26.006  0.00  0.00    -0.157 OA
ENDBRANCH   5   2
BRANCH  10  11
ATOM     11  C   UNL     1      -3.103   2.993  24.769  0.00  0.00    +0.260 C 
ATOM     12  O   UNL     1      -3.388   3.674  24.401  0.00  0.00    -0.272 OA
ATOM     13  N   UNL     1      -2.349   2.989  25.104  0.00  0.00    -0.197 NA
BRANCH  13  14
ATOM     14  C   UNL     1      -1.879   3.667  25.070  0.00  0.00    +0.173 C 
ATOM     15  C   UNL     1      -2.170   4.384  25.357  0.00  0.00    +0.033 C 
ATOM     16  C   UNL     1      -1.701   5.061  25.323  0.00  0.00    +0.026 C 
ATOM     17  C   UNL     1      -0.941   5.023  25.003  0.00  0.00    +0.115 C 
ATOM     18  N   UNL     1      -0.651   4.306  24.716  0.00  0.00    -0.204 NA
ATOM     19  C   UNL     1      -1.120   3.627  24.750  0.00  0.00    +0.261 C 
ATOM     20  O   UNL     1      -0.831   2.911  24.463  0.00  0.00    -0.271 OA
ENDBRANCH  13  14
ENDBRANCH  10  11
BRANCH  21  23
ATOM     23  C   UNL     1      -3.861  -0.512  24.499  0.00  0.00    +0.143 C 
BRANCH  23  24
ATOM     24  S   UNL     1      -3.511  -1.258  24.450  0.00  0.00    -0.119 S 
BRANCH  24  25
ATOM     25  C   UNL     1      -3.984  -1.935  24.428  0.00  0.00    +0.172 C 
BRANCH  25  26
ATOM     26  C   UNL     1      -3.646  -2.677  24.553  0.00  0.00    +0.376 C 
ATOM     27  O   UNL     1      -3.476  -3.165  23.910  0.00  0.00    -0.245 OA
ATOM     28  O   UNL     1      -3.479  -2.932  25.320  0.00  0.00    -0.245 OA
ENDBRANCH  25  26
ENDBRANCH  24  25
ENDBRANCH  23  24
ENDBRANCH  21  23
TORSDOF 7
ENDMDL
MODEL 3
REMARK VINA RESULT:      -8.1      1.873      2.765
REMARK  Name = 
REMARK  7 active torsions:
REMARK  status: ('A' for Active; 'I' for Inactive)
REMARK    1  A    between atoms: S_2  and  N_5
REMARK    2  A    between atoms: C_10  and  C_11
REMARK    3  A    between atoms: N_13  and  C_14
REMARK    4  A    between atoms: C_21  and  C_23
REMARK    5  A    between atoms: C_23  and  S_24
REMARK    6  A    between atoms: S_24  and  C_25
REMARK    7  A    between atoms: C_25  and  C_26
REMARK                            x       y       z     vdW  Elec       q    Type
REMARK                         _______ _______ _______ _____ _____    ______ ____
ROOT
ATOM      5  N   UNL     1      -0.935   0.217  24.881  0.00  0.00    -0.148 NA
ATOM      6  C   UNL     1      -0.477   0.863  25.113  0.00  0.00    +0.117 C 
ATOM      7  C   UNL     1      -0.829   1.603  25.211  0.00  0.00    +0.113 C 
ATOM      8  N   UNL     1      -1.637   1.696  25.077  0.00  0.00    -0.275 N 
ATOM      9  C   UNL     1      -2.094   1.050  24.844  0.00  0.00    +0.120 C 
ATOM     10  C   UNL     1      -1.742   0.310  24.747  0.00  0.00    +0.176 C 
ATOM     21  C   UNL     1      -1.989   2.436  25.175  0.00  0.00    +0.237 C 
ATOM     22  O   UNL     1      -2.797   2.529  25.040  0.00  0.00    -0.274 OA
ENDROOT
BRANCH   5   2
ATOM      1  C   UNL     1      -0.231  -1.263  24.684  0.00  0.00    +0.196 C 
ATOM      2  S   UNL     1      -0.583  -0.524  24.783  0.00  0.00    +0.046 S 
ATOM      3  O   UNL     1      -0.710  -0.690  25.580  0.00  0.00    -0.157 OA
ATOM      4  O   UNL     1      -0.455  -0.357  23.984  0.00  0.00    -0.157 OA
ENDBRANCH   5   2
BRANCH  10  11
ATOM     11  C   UNL     1      -2.200  -0.337  24.514  0.00  0.00    +0.260 C 
ATOM     12  O   UNL     1      -1.954  -0.812  23.886  0.00  0.00    -0.272 OA
ATOM     13  N   UNL     1      -2.903  -0.507  24.910  0.00  0.00    -0.197 NA
BRANCH  13  14
ATOM     14  C   UNL     1      -3.360  -1.154  24.678  0.00  0.00    +0.173 C 
ATOM     15  C   UNL     1      -3.552  -1.260  23.882  0.00  0.00    +0.033 C 
ATOM     16  C   UNL     1      -4.008  -1.906  23.651  0.00  0.00    +0.026 C 
ATOM     17  C   UNL     1      -4.275  -2.447  24.214  0.00  0.00    +0.115 C 
ATOM     18  N   UNL     1      -4.084  -2.341  25.009  0.00  0.00    -0.204 NA
ATOM     19  C   UNL     1      -3.626  -1.694  25.242  0.00  0.00    +0.261 C 
ATOM     20  O   UNL     1      -3.435  -1.589  26.037  0.00  0.00    -0.271 OA
ENDBRANCH  13  14
ENDBRANCH  10  11
BRANCH  21  23
ATOM     23  C   UNL     1      -1.531   3.082  25.407  0.00  0.00    +0.143 C 
BRANCH  23  24
ATOM     24  S   UNL     1      -1.769   3.847  25.209  0.00  0.00    -0.119 S 
BRANCH  24  25
ATOM     25  C   UNL     1      -1.384   4.498  25.542  0.00  0.00    +0.172 C 
BRANCH  25  26
ATOM     26  C   UNL     1      -1.290   5.190  25.104  0.00  0.00    +0.376 C 
ATOM     27  O   UNL     1      -1.896   5.750  25.084  0.00  0.00    -0.245 OA
ATOM     28  O   UNL     1      -0.592   5.322  24.685  0.00  0.00    -0.245 OA
ENDBRANCH  25  26
ENDBRANCH  24  25
ENDBRANCH  23  24
ENDBRANCH  21  23
TORSDOF 7
ENDMDL
MODEL 4
REMARK VINA RESULT:      -7.9      2.927      4.205
REMARK  Name = 
REMARK  7 active torsions:
REMARK  status: ('A' for Active; 'I' for Inactive)
REMARK    1  A    between atoms: S_2  and  N_5
REMARK    2  A    between atoms: C_10  and  C_11
REMARK    3  A    between atoms: N_13  and  C_14
REMARK    4  A    between atoms: C_21  and  C_23
REMARK    5  A    between atoms: C_23  and  S_24
REMARK    6  A    between atoms: S_24  and  C_25
REMARK    7  A    between atoms: C_25  and  C_26
REMARK                            x       y       z     vdW  Elec       q    Type
REMARK                         _______ _______ _______ _____ _____    ______ ____
ROOT
ATOM      5  N   UNL     1      -2.290  -0.552  24.969  0.00  0.00    -0.148 NA
ATOM      6  C   UNL     1      -1.588  -0.978  24.893  0.00  0.00    +0.117 C 
ATOM      7  C   UNL     1      -0.958  -0.661  24.464  0.00  0.00    +0.113 C 
ATOM      8  N   UNL     1      -1.031   0.081  24.113  0.00  0.00    -0.275 N 
ATOM      9  C   UNL     1      -1.734   0.507  24.189  0.00  0.00    +0.120 C 
ATOM     10  C   UNL     1      -2.363   0.190  24.618  0.00  0.00    +0.176 C 
ATOM     21  C   UNL     1      -0.401   0.399  23.684  0.00  0.00    +0.237 C 
ATOM     22  O   UNL     1      -0.474   1.142  23.333  0.00  0.00    -0.274 OA
ENDROOT
BRANCH   5   2
ATOM      1  C   UNL     1      -3.550  -1.187  25.826  0.00  0.00    +0.196 C 
ATOM      2  S   UNL     1      -2.920  -0.870  25.398  0.00  0.00    +0.046 S 
ATOM      3  O   UNL     1      -2.621  -0.531  26.087  0.00  0.00    -0.157 OA
ATOM      4  O   UNL     1      -3.220  -1.209  24.707  0.00  0.00    -0.157 OA
ENDBRANCH   5   2
BRANCH  10  11
ATOM     11  C   UNL     1      -3.066   0.616  24.695  0.00  0.00    +0.260 C 
ATOM     12  O   UNL     1      -3.792   0.224  24.662  0.00  0.00    -0.272 OA
ATOM     13  N   UNL     1      -3.042   1.433  24.804  0.00  0.00    -0.197 NA
BRANCH  13  14
ATOM     14  C   UNL     1      -3.745   1.859  24.881  0.00  0.00    +0.173 C 
ATOM     15  C   UNL     1      -4.427   1.605  24.491  0.00  0.00    +0.033 C 
ATOM     16  C   UNL     1      -5.128   2.031  24.568  0.00  0.00    +0.026 C 
ATOM     17  C   UNL     1      -5.150   2.711  25.035  0.00  0.00    +0.115 C 
ATOM     18  N   UNL     1      -4.469   2.965  25.424  0.00  0.00    -0.204 NA
ATOM     19  C   UNL     1      -3.766   2.539  25.348  0.00  0.00    +0.261 C 
ATOM     20  O   UNL     1      -3.085   2.793  25.737  0.00  0.00    -0.271 OA
ENDBRANCH  13  14
ENDBRANCH  10  11
BRANCH  21  23
ATOM     23  C   UNL     1       0.301  -0.027  23.608  0.00  0.00    +0.143 C 
BRANCH  23  24
ATOM     24  S   UNL     1       0.895   0.245  23.104  0.00  0.00    -0.119 S 
BRANCH  24  25
ATOM     25  C   UNL     1       1.562  -0.221  22.962  0.00  0.00    +0.172 C 
BRANCH  25  26
ATOM     26  C   UNL     1       2.148   0.045  22.446  0.00  0.00    +0.376 C 
ATOM     27  O   UNL     1       2.098  -0.128  21.641  0.00  0.00    -0.245 OA
ATOM     28  O   UNL     1       2.785   0.483  22.736  0.00  0.00    -0.245 OA
ENDBRANCH  25  26
ENDBRANCH  24  25
ENDBRANCH  23  24
ENDBRANCH  21  23
TORSDOF 7
ENDMDL
MODEL 5
REMARK VINA RESULT:      -7.5     15.867     18.799
REMARK  Name = 
REMARK  7 active torsions:
REMARK  status: ('A' for Active; 'I' for Inactive)
REMARK    1  A    between atoms: S_2  and  N_5
REMARK    2  A    between atoms: C_10  and  C_11
REMARK    3  A    between atoms: N_13  and  C_14
REMARK    4  A    between atoms: C_21  and  C_23
REMARK    5  A    between atoms: C_23  and  S_24
REMARK    6  A    between atoms: S_24  and  C_25
REMARK    7  A    between atoms: C_25  and  C_26
REMARK                            x       y       z     vdW  Elec       q    Type
REMARK                         _______ _______ _______ _____ _____    ______ ____
ROOT
ATOM      5  N   UNL     1      14.032   7.859  20.297  0.00  0.00    -0.148 NA
ATOM      6  C   UNL     1      14.558   8.227  19.779  0.00  0.00    +0.117 C 
ATOM      7  C   UNL     1      14.386   8.261  18.972  0.00  0.00    +0.113 C 
ATOM      8  N   UNL     1      13.690   7.928  18.685  0.00  0.00    -0.275 N 
ATOM      9  C   UNL     1      13.164   7.559  19.203  0.00  0.00    +0.120 C 
ATOM     10  C   UNL     1      13.335   7.525  20.009  0.00  0.00    +0.176 C 
ATOM     21  C   UNL     1      13.518   7.962  17.878  0.00  0.00    +0.237 C 
ATOM     22  O   UNL     1      12.821   7.628  17.590  0.00  0.00    -0.274 OA
ENDROOT
BRANCH   5   2
ATOM      1  C   UNL     1      14.375   7.789  21.910  0.00  0.00    +0.196 C 
ATOM      2  S   UNL     1      14.203   7.824  21.104  0.00  0.00    +0.046 S 
ATOM      3  O   UNL     1      13.864   8.568  21.207  0.00  0.00    -0.157 OA
ATOM      4  O   UNL     1      14.544   7.079  21.000  0.00  0.00    -0.157 OA
ENDBRANCH   5   2
BRANCH  10  11
ATOM     11  C   UNL     1      12.809   7.156  20.527  0.00  0.00    +0.260 C 
ATOM     12  O   UNL     1      13.087   6.605  21.074  0.00  0.00    -0.272 OA
ATOM     13  N   UNL     1      12.005   7.340  20.498  0.00  0.00    -0.197 NA
BRANCH  13  14
ATOM     14  C   UNL     1      11.479   6.972  21.016  0.00  0.00    +0.173 C 
ATOM     15  C   UNL     1      11.563   6.169  21.188  0.00  0.00    +0.033 C 
ATOM     16  C   UNL     1      11.037   5.802  21.706  0.00  0.00    +0.026 C 
ATOM     17  C   UNL     1      10.427   6.235  22.052  0.00  0.00    +0.115 C 
ATOM     18  N   UNL     1      10.342   7.038  21.880  0.00  0.00    -0.204 NA
ATOM     19  C   UNL     1      10.869   7.406  21.362  0.00  0.00    +0.261 C 
ATOM     20  O   UNL     1      10.785   8.208  21.190  0.00  0.00    -0.271 OA
ENDBRANCH  13  14
ENDBRANCH  10  11
BRANCH  21  23
ATOM     23  C   UNL     1      14.045   8.331  17.361  0.00  0.00    +0.143 C 
BRANCH  23  24
ATOM     24  S   UNL     1      13.821   8.474  16.579  0.00  0.00    -0.119 S 
BRANCH  24  25
ATOM     25  C   UNL     1      14.281   8.968  16.103  0.00  0.00    +0.172 C 
BRANCH  25  26
ATOM     26  C   UNL     1      14.147   8.995  15.289  0.00  0.00    +0.376 C 
ATOM     27  O   UNL     1      14.782   9.093  14.772  0.00  0.00    -0.245 OA
ATOM     28  O   UNL     1      13.380   8.925  14.994  0.00  0.00    -0.245 OA
ENDBRANCH  25  26
ENDBRANCH  24  25
ENDBRANCH  23  24
ENDBRANCH  21  23
TORSDOF 7
ENDMDL
MODEL 6
REMARK VINA RESULT:      -7.5      2.870      4.421
REMARK  Name = 
REMARK  7 active torsions:
REMARK  status: ('A' for Active; 'I' for Inactive)
REMARK    1  A    between atoms: S_2  and  N_5
REMARK    2  A    between atoms: C_10  and  C_11
REMARK    3  A    between atoms: N_13  and  C_14
REMARK    4  A    between atoms: C_21  and  C_23
REMARK    5  A    between atoms: C_23  and  S_24
REMARK    6  A    between atoms: S_24  and  C_25
REMARK    7  A    between atoms: C_25  and  C_26
REMARK                            x       y       z     vdW  Elec       q    Type
REMARK                         _______ _______ _______ _____ _____    ______ ____
ROOT
ATOM      5  N   UNL     1      -1.140   2.781  24.975  0.00  0.00    -0.148 NA
ATOM      6  C   UNL     1      -0.334   2.729  24.807  0.00  0.00    +0.117 C 
ATOM      7  C   UNL     1      -0.032   2.052  24.442  0.00  0.00    +0.113 C 
ATOM      8  N   UNL     1      -0.535   1.431  24.245  0.00  0.00    -0.275 N 
ATOM      9  C   UNL     1      -1.342   1.483  24.413  0.00  0.00    +0.120 C 
ATOM     10  C   UNL     1      -1.643   2.159  24.778  0.00  0.00    +0.176 C 
ATOM     21  C   UNL     1      -0.234   0.755  23.880  0.00  0.00    +0.237 C 
ATOM     22  O   UNL     1      -0.738   0.132  23.683  0.00  0.00    -0.274 OA
ENDROOT
BRANCH   5   2
ATOM      1  C   UNL     1      -1.744   4.132  25.704  0.00  0.00    +0.196 C 
ATOM      2  S   UNL     1      -1.442   3.457  25.340  0.00  0.00    +0.046 S 
ATOM      3  O   UNL     1      -1.371   3.091  26.075  0.00  0.00    -0.157 OA
ATOM      4  O   UNL     1      -1.513   3.823  24.603  0.00  0.00    -0.157 OA
ENDBRANCH   5   2
BRANCH  10  11
ATOM     11  C   UNL     1      -2.450   2.211  24.946  0.00  0.00    +0.260 C 
ATOM     12  O   UNL     1      -2.701   2.437  25.699  0.00  0.00    -0.272 OA
ATOM     13  N   UNL     1      -3.005   2.039  24.360  0.00  0.00    -0.197 NA
BRANCH  13  14
ATOM     14  C   UNL     1      -3.811   2.092  24.528  0.00  0.00    +0.173 C 
ATOM     15  C   UNL     1      -4.118   1.721  25.198  0.00  0.00    +0.033 C 
ATOM     16  C   UNL     1      -4.924   1.774  25.366  0.00  0.00    +0.026 C 
ATOM     17  C   UNL     1      -5.423   2.197  24.864  0.00  0.00    +0.115 C 
ATOM     18  N   UNL     1      -5.116   2.567  24.193  0.00  0.00    -0.204 NA
ATOM     19  C   UNL     1      -4.310   2.515  24.025  0.00  0.00    +0.261 C 
ATOM     20  O   UNL     1      -4.003   2.885  23.356  0.00  0.00    -0.271 OA
ENDBRANCH  13  14
ENDBRANCH  10  11
BRANCH  21  23
ATOM     23  C   UNL     1       0.572   0.703  23.712  0.00  0.00    +0.143 C 
BRANCH  23  24
ATOM     24  S   UNL     1       0.835   0.213  23.102  0.00  0.00    -0.119 S 
BRANCH  24  25
ATOM     25  C   UNL     1       1.621  -0.038  23.084  0.00  0.00    +0.172 C 
BRANCH  25  26
ATOM     26  C   UNL     1       2.037  -0.040  22.372  0.00  0.00    +0.376 C 
ATOM     27  O   UNL     1       2.802   0.268  22.342  0.00  0.00    -0.245 OA
ATOM     28  O   UNL     1       1.689  -0.349  21.691  0.00  0.00    -0.245 OA
ENDBRANCH  25  26
ENDBRANCH  24  25
ENDBRANCH  23  24
ENDBRANCH  21  23
TORSDOF 7
ENDMDL
MODEL 7
REMARK VINA RESULT:      -7.4      2.476      4.286
REMARK  Name = 
REMARK  7 active torsions:
REMARK  status: ('A' for Active; 'I' for Inactive)
REMARK    1  A    between atoms: S_2  and  N_5
REMARK    2  A    between atoms: C_10  and  C_11
REMARK    3  A    between atoms: N_13  and  C_14
REMARK    4  A    between atoms: C_21  and  C_23
REMARK    5  A    between atoms: C_23  and  S_24
REMARK    6  A    between atoms: S_24  and  C_25
REMARK    7  A    between atoms: C_25  and  C_26
REMARK                            x       y       z     vdW  Elec       q    Type
REMARK                         _______ _______ _______ _____ _____    ______ ____
ROOT
ATOM      5  N   UNL     1      -1.208   2.551  25.424  0.00  0.00    -0.148 NA
ATOM      6  C   UNL     1      -1.816   2.982  25.779  0.00  0.00    +0.117 C 
ATOM      7  C   UNL     1      -2.586   2.927  25.485  0.00  0.00    +0.113 C 
ATOM      8  N   UNL     1      -2.747   2.443  24.838  0.00  0.00    -0.275 N 
ATOM      9  C   UNL     1      -2.138   2.012  24.483  0.00  0.00    +0.120 C 
ATOM     10  C   UNL     1      -1.369   2.067  24.777  0.00  0.00    +0.176 C 
ATOM     21  C   UNL     1      -3.515   2.388  24.544  0.00  0.00    +0.237 C 
ATOM     22  O   UNL     1      -3.676   1.903  23.896  0.00  0.00    -0.274 OA
ENDROOT
BRANCH   5   2
ATOM      1  C   UNL     1       0.330   2.660  26.012  0.00  0.00    +0.196 C 
ATOM      2  S   UNL     1      -0.439   2.606  25.718  0.00  0.00    +0.046 S 
ATOM      3  O   UNL     1      -0.282   3.221  25.193  0.00  0.00    -0.157 OA
ATOM      4  O   UNL     1      -0.596   1.989  26.244  0.00  0.00    -0.157 OA
ENDBRANCH   5   2
BRANCH  10  11
ATOM     11  C   UNL     1      -0.761   1.636  24.423  0.00  0.00    +0.260 C 
ATOM     12  O   UNL     1      -0.050   2.008  24.230  0.00  0.00    -0.272 OA
ATOM     13  N   UNL     1      -0.864   0.834  24.261  0.00  0.00    -0.197 NA
BRANCH  13  14
ATOM     14  C   UNL     1      -0.255   0.403  23.906  0.00  0.00    +0.173 C 
ATOM     15  C   UNL     1       0.223   0.758  23.336  0.00  0.00    +0.033 C 
ATOM     16  C   UNL     1       0.831   0.328  22.982  0.00  0.00    +0.026 C 
ATOM     17  C   UNL     1       0.961  -0.458  23.198  0.00  0.00    +0.115 C 
ATOM     18  N   UNL     1       0.482  -0.813  23.768  0.00  0.00    -0.204 NA
ATOM     19  C   UNL     1      -0.127  -0.382  24.123  0.00  0.00    +0.261 C 
ATOM     20  O   UNL     1      -0.604  -0.737  24.693  0.00  0.00    -0.271 OA
ENDBRANCH  13  14
ENDBRANCH  10  11
BRANCH  21  23
ATOM     23  C   UNL     1      -4.123   2.818  24.899  0.00  0.00    +0.143 C 
BRANCH  23  24
ATOM     24  S   UNL     1      -4.884   2.501  24.938  0.00  0.00    -0.119 S 
BRANCH  24  25
ATOM     25  C   UNL     1      -5.467   2.881  25.382  0.00  0.00    +0.172 C 
BRANCH  25  26
ATOM     26  C   UNL     1      -6.088   2.445  25.706  0.00  0.00    +0.376 C 
ATOM     27  O   UNL     1      -6.202   2.436  26.523  0.00  0.00    -0.245 OA
ATOM     28  O   UNL     1      -6.594   2.019  25.214  0.00  0.00    -0.245 OA
ENDBRANCH  25  26
ENDBRANCH  24  25
ENDBRANCH  23  24
ENDBRANCH  21  23
TORSDOF 7
ENDMDL
MODEL 8
REMARK VINA RESULT:      -7.4      3.454      4.087
REMARK  Name = 
REMARK  7 active torsions:
REMARK  status: ('A' for Active; 'I' for Inactive)
REMARK    1  A    between atoms: S_2  and  N_5
REMARK    2  A    between atoms: C_10  and  C_11
REMARK    3  A    between atoms: N_13  and  C_14
REMARK    4  A    between atoms: C_21  and  C_23
REMARK    5  A    between atoms: C_23  and  S_24
REMARK    6  A    between atoms: S_24  and  C_25
REMARK    7  A    between atoms: C_25  and  C_26
REMARK                            x       y       z     vdW  Elec       q    Type
REMARK                         _______ _______ _______ _____ _____    ______ ____
ROOT
ATOM      5  N   UNL     1      -1.076   1.711  24.408  0.00  0.00    -0.148 NA
ATOM      6  C   UNL     1      -0.343   2.083  24.341  0.00  0.00    +0.117 C 
ATOM      7  C   UNL     1       0.298   1.676  24.016  0.00  0.00    +0.113 C 
ATOM      8  N   UNL     1       0.205   0.899  23.759  0.00  0.00    -0.275 N 
ATOM      9  C   UNL     1      -0.529   0.526  23.827  0.00  0.00    +0.120 C 
ATOM     10  C   UNL     1      -1.169   0.933  24.151  0.00  0.00    +0.176 C 
ATOM     21  C   UNL     1       0.845   0.492  23.435  0.00  0.00    +0.237 C 
ATOM     22  O   UNL     1       0.752  -0.286  23.178  0.00  0.00    -0.274 OA
ENDROOT
BRANCH   5   2
ATOM      1  C   UNL     1      -2.357   2.524  25.057  0.00  0.00    +0.196 C 
ATOM      2  S   UNL     1      -1.717   2.118  24.732  0.00  0.00    +0.046 S 
ATOM      3  O   UNL     1      -1.958   2.340  23.976  0.00  0.00    -0.157 OA
ATOM      4  O   UNL     1      -1.475   1.895  25.489  0.00  0.00    -0.157 OA
ENDBRANCH   5   2
BRANCH  10  11
ATOM     11  C   UNL     1      -1.903   0.561  24.218  0.00  0.00    +0.260 C 
ATOM     12  O   UNL     1      -2.582   0.933  23.933  0.00  0.00    -0.272 OA
ATOM     13  N   UNL     1      -1.956  -0.183  24.570  0.00  0.00    -0.197 NA
BRANCH  13  14
ATOM     14  C   UNL     1      -2.690  -0.556  24.637  0.00  0.00    +0.173 C 
ATOM     15  C   UNL     1      -3.227  -0.524  24.012  0.00  0.00    +0.033 C 
ATOM     16  C   UNL     1      -3.960  -0.896  24.079  0.00  0.00    +0.026 C 
ATOM     17  C   UNL     1      -4.157  -1.300  24.771  0.00  0.00    +0.115 C 
ATOM     18  N   UNL     1      -3.619  -1.331  25.396  0.00  0.00    -0.204 NA
ATOM     19  C   UNL     1      -2.885  -0.959  25.329  0.00  0.00    +0.261 C 
ATOM     20  O   UNL     1      -2.348  -0.990  25.954  0.00  0.00    -0.271 OA
ENDBRANCH  13  14
ENDBRANCH  10  11
BRANCH  21  23
ATOM     23  C   UNL     1       1.578   0.864  23.368  0.00  0.00    +0.143 C 
BRANCH  23  24
ATOM     24  S   UNL     1       2.210   0.470  23.011  0.00  0.00    -0.119 S 
BRANCH  24  25
ATOM     25  C   UNL     1       2.955   0.825  22.983  0.00  0.00    +0.172 C 
BRANCH  25  26
ATOM     26  C   UNL     1       3.573   0.453  22.583  0.00  0.00    +0.376 C 
ATOM     27  O   UNL     1       3.610   0.487  21.760  0.00  0.00    -0.245 OA
ATOM     28  O   UNL     1       4.154   0.048  23.006  0.00  0.00    -0.245 OA
ENDBRANCH  25  26
ENDBRANCH  24  25
ENDBRANCH  23  24
ENDBRANCH  21  23
TORSDOF 7
ENDMDL
MODEL 9
REMARK VINA RESULT:      -7.4      2.936      4.496
REMARK  Name = 
REMARK  7 active torsions:
REMARK  status: ('A' for Active; 'I' for Inactive)
REMARK    1  A    between atoms: S_2  and  N_5
REMARK    2  A    between atoms: C_10  and  C_11
REMARK    3  A    between atoms: N_13  and  C_14
REMARK    4  A    between atoms: C_21  and  C_23
REMARK    5  A    between atoms: C_23  and  S_24
REMARK    6  A    between atoms: S_24  and  C_25
REMARK    7  A    between atoms: C_25  and  C_26
REMARK                            x       y       z     vdW  Elec       q    Type
REMARK                         _______ _______ _______ _____ _____    ______ ____
ROOT
ATOM      5  N   UNL     1      -1.843  -0.461  25.075  0.00  0.00    -0.148 NA
ATOM      6  C   UNL     1      -2.591  -0.416  25.421  0.00  0.00    +0.117 C 
ATOM      7  C   UNL     1      -3.107   0.192  25.208  0.00  0.00    +0.113 C 
ATOM      8  N   UNL     1      -2.875   0.754  24.652  0.00  0.00    -0.275 N 
ATOM      9  C   UNL     1      -2.127   0.708  24.306  0.00  0.00    +0.120 C 
ATOM     10  C   UNL     1      -1.611   0.100  24.518  0.00  0.00    +0.176 C 
ATOM     21  C   UNL     1      -3.391   1.362  24.439  0.00  0.00    +0.237 C 
ATOM     22  O   UNL     1      -3.159   1.924  23.882  0.00  0.00    -0.274 OA
ENDROOT
BRANCH   5   2
ATOM      1  C   UNL     1      -0.811  -1.678  25.499  0.00  0.00    +0.196 C 
ATOM      2  S   UNL     1      -1.327  -1.070  25.287  0.00  0.00    +0.046 S 
ATOM      3  O   UNL     1      -1.040  -0.609  25.908  0.00  0.00    -0.157 OA
ATOM      4  O   UNL     1      -1.614  -1.531  24.666  0.00  0.00    -0.157 OA
ENDBRANCH   5   2
BRANCH  10  11
ATOM     11  C   UNL     1      -0.863   0.055  24.173  0.00  0.00    +0.260 C 
ATOM     12  O   UNL     1      -0.566  -0.674  23.926  0.00  0.00    -0.272 OA
ATOM     13  N   UNL     1      -0.413   0.739  24.074  0.00  0.00    -0.197 NA
BRANCH  13  14
ATOM     14  C   UNL     1       0.336   0.694  23.729  0.00  0.00    +0.173 C 
ATOM     15  C   UNL     1       0.490   0.125  23.151  0.00  0.00    +0.033 C 
ATOM     16  C   UNL     1       1.237   0.081  22.806  0.00  0.00    +0.026 C 
ATOM     17  C   UNL     1       1.831   0.604  23.038  0.00  0.00    +0.115 C 
ATOM     18  N   UNL     1       1.678   1.172  23.616  0.00  0.00    -0.204 NA
ATOM     19  C   UNL     1       0.929   1.217  23.961  0.00  0.00    +0.261 C 
ATOM     20  O   UNL     1       0.775   1.785  24.538  0.00  0.00    -0.271 OA
ENDBRANCH  13  14
ENDBRANCH  10  11
BRANCH  21  23
ATOM     23  C   UNL     1      -4.139   1.406  24.785  0.00  0.00    +0.143 C 
BRANCH  23  24
ATOM     24  S   UNL     1      -4.508   2.139  24.874  0.00  0.00    -0.119 S 
BRANCH  24  25
ATOM     25  C   UNL     1      -5.287   2.179  25.146  0.00  0.00    +0.172 C 
BRANCH  25  26
ATOM     26  C   UNL     1      -5.527   2.812  25.617  0.00  0.00    +0.376 C 
ATOM     27  O   UNL     1      -5.505   3.580  25.316  0.00  0.00    -0.245 OA
ATOM     28  O   UNL     1      -5.790   2.677  26.387  0.00  0.00    -0.245 OA
ENDBRANCH  25  26
ENDBRANCH  24  25
ENDBRANCH  23  24
ENDBRANCH  21  23
TORSDOF 7
ENDMDL
MODEL 10
REMARK VINA RESULT:      -7.4      2.199      5.641
REMARK  Name = 
REMARK  7 active torsions:
REMARK  status: ('A' for Active; 'I' for Inactive)
REMARK    1  A    between atoms: S_2  and  N_5
REMARK    2  A    between atoms: C_10  and  C_11
REMARK    3  A    between atoms: N_13  and  C_14
REMARK    4  A    between atoms: C_21  and  C_23
REMARK    5  A    between atoms: C_23  and  S_24
REMARK    6  A    between atoms: S_24  and  C_25
REMARK    7  A    between atoms: C_25  and  C_26
REMARK                            x       y       z     vdW  Elec       q    Type
REMARK                         _______ _______ _______ _____ _____    ______ ____
ROOT
ATOM      5  N   UNL     1      -0.750   1.095  24.655  0.00  0.00    -0.148 NA
ATOM      6  C   UNL     1      -0.635   0.301  24.466  0.00  0.00    +0.117 C 
ATOM      7  C   UNL     1      -1.229  -0.251  24.627  0.00  0.00    +0.113 C 
ATOM      8  N   UNL     1      -1.934  -0.007  24.976  0.00  0.00    -0.275 N 
ATOM      9  C   UNL     1      -2.048   0.788  25.165  0.00  0.00    +0.120 C 
ATOM     10  C   UNL     1      -1.455   1.339  25.004  0.00  0.00    +0.176 C 
ATOM     21  C   UNL     1      -2.527  -0.558  25.137  0.00  0.00    +0.237 C 
ATOM     22  O   UNL     1      -3.233  -0.314  25.486  0.00  0.00    -0.274 OA
ENDROOT
BRANCH   5   2
ATOM      1  C   UNL     1       0.436   2.197  24.334  0.00  0.00    +0.196 C 
ATOM      2  S   UNL     1      -0.157   1.647  24.494  0.00  0.00    +0.046 S 
ATOM      3  O   UNL     1      -0.451   1.740  23.730  0.00  0.00    -0.157 OA
ATOM      4  O   UNL     1       0.138   1.553  25.260  0.00  0.00    -0.157 OA
ENDBRANCH   5   2
BRANCH  10  11
ATOM     11  C   UNL     1      -1.569   2.134  25.193  0.00  0.00    +0.260 C 
ATOM     12  O   UNL     1      -0.979   2.553  25.589  0.00  0.00    -0.272 OA
ATOM     13  N   UNL     1      -2.274   2.510  24.986  0.00  0.00    -0.197 NA
BRANCH  13  14
ATOM     14  C   UNL     1      -2.388   3.306  25.175  0.00  0.00    +0.173 C 
ATOM     15  C   UNL     1      -2.063   3.616  25.867  0.00  0.00    +0.033 C 
ATOM     16  C   UNL     1      -2.177   4.410  26.056  0.00  0.00    +0.026 C 
ATOM     17  C   UNL     1      -2.616   4.896  25.553  0.00  0.00    +0.115 C 
ATOM     18  N   UNL     1      -2.941   4.585  24.861  0.00  0.00    -0.204 NA
ATOM     19  C   UNL     1      -2.827   3.790  24.672  0.00  0.00    +0.261 C 
ATOM     20  O   UNL     1      -3.151   3.480  23.981  0.00  0.00    -0.271 OA
ENDBRANCH  13  14
ENDBRANCH  10  11
BRANCH  21  23
ATOM     23  C   UNL     1      -2.413  -1.352  24.948  0.00  0.00    +0.143 C 
BRANCH  23  24
ATOM     24  S   UNL     1      -3.062  -1.858  24.881  0.00  0.00    -0.119 S 
BRANCH  24  25
ATOM     25  C   UNL     1      -3.010  -2.538  24.415  0.00  0.00    +0.172 C 
BRANCH  25  26
ATOM     26  C   UNL     1      -3.667  -3.028  24.328  0.00  0.00    +0.376 C 
ATOM     27  O   UNL     1      -3.774  -3.668  24.838  0.00  0.00    -0.245 OA
ATOM     28  O   UNL     1      -4.216  -2.880  23.731  0.00  0.00    -0.245 OA
ENDBRANCH  25  26
ENDBRANCH  24  25
ENDBRANCH  23  24
ENDBRANCH  21  23
TORSDOF 7
ENDMDL
