MODEL 1
REMARK VINA RESULT:     -12.0      0.000      0.000
REMARK  Name = 
REMARK  3 active torsions:
REMARK  status: ('A' for Active; 'I' for Inactive)
REMARK    1  A    between atoms: O_2  and  C_3
REMARK    2  A    between atoms: C_6  and  C_7
REMARK    3  A    between atoms: C_8  and  C_9
REMARK                            x       y       z     vdW  Elec       q    Type
REMARK                         _______ _______ _______ _____ _____    ______ ____
ROOT
ATOM      9  C   UNL     1      -3.346   1.250  24.598  0.00  0.00    +0.000 A 
ATOM     10  C   UNL     1      -4.032   1.666  24.791  0.00  0.00    +0.001 A 
ATOM     11  C   UNL     1      -3.991   2.471  24.967  0.00  0.00    +0.017 A 
ATOM     12  C   UNL     1      -3.264   2.860  24.950  0.00  0.00    +0.078 A 
ATOM     13  N   UNL     1      -3.345   3.658  25.142  0.00  0.00    -0.178 NA
ATOM     14  C   UNL     1      -2.760   4.238  25.188  0.00  0.00    +0.265 C 
ATOM     15  O   UNL     1      -3.020   4.993  25.396  0.00  0.00    -0.271 OA
ATOM     16  C   UNL     1      -1.949   4.163  25.055  0.00  0.00    +0.172 C 
ATOM     17  C   UNL     1      -1.418   4.790  25.120  0.00  0.00    +0.121 C 
ATOM     18  N   UNL     1      -1.608   5.567  25.323  0.00  0.00    -0.131 NA
ATOM     19  C   UNL     1      -0.664   4.505  24.947  0.00  0.00    +0.043 C 
ATOM     20  C   UNL     1      -0.729   3.701  24.774  0.00  0.00    +0.096 C 
ATOM     21  N   UNL     1      -1.524   3.489  24.841  0.00  0.00    -0.268 N 
ATOM     22  C   UNL     1      -1.804   2.725  24.709  0.00  0.00    +0.251 C 
ATOM     23  O   UNL     1      -1.233   2.166  24.501  0.00  0.00    -0.270 OA
ATOM     24  C   UNL     1      -2.578   2.445  24.757  0.00  0.00    +0.069 A 
ATOM     25  C   UNL     1      -2.619   1.640  24.581  0.00  0.00    +0.006 A 
ENDROOT
BRANCH   9   8
ATOM      7  C   UNL     1      -3.748  -0.074  24.951  0.00  0.00    +0.000 C 
ATOM      8  C   UNL     1      -3.387   0.445  24.422  0.00  0.00    +0.000 C 
BRANCH   7   6
ATOM      3  C   UNL     1      -3.870  -2.490  24.425  0.00  0.00    +0.139 A 
ATOM      4  C   UNL     1      -4.244  -1.942  23.934  0.00  0.00    +0.037 A 
ATOM      5  C   UNL     1      -4.203  -1.136  24.109  0.00  0.00    +0.003 A 
ATOM      6  C   UNL     1      -3.789  -0.879  24.775  0.00  0.00    +0.000 A 
ATOM     26  C   UNL     1      -3.416  -1.428  25.266  0.00  0.00    +0.003 A 
ATOM     27  C   UNL     1      -3.457  -2.233  25.091  0.00  0.00    +0.037 A 
BRANCH   3   2
ATOM      1  C   UNL     1      -3.245  -3.690  23.964  0.00  0.00    +0.252 C 
ATOM      2  O   UNL     1      -3.911  -3.295  24.250  0.00  0.00    -0.471 OA
ENDBRANCH   3   2
ENDBRANCH   7   6
ENDBRANCH   9   8
TORSDOF 3
ENDMDL
MODEL 2
REMARK VINA RESULT:     -11.5      2.159      5.686
REMARK  Name = 
REMARK  3 active torsions:
REMARK  status: ('A' for Active; 'I' for Inactive)
REMARK    1  A    between atoms: O_2  and  C_3
REMARK    2  A    between atoms: C_6  and  C_7
REMARK    3  A    between atoms: C_8  and  C_9
REMARK                            x       y       z     vdW  Elec       q    Type
REMARK                         _______ _______ _______ _____ _____    ______ ____
ROOT
ATOM      9  C   UNL     1      -3.052   1.316  24.362  0.00  0.00    +0.000 A 
ATOM     10  C   UNL     1      -3.862   1.263  24.218  0.00  0.00    +0.001 A 
ATOM     11  C   UNL     1      -4.225   0.524  24.165  0.00  0.00    +0.017 A 
ATOM     12  C   UNL     1      -3.777  -0.163  24.256  0.00  0.00    +0.078 A 
ATOM     13  N   UNL     1      -4.243  -0.839  24.183  0.00  0.00    -0.178 NA
ATOM     14  C   UNL     1      -4.015  -1.630  24.236  0.00  0.00    +0.265 C 
ATOM     15  O   UNL     1      -4.617  -2.184  24.137  0.00  0.00    -0.271 OA
ATOM     16  C   UNL     1      -3.262  -1.940  24.374  0.00  0.00    +0.172 C 
ATOM     17  C   UNL     1      -3.105  -2.748  24.415  0.00  0.00    +0.121 C 
ATOM     18  N   UNL     1      -3.657  -3.355  24.326  0.00  0.00    -0.131 NA
ATOM     19  C   UNL     1      -2.298  -2.844  24.560  0.00  0.00    +0.043 C 
ATOM     20  C   UNL     1      -1.958  -2.095  24.609  0.00  0.00    +0.096 C 
ATOM     21  N   UNL     1      -2.554  -1.535  24.494  0.00  0.00    -0.268 N 
ATOM     22  C   UNL     1      -2.422  -0.721  24.505  0.00  0.00    +0.251 C 
ATOM     23  O   UNL     1      -1.643  -0.487  24.641  0.00  0.00    -0.270 OA
ATOM     24  C   UNL     1      -2.966  -0.111  24.399  0.00  0.00    +0.069 A 
ATOM     25  C   UNL     1      -2.604   0.628  24.452  0.00  0.00    +0.006 A 
ENDROOT
BRANCH   9   8
ATOM      7  C   UNL     1      -2.746   2.492  25.112  0.00  0.00    +0.000 C 
ATOM      8  C   UNL     1      -2.689   2.055  24.415  0.00  0.00    +0.000 C 
BRANCH   7   6
ATOM      3  C   UNL     1      -1.658   4.709  25.274  0.00  0.00    +0.139 A 
ATOM      4  C   UNL     1      -2.470   4.658  25.142  0.00  0.00    +0.037 A 
ATOM      5  C   UNL     1      -2.834   3.919  25.088  0.00  0.00    +0.003 A 
ATOM      6  C   UNL     1      -2.384   3.231  25.166  0.00  0.00    +0.000 A 
ATOM     26  C   UNL     1      -1.571   3.284  25.298  0.00  0.00    +0.003 A 
ATOM     27  C   UNL     1      -1.208   4.023  25.352  0.00  0.00    +0.037 A 
BRANCH   3   2
ATOM      1  C   UNL     1      -0.851   5.738  24.695  0.00  0.00    +0.252 C 
ATOM      2  O   UNL     1      -1.295   5.448  25.328  0.00  0.00    -0.471 OA
ENDBRANCH   3   2
ENDBRANCH   7   6
ENDBRANCH   9   8
TORSDOF 3
ENDMDL
MODEL 3
REMARK VINA RESULT:     -10.1      2.476      4.027
REMARK  Name = 
REMARK  3 active torsions:
REMARK  status: ('A' for Active; 'I' for Inactive)
REMARK    1  A    between atoms: O_2  and  C_3
REMARK    2  A    between atoms: C_6  and  C_7
REMARK    3  A    between atoms: C_8  and  C_9
REMARK                            x       y       z     vdW  Elec       q    Type
REMARK                         _______ _______ _______ _____ _____    ______ ____
ROOT
ATOM      9  C   UNL     1      -1.787   2.146  24.228  0.00  0.00    +0.000 A 
ATOM     10  C   UNL     1      -1.630   2.876  24.577  0.00  0.00    +0.001 A 
ATOM     11  C   UNL     1      -2.234   3.293  24.953  0.00  0.00    +0.017 A 
ATOM     12  C   UNL     1      -2.996   2.979  24.979  0.00  0.00    +0.078 A 
ATOM     13  N   UNL     1      -3.516   3.480  25.379  0.00  0.00    -0.178 NA
ATOM     14  C   UNL     1      -4.320   3.376  25.528  0.00  0.00    +0.265 C 
ATOM     15  O   UNL     1      -4.689   3.984  25.946  0.00  0.00    -0.271 OA
ATOM     16  C   UNL     1      -4.805   2.743  25.313  0.00  0.00    +0.172 C 
ATOM     17  C   UNL     1      -5.608   2.704  25.496  0.00  0.00    +0.121 C 
ATOM     18  N   UNL     1      -6.039   3.274  25.910  0.00  0.00    -0.131 NA
ATOM     19  C   UNL     1      -5.904   1.996  25.194  0.00  0.00    +0.043 C 
ATOM     20  C   UNL     1      -5.284   1.598  24.823  0.00  0.00    +0.096 C 
ATOM     21  N   UNL     1      -4.604   2.060  24.897  0.00  0.00    -0.268 N 
ATOM     22  C   UNL     1      -3.870   1.840  24.593  0.00  0.00    +0.251 C 
ATOM     23  O   UNL     1      -3.848   1.115  24.200  0.00  0.00    -0.270 OA
ATOM     24  C   UNL     1      -3.155   2.249  24.630  0.00  0.00    +0.069 A 
ATOM     25  C   UNL     1      -2.550   1.833  24.254  0.00  0.00    +0.006 A 
ENDROOT
BRANCH   9   8
ATOM      7  C   UNL     1      -0.578   1.389  24.297  0.00  0.00    +0.000 C 
ATOM      8  C   UNL     1      -1.182   1.729  23.851  0.00  0.00    +0.000 C 
BRANCH   7   6
ATOM      3  C   UNL     1       1.237   0.139  23.171  0.00  0.00    +0.139 A 
ATOM      4  C   UNL     1       0.491  -0.203  23.253  0.00  0.00    +0.037 A 
ATOM      5  C   UNL     1      -0.115   0.214  23.629  0.00  0.00    +0.003 A 
ATOM      6  C   UNL     1       0.027   0.972  23.922  0.00  0.00    +0.000 A 
ATOM     26  C   UNL     1       0.774   1.313  23.838  0.00  0.00    +0.003 A 
ATOM     27  C   UNL     1       1.379   0.896  23.463  0.00  0.00    +0.037 A 
BRANCH   3   2
ATOM      1  C   UNL     1       2.454   0.130  22.420  0.00  0.00    +0.252 C 
ATOM      2  O   UNL     1       1.842  -0.278  22.795  0.00  0.00    -0.471 OA
ENDBRANCH   3   2
ENDBRANCH   7   6
ENDBRANCH   9   8
TORSDOF 3
ENDMDL
MODEL 4
REMARK VINA RESULT:      -9.9      2.731      5.251
REMARK  Name = 
REMARK  3 active torsions:
REMARK  status: ('A' for Active; 'I' for Inactive)
REMARK    1  A    between atoms: O_2  and  C_3
REMARK    2  A    between atoms: C_6  and  C_7
REMARK    3  A    between atoms: C_8  and  C_9
REMARK                            x       y       z     vdW  Elec       q    Type
REMARK                         _______ _______ _______ _____ _____    ______ ____
ROOT
ATOM      9  C   UNL     1      -4.014   0.425  24.603  0.00  0.00    +0.000 A 
ATOM     10  C   UNL     1      -4.451  -0.213  24.317  0.00  0.00    +0.001 A 
ATOM     11  C   UNL     1      -4.097  -0.954  24.240  0.00  0.00    +0.017 A 
ATOM     12  C   UNL     1      -3.306  -1.056  24.448  0.00  0.00    +0.078 A 
ATOM     13  N   UNL     1      -3.061  -1.835  24.329  0.00  0.00    -0.178 NA
ATOM     14  C   UNL     1      -2.318  -2.168  24.466  0.00  0.00    +0.265 C 
ATOM     15  O   UNL     1      -2.248  -2.971  24.290  0.00  0.00    -0.271 OA
ATOM     16  C   UNL     1      -1.637  -1.804  24.757  0.00  0.00    +0.172 C 
ATOM     17  C   UNL     1      -0.924  -2.202  24.870  0.00  0.00    +0.121 C 
ATOM     18  N   UNL     1      -0.783  -3.000  24.715  0.00  0.00    -0.131 NA
ATOM     19  C   UNL     1      -0.375  -1.661  25.165  0.00  0.00    +0.043 C 
ATOM     20  C   UNL     1      -0.750  -0.929  25.234  0.00  0.00    +0.096 C 
ATOM     21  N   UNL     1      -1.531  -1.018  24.982  0.00  0.00    -0.268 N 
ATOM     22  C   UNL     1      -2.078  -0.402  24.972  0.00  0.00    +0.251 C 
ATOM     23  O   UNL     1      -1.799   0.329  25.234  0.00  0.00    -0.270 OA
ATOM     24  C   UNL     1      -2.868  -0.419  24.734  0.00  0.00    +0.069 A 
ATOM     25  C   UNL     1      -3.222   0.322  24.812  0.00  0.00    +0.006 A 
ENDROOT
BRANCH   9   8
ATOM      7  C   UNL     1      -4.761   1.364  25.379  0.00  0.00    +0.000 C 
ATOM      8  C   UNL     1      -4.368   1.167  24.681  0.00  0.00    +0.000 C 
BRANCH   7   6
ATOM      3  C   UNL     1      -5.822   3.588  25.614  0.00  0.00    +0.139 A 
ATOM      4  C   UNL     1      -6.276   2.904  25.694  0.00  0.00    +0.037 A 
ATOM      5  C   UNL     1      -5.923   2.162  25.615  0.00  0.00    +0.003 A 
ATOM      6  C   UNL     1      -5.115   2.105  25.457  0.00  0.00    +0.000 A 
ATOM     26  C   UNL     1      -4.661   2.790  25.377  0.00  0.00    +0.003 A 
ATOM     27  C   UNL     1      -5.015   3.531  25.456  0.00  0.00    +0.037 A 
BRANCH   3   2
ATOM      1  C   UNL     1      -5.799   5.000  25.394  0.00  0.00    +0.252 C 
ATOM      2  O   UNL     1      -6.176   4.329  25.692  0.00  0.00    -0.471 OA
ENDBRANCH   3   2
ENDBRANCH   7   6
ENDBRANCH   9   8
TORSDOF 3
ENDMDL
MODEL 5
REMARK VINA RESULT:      -9.1      2.940      4.614
REMARK  Name = 
REMARK  3 active torsions:
REMARK  status: ('A' for Active; 'I' for Inactive)
REMARK    1  A    between atoms: O_2  and  C_3
REMARK    2  A    between atoms: C_6  and  C_7
REMARK    3  A    between atoms: C_8  and  C_9
REMARK                            x       y       z     vdW  Elec       q    Type
REMARK                         _______ _______ _______ _____ _____    ______ ____
ROOT
ATOM      9  C   UNL     1      -1.493   2.120  24.877  0.00  0.00    +0.000 A 
ATOM     10  C   UNL     1      -0.935   2.706  25.033  0.00  0.00    +0.001 A 
ATOM     11  C   UNL     1      -0.158   2.617  24.773  0.00  0.00    +0.017 A 
ATOM     12  C   UNL     1       0.062   1.940  24.356  0.00  0.00    +0.078 A 
ATOM     13  N   UNL     1       0.860   1.959  24.148  0.00  0.00    -0.178 NA
ATOM     14  C   UNL     1       1.298   1.397  23.732  0.00  0.00    +0.265 C 
ATOM     15  O   UNL     1       2.093   1.580  23.611  0.00  0.00    -0.271 OA
ATOM     16  C   UNL     1       1.045   0.676  23.422  0.00  0.00    +0.172 C 
ATOM     17  C   UNL     1       1.541   0.159  23.014  0.00  0.00    +0.121 C 
ATOM     18  N   UNL     1       2.343   0.277  22.857  0.00  0.00    -0.131 NA
ATOM     19  C   UNL     1       1.095  -0.499  22.790  0.00  0.00    +0.043 C 
ATOM     20  C   UNL     1       0.324  -0.387  23.060  0.00  0.00    +0.096 C 
ATOM     21  N   UNL     1       0.293   0.339  23.451  0.00  0.00    -0.268 N 
ATOM     22  C   UNL     1      -0.393   0.640  23.797  0.00  0.00    +0.251 C 
ATOM     23  O   UNL     1      -1.064   0.166  23.731  0.00  0.00    -0.270 OA
ATOM     24  C   UNL     1      -0.495   1.352  24.200  0.00  0.00    +0.069 A 
ATOM     25  C   UNL     1      -1.273   1.442  24.460  0.00  0.00    +0.006 A 
ENDROOT
BRANCH   9   8
ATOM      7  C   UNL     1      -2.790   2.699  24.724  0.00  0.00    +0.000 C 
ATOM      8  C   UNL     1      -2.271   2.209  25.137  0.00  0.00    +0.000 C 
BRANCH   7   6
ATOM      3  C   UNL     1      -5.123   2.969  25.502  0.00  0.00    +0.139 A 
ATOM      4  C   UNL     1      -4.924   2.339  25.008  0.00  0.00    +0.037 A 
ATOM      5  C   UNL     1      -4.146   2.249  24.748  0.00  0.00    +0.003 A 
ATOM      6  C   UNL     1      -3.567   2.789  24.983  0.00  0.00    +0.000 A 
ATOM     26  C   UNL     1      -3.768   3.419  25.478  0.00  0.00    +0.003 A 
ATOM     27  C   UNL     1      -4.546   3.508  25.737  0.00  0.00    +0.037 A 
BRANCH   3   2
ATOM      1  C   UNL     1      -6.307   2.415  26.082  0.00  0.00    +0.252 C 
ATOM      2  O   UNL     1      -5.901   3.059  25.762  0.00  0.00    -0.471 OA
ENDBRANCH   3   2
ENDBRANCH   7   6
ENDBRANCH   9   8
TORSDOF 3
ENDMDL
MODEL 6
REMARK VINA RESULT:      -8.9      2.069      2.888
REMARK  Name = 
REMARK  3 active torsions:
REMARK  status: ('A' for Active; 'I' for Inactive)
REMARK    1  A    between atoms: O_2  and  C_3
REMARK    2  A    between atoms: C_6  and  C_7
REMARK    3  A    between atoms: C_8  and  C_9
REMARK                            x       y       z     vdW  Elec       q    Type
REMARK                         _______ _______ _______ _____ _____    ______ ____
ROOT
ATOM      9  C   UNL     1      -3.632   0.300  24.829  0.00  0.00    +0.000 A 
ATOM     10  C   UNL     1      -4.405   0.014  24.821  0.00  0.00    +0.001 A 
ATOM     11  C   UNL     1      -5.037   0.531  24.936  0.00  0.00    +0.017 A 
ATOM     12  C   UNL     1      -4.897   1.334  25.060  0.00  0.00    +0.078 A 
ATOM     13  N   UNL     1      -5.601   1.751  25.162  0.00  0.00    -0.178 NA
ATOM     14  C   UNL     1      -5.706   2.558  25.299  0.00  0.00    +0.265 C 
ATOM     15  O   UNL     1      -6.488   2.809  25.378  0.00  0.00    -0.271 OA
ATOM     16  C   UNL     1      -5.132   3.147  25.367  0.00  0.00    +0.172 C 
ATOM     17  C   UNL     1      -5.310   3.940  25.505  0.00  0.00    +0.121 C 
ATOM     18  N   UNL     1      -6.066   4.259  25.594  0.00  0.00    -0.131 NA
ATOM     19  C   UNL     1      -4.600   4.359  25.538  0.00  0.00    +0.043 C 
ATOM     20  C   UNL     1      -3.983   3.824  25.420  0.00  0.00    +0.096 C 
ATOM     21  N   UNL     1      -4.312   3.074  25.315  0.00  0.00    -0.268 N 
ATOM     22  C   UNL     1      -3.864   2.395  25.182  0.00  0.00    +0.251 C 
ATOM     23  O   UNL     1      -3.046   2.505  25.160  0.00  0.00    -0.270 OA
ATOM     24  C   UNL     1      -4.124   1.621  25.069  0.00  0.00    +0.069 A 
ATOM     25  C   UNL     1      -3.491   1.104  24.953  0.00  0.00    +0.006 A 
ENDROOT
BRANCH   9   8
ATOM      7  C   UNL     1      -2.705  -0.656  25.347  0.00  0.00    +0.000 C 
ATOM      8  C   UNL     1      -2.998  -0.216  24.714  0.00  0.00    +0.000 C 
BRANCH   7   6
ATOM      3  C   UNL     1      -0.806  -2.206  25.003  0.00  0.00    +0.139 A 
ATOM      4  C   UNL     1      -0.685  -1.482  25.380  0.00  0.00    +0.037 A 
ATOM      5  C   UNL     1      -1.318  -0.965  25.495  0.00  0.00    +0.003 A 
ATOM      6  C   UNL     1      -2.072  -1.172  25.232  0.00  0.00    +0.000 A 
ATOM     26  C   UNL     1      -2.193  -1.897  24.855  0.00  0.00    +0.003 A 
ATOM     27  C   UNL     1      -1.560  -2.413  24.741  0.00  0.00    +0.037 A 
BRANCH   3   2
ATOM      1  C   UNL     1       0.459  -2.724  25.419  0.00  0.00    +0.252 C 
ATOM      2  O   UNL     1      -0.173  -2.722  24.889  0.00  0.00    -0.471 OA
ENDBRANCH   3   2
ENDBRANCH   7   6
ENDBRANCH   9   8
TORSDOF 3
ENDMDL
MODEL 7
REMARK VINA RESULT:      -8.2      1.673      2.399
REMARK  Name = 
REMARK  3 active torsions:
REMARK  status: ('A' for Active; 'I' for Inactive)
REMARK    1  A    between atoms: O_2  and  C_3
REMARK    2  A    between atoms: C_6  and  C_7
REMARK    3  A    between atoms: C_8  and  C_9
REMARK                            x       y       z     vdW  Elec       q    Type
REMARK                         _______ _______ _______ _____ _____    ______ ____
ROOT
ATOM      9  C   UNL     1      -3.628   0.743  24.010  0.00  0.00    +0.000 A 
ATOM     10  C   UNL     1      -3.032   1.196  23.665  0.00  0.00    +0.001 A 
ATOM     11  C   UNL     1      -3.031   2.016  23.758  0.00  0.00    +0.017 A 
ATOM     12  C   UNL     1      -3.626   2.382  24.197  0.00  0.00    +0.078 A 
ATOM     13  N   UNL     1      -3.523   3.200  24.221  0.00  0.00    -0.178 NA
ATOM     14  C   UNL     1      -3.990   3.767  24.597  0.00  0.00    +0.265 C 
ATOM     15  O   UNL     1      -3.737   4.548  24.519  0.00  0.00    -0.271 OA
ATOM     16  C   UNL     1      -4.676   3.655  25.042  0.00  0.00    +0.172 C 
ATOM     17  C   UNL     1      -5.095   4.273  25.392  0.00  0.00    +0.121 C 
ATOM     18  N   UNL     1      -4.900   5.074  25.354  0.00  0.00    -0.131 NA
ATOM     19  C   UNL     1      -5.743   3.949  25.787  0.00  0.00    +0.043 C 
ATOM     20  C   UNL     1      -5.724   3.131  25.681  0.00  0.00    +0.096 C 
ATOM     21  N   UNL     1      -5.064   2.949  25.220  0.00  0.00    -0.268 N 
ATOM     22  C   UNL     1      -4.862   2.181  24.998  0.00  0.00    +0.251 C 
ATOM     23  O   UNL     1      -5.367   1.587  25.266  0.00  0.00    -0.270 OA
ATOM     24  C   UNL     1      -4.222   1.929  24.542  0.00  0.00    +0.069 A 
ATOM     25  C   UNL     1      -4.224   1.109  24.449  0.00  0.00    +0.006 A 
ENDROOT
BRANCH   9   8
ATOM      7  C   UNL     1      -3.658  -0.567  24.581  0.00  0.00    +0.000 C 
ATOM      8  C   UNL     1      -3.630  -0.078  23.918  0.00  0.00    +0.000 C 
BRANCH   7   6
ATOM      3  C   UNL     1      -3.664  -3.026  24.304  0.00  0.00    +0.139 A 
ATOM      4  C   UNL     1      -3.142  -2.673  24.836  0.00  0.00    +0.037 A 
ATOM      5  C   UNL     1      -3.139  -1.852  24.928  0.00  0.00    +0.003 A 
ATOM      6  C   UNL     1      -3.660  -1.386  24.489  0.00  0.00    +0.000 A 
ATOM     26  C   UNL     1      -4.182  -1.741  23.957  0.00  0.00    +0.003 A 
ATOM     27  C   UNL     1      -4.184  -2.561  23.865  0.00  0.00    +0.037 A 
BRANCH   3   2
ATOM      1  C   UNL     1      -3.280  -4.190  23.568  0.00  0.00    +0.252 C 
ATOM      2  O   UNL     1      -3.665  -3.846  24.212  0.00  0.00    -0.471 OA
ENDBRANCH   3   2
ENDBRANCH   7   6
ENDBRANCH   9   8
TORSDOF 3
ENDMDL
