MODEL 1
REMARK VINA RESULT:     -12.0      0.000      0.000
REMARK  Name = 
REMARK  8 active torsions:
REMARK  status: ('A' for Active; 'I' for Inactive)
REMARK    1  A    between atoms: C_5  and  C_6
REMARK    2  A    between atoms: C_6  and  C_7
REMARK    3  A    between atoms: C_10  and  C_11
REMARK    4  A    between atoms: C_11  and  N_12
REMARK    5  A    between atoms: C_20  and  C_21
REMARK    6  A    between atoms: C_21  and  N_22
REMARK    7  A    between atoms: C_23  and  C_25
REMARK    8  A    between atoms: C_25  and  C_26
REMARK                            x       y       z     vdW  Elec       q    Type
REMARK                         _______ _______ _______ _____ _____    ______ ____
ROOT
ATOM      1  O   UNL     1      -6.138   1.961  25.858  0.00  0.00    -0.220 OA
ATOM      2  C   UNL     1      -5.522   2.431  25.577  0.00  0.00    +0.181 C 
ATOM      3  C   UNL     1      -5.480   3.228  25.788  0.00  0.00    +0.038 C 
ATOM      4  C   UNL     1      -4.862   3.697  25.506  0.00  0.00    +0.033 C 
ATOM      5  C   UNL     1      -4.288   3.371  25.013  0.00  0.00    +0.121 C 
ATOM     19  O   UNL     1      -4.330   2.574  24.802  0.00  0.00    -0.354 OA
ATOM     20  C   UNL     1      -4.946   2.104  25.083  0.00  0.00    +0.167 C 
ENDROOT
BRANCH   5   6
ATOM      6  C   UNL     1      -3.671   3.840  24.732  0.00  0.00    +0.079 C 
BRANCH   6   7
ATOM      7  C   UNL     1      -2.916   3.768  25.058  0.00  0.00    +0.103 A 
ATOM      8  N   UNL     1      -2.691   4.003  25.815  0.00  0.00    -0.082 NA
ATOM      9  O   UNL     1      -1.890   3.829  25.909  0.00  0.00    -0.357 OA
ATOM     10  C   UNL     1      -1.620   3.486  25.208  0.00  0.00    +0.170 A 
ATOM     18  C   UNL     1      -2.254   3.449  24.682  0.00  0.00    +0.055 A 
BRANCH  10  11
ATOM     11  C   UNL     1      -0.851   3.227  25.060  0.00  0.00    +0.141 C 
BRANCH  11  12
ATOM     12  N   UNL     1      -0.686   2.419  25.037  0.00  0.00    -0.262 NA
ATOM     13  C   UNL     1      -0.532   2.049  24.316  0.00  0.00    +0.105 C 
ATOM     14  C   UNL     1      -0.367   1.241  24.294  0.00  0.00    +0.159 C 
ATOM     15  O   UNL     1      -0.355   0.802  24.993  0.00  0.00    -0.351 OA
ATOM     16  C   UNL     1      -0.509   1.173  25.715  0.00  0.00    +0.159 C 
ATOM     17  C   UNL     1      -0.674   1.980  25.737  0.00  0.00    +0.105 C 
ENDBRANCH  11  12
ENDBRANCH  10  11
ENDBRANCH   6   7
ENDBRANCH   5   6
BRANCH  20  21
ATOM     21  C   UNL     1      -4.988   1.309  24.872  0.00  0.00    +0.147 C 
BRANCH  21  22
ATOM     22  N   UNL     1      -4.296   0.882  24.730  0.00  0.00    -0.202 NA
ATOM     23  C   UNL     1      -4.339   0.117  24.424  0.00  0.00    +0.246 C 
ATOM     24  O   UNL     1      -5.072  -0.222  24.262  0.00  0.00    -0.273 OA
BRANCH  23  25
ATOM     25  C   UNL     1      -3.647  -0.308  24.282  0.00  0.00    +0.113 C 
BRANCH  25  26
ATOM     26  C   UNL     1      -3.590  -1.097  24.523  0.00  0.00    -0.013 A 
ATOM     27  C   UNL     1      -3.815  -1.702  24.009  0.00  0.00    -0.004 A 
ATOM     28  C   UNL     1      -3.759  -2.489  24.249  0.00  0.00    -0.000 A 
ATOM     29  C   UNL     1      -3.477  -2.671  25.004  0.00  0.00    -0.000 A 
ATOM     30  C   UNL     1      -3.252  -2.065  25.517  0.00  0.00    -0.000 A 
ATOM     31  C   UNL     1      -3.309  -1.278  25.276  0.00  0.00    -0.004 A 
ENDBRANCH  25  26
ENDBRANCH  23  25
ENDBRANCH  21  22
ENDBRANCH  20  21
TORSDOF 8
ENDMDL
MODEL 2
REMARK VINA RESULT:     -12.0      1.072      3.528
REMARK  Name = 
REMARK  8 active torsions:
REMARK  status: ('A' for Active; 'I' for Inactive)
REMARK    1  A    between atoms: C_5  and  C_6
REMARK    2  A    between atoms: C_6  and  C_7
REMARK    3  A    between atoms: C_10  and  C_11
REMARK    4  A    between atoms: C_11  and  N_12
REMARK    5  A    between atoms: C_20  and  C_21
REMARK    6  A    between atoms: C_21  and  N_22
REMARK    7  A    between atoms: C_23  and  C_25
REMARK    8  A    between atoms: C_25  and  C_26
REMARK                            x       y       z     vdW  Elec       q    Type
REMARK                         _______ _______ _______ _____ _____    ______ ____
ROOT
ATOM      1  O   UNL     1       0.149   0.852  24.323  0.00  0.00    -0.220 OA
ATOM      2  C   UNL     1      -0.286   1.449  24.690  0.00  0.00    +0.181 C 
ATOM      3  C   UNL     1      -0.051   2.237  24.613  0.00  0.00    +0.038 C 
ATOM      4  C   UNL     1      -0.487   2.834  24.980  0.00  0.00    +0.033 C 
ATOM      5  C   UNL     1      -1.156   2.645  25.422  0.00  0.00    +0.121 C 
ATOM     19  O   UNL     1      -1.390   1.857  25.499  0.00  0.00    -0.354 OA
ATOM     20  C   UNL     1      -0.956   1.259  25.133  0.00  0.00    +0.167 C 
ENDROOT
BRANCH   5   6
ATOM      6  C   UNL     1      -1.591   3.242  25.789  0.00  0.00    +0.079 C 
BRANCH   6   7
ATOM      7  C   UNL     1      -2.310   3.486  25.465  0.00  0.00    +0.103 A 
ATOM      8  N   UNL     1      -2.412   3.847  24.731  0.00  0.00    -0.082 NA
ATOM      9  O   UNL     1      -3.218   3.997  24.631  0.00  0.00    -0.357 OA
ATOM     10  C   UNL     1      -3.612   3.728  25.304  0.00  0.00    +0.170 A 
ATOM     18  C   UNL     1      -3.051   3.413  25.820  0.00  0.00    +0.055 A 
BRANCH  10  11
ATOM     11  C   UNL     1      -4.425   3.768  25.438  0.00  0.00    +0.141 C 
BRANCH  11  12
ATOM     12  N   UNL     1      -4.893   3.095  25.341  0.00  0.00    -0.262 NA
ATOM     13  C   UNL     1      -4.965   2.747  24.597  0.00  0.00    +0.105 C 
ATOM     14  C   UNL     1      -5.432   2.074  24.500  0.00  0.00    +0.159 C 
ATOM     15  O   UNL     1      -5.827   1.748  25.148  0.00  0.00    -0.351 OA
ATOM     16  C   UNL     1      -5.754   2.097  25.892  0.00  0.00    +0.159 C 
ATOM     17  C   UNL     1      -5.288   2.770  25.989  0.00  0.00    +0.105 C 
ENDBRANCH  11  12
ENDBRANCH  10  11
ENDBRANCH   6   7
ENDBRANCH   5   6
BRANCH  20  21
ATOM     21  C   UNL     1      -1.190   0.473  25.210  0.00  0.00    +0.147 C 
BRANCH  21  22
ATOM     22  N   UNL     1      -1.990   0.286  25.285  0.00  0.00    -0.202 NA
ATOM     23  C   UNL     1      -2.219  -0.489  25.450  0.00  0.00    +0.246 C 
ATOM     24  O   UNL     1      -1.648  -1.077  25.541  0.00  0.00    -0.273 OA
BRANCH  23  25
ATOM     25  C   UNL     1      -3.018  -0.675  25.526  0.00  0.00    +0.113 C 
BRANCH  25  26
ATOM     26  C   UNL     1      -3.360  -1.239  25.027  0.00  0.00    -0.013 A 
ATOM     27  C   UNL     1      -3.771  -0.997  24.353  0.00  0.00    -0.004 A 
ATOM     28  C   UNL     1      -4.112  -1.560  23.855  0.00  0.00    -0.000 A 
ATOM     29  C   UNL     1      -4.042  -2.364  24.031  0.00  0.00    -0.000 A 
ATOM     30  C   UNL     1      -3.630  -2.603  24.705  0.00  0.00    -0.000 A 
ATOM     31  C   UNL     1      -3.289  -2.041  25.203  0.00  0.00    -0.004 A 
ENDBRANCH  25  26
ENDBRANCH  23  25
ENDBRANCH  21  22
ENDBRANCH  20  21
TORSDOF 8
ENDMDL
MODEL 3
REMARK VINA RESULT:     -11.3      1.316      4.617
REMARK  Name = 
REMARK  8 active torsions:
REMARK  status: ('A' for Active; 'I' for Inactive)
REMARK    1  A    between atoms: C_5  and  C_6
REMARK    2  A    between atoms: C_6  and  C_7
REMARK    3  A    between atoms: C_10  and  C_11
REMARK    4  A    between atoms: C_11  and  N_12
REMARK    5  A    between atoms: C_20  and  C_21
REMARK    6  A    between atoms: C_21  and  N_22
REMARK    7  A    between atoms: C_23  and  C_25
REMARK    8  A    between atoms: C_25  and  C_26
REMARK                            x       y       z     vdW  Elec       q    Type
REMARK                         _______ _______ _______ _____ _____    ______ ____
ROOT
ATOM      1  O   UNL     1      -0.361   3.604  25.806  0.00  0.00    -0.220 OA
ATOM      2  C   UNL     1      -0.547   2.871  25.477  0.00  0.00    +0.181 C 
ATOM      3  C   UNL     1       0.049   2.317  25.340  0.00  0.00    +0.038 C 
ATOM      4  C   UNL     1      -0.139   1.584  25.010  0.00  0.00    +0.033 C 
ATOM      5  C   UNL     1      -0.920   1.405  24.818  0.00  0.00    +0.121 C 
ATOM     19  O   UNL     1      -1.516   1.959  24.954  0.00  0.00    -0.354 OA
ATOM     20  C   UNL     1      -1.330   2.692  25.284  0.00  0.00    +0.167 C 
ENDROOT
BRANCH   5   6
ATOM      6  C   UNL     1      -1.106   0.673  24.488  0.00  0.00    +0.079 C 
BRANCH   6   7
ATOM      7  C   UNL     1      -1.523   0.115  24.932  0.00  0.00    +0.103 A 
ATOM      8  N   UNL     1      -1.211  -0.359  25.530  0.00  0.00    -0.082 NA
ATOM      9  O   UNL     1      -1.820  -0.833  25.823  0.00  0.00    -0.357 OA
ATOM     10  C   UNL     1      -2.508  -0.652  25.405  0.00  0.00    +0.170 A 
ATOM     18  C   UNL     1      -2.324  -0.066  24.854  0.00  0.00    +0.055 A 
BRANCH  10  11
ATOM     11  C   UNL     1      -3.248  -0.997  25.518  0.00  0.00    +0.141 C 
BRANCH  11  12
ATOM     12  N   UNL     1      -3.507  -1.594  25.010  0.00  0.00    -0.262 NA
ATOM     13  C   UNL     1      -3.298  -2.378  25.155  0.00  0.00    +0.105 C 
ATOM     14  C   UNL     1      -3.557  -2.975  24.647  0.00  0.00    +0.159 C 
ATOM     15  O   UNL     1      -4.025  -2.787  23.993  0.00  0.00    -0.351 OA
ATOM     16  C   UNL     1      -4.233  -2.001  23.848  0.00  0.00    +0.159 C 
ATOM     17  C   UNL     1      -3.975  -1.406  24.356  0.00  0.00    +0.105 C 
ENDBRANCH  11  12
ENDBRANCH  10  11
ENDBRANCH   6   7
ENDBRANCH   5   6
BRANCH  20  21
ATOM     21  C   UNL     1      -1.925   3.246  25.420  0.00  0.00    +0.147 C 
BRANCH  21  22
ATOM     22  N   UNL     1      -2.616   3.228  24.971  0.00  0.00    -0.202 NA
ATOM     23  C   UNL     1      -3.290   3.624  25.235  0.00  0.00    +0.246 C 
ATOM     24  O   UNL     1      -3.272   4.038  25.948  0.00  0.00    -0.273 OA
BRANCH  23  25
ATOM     25  C   UNL     1      -3.981   3.606  24.786  0.00  0.00    +0.113 C 
BRANCH  25  26
ATOM     26  C   UNL     1      -4.595   3.095  24.994  0.00  0.00    -0.013 A 
ATOM     27  C   UNL     1      -4.779   2.453  24.509  0.00  0.00    -0.004 A 
ATOM     28  C   UNL     1      -5.392   1.942  24.716  0.00  0.00    -0.000 A 
ATOM     29  C   UNL     1      -5.822   2.073  25.409  0.00  0.00    -0.000 A 
ATOM     30  C   UNL     1      -5.638   2.715  25.892  0.00  0.00    -0.000 A 
ATOM     31  C   UNL     1      -5.025   3.226  25.685  0.00  0.00    -0.004 A 
ENDBRANCH  25  26
ENDBRANCH  23  25
ENDBRANCH  21  22
ENDBRANCH  20  21
TORSDOF 8
ENDMDL
