MODEL 1
REMARK VINA RESULT:     -11.4      0.000      0.000
REMARK  Name = 
REMARK  5 active torsions:
REMARK  status: ('A' for Active; 'I' for Inactive)
REMARK    1  A    between atoms: C_3  and  N_18
REMARK    2  A    between atoms: C_6  and  C_7
REMARK    3  A    between atoms: C_7  and  N_8
REMARK    4  A    between atoms: C_9  and  C_11
REMARK    5  A    between atoms: N_18  and  C_19
REMARK                            x       y       z     vdW  Elec       q    Type
REMARK                         _______ _______ _______ _____ _____    ______ ____
ROOT
ATOM      1  O   UNL     1      -4.960   1.038  25.418  0.00  0.00    -0.219 OA
ATOM      2  C   UNL     1      -4.297   0.932  24.939  0.00  0.00    +0.199 C 
ATOM      3  C   UNL     1      -4.103   0.246  24.525  0.00  0.00    +0.135 C 
ATOM      4  C   UNL     1      -3.398   0.384  24.120  0.00  0.00    +0.162 C 
ATOM      5  O   UNL     1      -3.156   1.155  24.284  0.00  0.00    -0.350 OA
ATOM      6  C   UNL     1      -3.711   1.494  24.790  0.00  0.00    +0.169 C 
ENDROOT
BRANCH   6   7
ATOM      7  C   UNL     1      -3.686   2.260  25.094  0.00  0.00    +0.148 C 
BRANCH   7   8
ATOM      8  N   UNL     1      -3.013   2.725  24.984  0.00  0.00    -0.199 NA
ATOM      9  C   UNL     1      -2.948   3.453  25.368  0.00  0.00    +0.265 C 
ATOM     10  O   UNL     1      -3.554   3.715  25.862  0.00  0.00    -0.268 OA
BRANCH   9  11
ATOM     11  C   UNL     1      -2.275   3.918  25.258  0.00  0.00    +0.055 A 
ATOM     12  C   UNL     1      -1.529   3.567  25.235  0.00  0.00    +0.007 A 
ATOM     13  C   UNL     1      -0.857   4.032  25.125  0.00  0.00    +0.030 A 
ATOM     14  C   UNL     1      -0.931   4.849  25.038  0.00  0.00    +0.140 A 
ATOM     15  F   UNL     1      -0.259   5.314  24.928  0.00  0.00    -0.204 F 
ATOM     16  C   UNL     1      -1.677   5.201  25.061  0.00  0.00    +0.030 A 
ATOM     17  C   UNL     1      -2.349   4.736  25.171  0.00  0.00    +0.007 A 
ENDBRANCH   9  11
ENDBRANCH   7   8
ENDBRANCH   6   7
BRANCH   3  18
ATOM     18  N   UNL     1      -4.538  -0.455  24.517  0.00  0.00    -0.216 NA
BRANCH  18  19
ATOM     19  C   UNL     1      -4.149  -1.182  24.512  0.00  0.00    +0.073 C 
ATOM     20  C   UNL     1      -4.100  -1.701  23.872  0.00  0.00    +0.017 C 
ATOM     21  C   UNL     1      -3.661  -2.358  24.112  0.00  0.00    +0.001 C 
ATOM     22  C   UNL     1      -3.439  -2.244  24.898  0.00  0.00    +0.001 C 
ATOM     23  C   UNL     1      -3.741  -1.518  25.145  0.00  0.00    +0.017 C 
ENDBRANCH  18  19
ENDBRANCH   3  18
TORSDOF 5
ENDMDL
MODEL 2
REMARK VINA RESULT:     -11.1      2.021      5.405
REMARK  Name = 
REMARK  5 active torsions:
REMARK  status: ('A' for Active; 'I' for Inactive)
REMARK    1  A    between atoms: C_3  and  N_18
REMARK    2  A    between atoms: C_6  and  C_7
REMARK    3  A    between atoms: C_7  and  N_8
REMARK    4  A    between atoms: C_9  and  C_11
REMARK    5  A    between atoms: N_18  and  C_19
REMARK                            x       y       z     vdW  Elec       q    Type
REMARK                         _______ _______ _______ _____ _____    ______ ____
ROOT
ATOM      1  O   UNL     1      -3.941   2.958  25.727  0.00  0.00    -0.219 OA
ATOM      2  C   UNL     1      -3.267   2.704  25.323  0.00  0.00    +0.199 C 
ATOM      3  C   UNL     1      -2.539   3.091  25.302  0.00  0.00    +0.135 C 
ATOM      4  C   UNL     1      -2.026   2.645  24.836  0.00  0.00    +0.162 C 
ATOM      5  O   UNL     1      -2.437   1.982  24.567  0.00  0.00    -0.350 OA
ATOM      6  C   UNL     1      -3.204   2.018  24.868  0.00  0.00    +0.169 C 
ENDROOT
BRANCH   6   7
ATOM      7  C   UNL     1      -3.802   1.466  24.738  0.00  0.00    +0.148 C 
BRANCH   7   8
ATOM      8  N   UNL     1      -3.623   0.661  24.718  0.00  0.00    -0.199 NA
ATOM      9  C   UNL     1      -4.230   0.105  24.660  0.00  0.00    +0.265 C 
ATOM     10  O   UNL     1      -5.015   0.354  24.622  0.00  0.00    -0.268 OA
BRANCH   9  11
ATOM     11  C   UNL     1      -4.051  -0.700  24.640  0.00  0.00    +0.055 A 
ATOM     12  C   UNL     1      -3.698  -1.061  25.293  0.00  0.00    +0.007 A 
ATOM     13  C   UNL     1      -3.519  -1.866  25.273  0.00  0.00    +0.030 A 
ATOM     14  C   UNL     1      -3.693  -2.310  24.600  0.00  0.00    +0.140 A 
ATOM     15  F   UNL     1      -3.514  -3.115  24.580  0.00  0.00    -0.204 F 
ATOM     16  C   UNL     1      -4.045  -1.950  23.947  0.00  0.00    +0.030 A 
ATOM     17  C   UNL     1      -4.224  -1.145  23.967  0.00  0.00    +0.007 A 
ENDBRANCH   9  11
ENDBRANCH   7   8
ENDBRANCH   6   7
BRANCH   3  18
ATOM     18  N   UNL     1      -2.357   3.801  25.682  0.00  0.00    -0.216 NA
BRANCH  18  19
ATOM     19  C   UNL     1      -1.785   4.304  25.365  0.00  0.00    +0.073 C 
ATOM     20  C   UNL     1      -0.979   4.140  25.299  0.00  0.00    +0.017 C 
ATOM     21  C   UNL     1      -0.615   4.794  24.951  0.00  0.00    +0.001 C 
ATOM     22  C   UNL     1      -1.196   5.361  24.802  0.00  0.00    +0.001 C 
ATOM     23  C   UNL     1      -1.919   5.057  25.058  0.00  0.00    +0.017 C 
ENDBRANCH  18  19
ENDBRANCH   3  18
TORSDOF 5
ENDMDL
MODEL 3
REMARK VINA RESULT:     -11.0      1.603      2.030
REMARK  Name = 
REMARK  5 active torsions:
REMARK  status: ('A' for Active; 'I' for Inactive)
REMARK    1  A    between atoms: C_3  and  N_18
REMARK    2  A    between atoms: C_6  and  C_7
REMARK    3  A    between atoms: C_7  and  N_8
REMARK    4  A    between atoms: C_9  and  C_11
REMARK    5  A    between atoms: N_18  and  C_19
REMARK                            x       y       z     vdW  Elec       q    Type
REMARK                         _______ _______ _______ _____ _____    ______ ____
ROOT
ATOM      1  O   UNL     1      -0.619  -0.394  24.960  0.00  0.00    -0.219 OA
ATOM      2  C   UNL     1      -1.400  -0.126  24.960  0.00  0.00    +0.199 C 
ATOM      3  C   UNL     1      -2.060  -0.556  24.715  0.00  0.00    +0.135 C 
ATOM      4  C   UNL     1      -2.724  -0.077  24.809  0.00  0.00    +0.162 C 
ATOM      5  O   UNL     1      -2.475   0.649  25.112  0.00  0.00    -0.350 OA
ATOM      6  C   UNL     1      -1.657   0.618  25.206  0.00  0.00    +0.169 C 
ENDROOT
BRANCH   6   7
ATOM      7  C   UNL     1      -1.179   1.225  25.494  0.00  0.00    +0.148 C 
BRANCH   7   8
ATOM      8  N   UNL     1      -1.363   2.011  25.323  0.00  0.00    -0.199 NA
ATOM      9  C   UNL     1      -0.944   2.622  25.688  0.00  0.00    +0.265 C 
ATOM     10  O   UNL     1      -0.343   2.445  26.225  0.00  0.00    -0.268 OA
BRANCH   9  11
ATOM     11  C   UNL     1      -1.128   3.407  25.517  0.00  0.00    +0.055 A 
ATOM     12  C   UNL     1      -0.610   3.864  25.066  0.00  0.00    +0.007 A 
ATOM     13  C   UNL     1      -0.793   4.649  24.894  0.00  0.00    +0.030 A 
ATOM     14  C   UNL     1      -1.495   4.979  25.175  0.00  0.00    +0.140 A 
ATOM     15  F   UNL     1      -1.678   5.765  25.004  0.00  0.00    -0.204 F 
ATOM     16  C   UNL     1      -2.014   4.524  25.627  0.00  0.00    +0.030 A 
ATOM     17  C   UNL     1      -1.830   3.738  25.798  0.00  0.00    +0.007 A 
ENDBRANCH   9  11
ENDBRANCH   7   8
ENDBRANCH   6   7
BRANCH   3  18
ATOM     18  N   UNL     1      -2.056  -1.329  24.426  0.00  0.00    -0.216 NA
BRANCH  18  19
ATOM     19  C   UNL     1      -2.730  -1.799  24.495  0.00  0.00    +0.073 C 
ATOM     20  C   UNL     1      -2.870  -2.363  25.081  0.00  0.00    +0.017 C 
ATOM     21  C   UNL     1      -3.610  -2.699  24.937  0.00  0.00    +0.001 C 
ATOM     22  C   UNL     1      -3.926  -2.344  24.264  0.00  0.00    +0.001 C 
ATOM     23  C   UNL     1      -3.382  -1.787  23.990  0.00  0.00    +0.017 C 
ENDBRANCH  18  19
ENDBRANCH   3  18
TORSDOF 5
ENDMDL
MODEL 4
REMARK VINA RESULT:     -10.7      2.661      5.727
REMARK  Name = 
REMARK  5 active torsions:
REMARK  status: ('A' for Active; 'I' for Inactive)
REMARK    1  A    between atoms: C_3  and  N_18
REMARK    2  A    between atoms: C_6  and  C_7
REMARK    3  A    between atoms: C_7  and  N_8
REMARK    4  A    between atoms: C_9  and  C_11
REMARK    5  A    between atoms: N_18  and  C_19
REMARK                            x       y       z     vdW  Elec       q    Type
REMARK                         _______ _______ _______ _____ _____    ______ ____
ROOT
ATOM      1  O   UNL     1      -0.181   1.743  26.318  0.00  0.00    -0.219 OA
ATOM      2  C   UNL     1      -0.621   1.832  25.626  0.00  0.00    +0.199 C 
ATOM      3  C   UNL     1      -0.787   2.545  25.246  0.00  0.00    +0.135 C 
ATOM      4  C   UNL     1      -1.240   2.378  24.578  0.00  0.00    +0.162 C 
ATOM      5  O   UNL     1      -1.355   1.561  24.545  0.00  0.00    -0.350 OA
ATOM      6  C   UNL     1      -0.972   1.224  25.193  0.00  0.00    +0.169 C 
ENDROOT
BRANCH   6   7
ATOM      7  C   UNL     1      -0.944   0.421  25.375  0.00  0.00    +0.148 C 
BRANCH   7   8
ATOM      8  N   UNL     1      -1.577  -0.069  25.175  0.00  0.00    -0.199 NA
ATOM      9  C   UNL     1      -1.547  -0.875  25.352  0.00  0.00    +0.265 C 
ATOM     10  O   UNL     1      -0.885  -1.190  25.729  0.00  0.00    -0.268 OA
BRANCH   9  11
ATOM     11  C   UNL     1      -2.180  -1.365  25.152  0.00  0.00    +0.055 A 
ATOM     12  C   UNL     1      -2.906  -1.279  25.534  0.00  0.00    +0.007 A 
ATOM     13  C   UNL     1      -3.539  -1.769  25.334  0.00  0.00    +0.030 A 
ATOM     14  C   UNL     1      -3.445  -2.345  24.752  0.00  0.00    +0.140 A 
ATOM     15  F   UNL     1      -4.078  -2.835  24.552  0.00  0.00    -0.204 F 
ATOM     16  C   UNL     1      -2.720  -2.432  24.369  0.00  0.00    +0.030 A 
ATOM     17  C   UNL     1      -2.087  -1.942  24.569  0.00  0.00    +0.007 A 
ENDBRANCH   9  11
ENDBRANCH   7   8
ENDBRANCH   6   7
BRANCH   3  18
ATOM     18  N   UNL     1      -0.542   3.294  25.491  0.00  0.00    -0.216 NA
BRANCH  18  19
ATOM     19  C   UNL     1      -1.027   3.949  25.362  0.00  0.00    +0.073 C 
ATOM     20  C   UNL     1      -0.852   4.595  24.879  0.00  0.00    +0.017 C 
ATOM     21  C   UNL     1      -1.489   5.118  24.913  0.00  0.00    +0.001 C 
ATOM     22  C   UNL     1      -2.057   4.795  25.417  0.00  0.00    +0.001 C 
ATOM     23  C   UNL     1      -1.772   4.073  25.694  0.00  0.00    +0.017 C 
ENDBRANCH  18  19
ENDBRANCH   3  18
TORSDOF 5
ENDMDL
MODEL 5
REMARK VINA RESULT:      -8.2     16.189     18.507
REMARK  Name = 
REMARK  5 active torsions:
REMARK  status: ('A' for Active; 'I' for Inactive)
REMARK    1  A    between atoms: C_3  and  N_18
REMARK    2  A    between atoms: C_6  and  C_7
REMARK    3  A    between atoms: C_7  and  N_8
REMARK    4  A    between atoms: C_9  and  C_11
REMARK    5  A    between atoms: N_18  and  C_19
REMARK                            x       y       z     vdW  Elec       q    Type
REMARK                         _______ _______ _______ _____ _____    ______ ____
ROOT
ATOM      1  O   UNL     1      14.097   7.721  18.457  0.00  0.00    -0.219 OA
ATOM      2  C   UNL     1      14.208   7.245  19.121  0.00  0.00    +0.199 C 
ATOM      3  C   UNL     1      14.920   6.902  19.358  0.00  0.00    +0.135 C 
ATOM      4  C   UNL     1      14.778   6.473  20.048  0.00  0.00    +0.162 C 
ATOM      5  O   UNL     1      13.979   6.551  20.238  0.00  0.00    -0.350 OA
ATOM      6  C   UNL     1      13.626   7.028  19.665  0.00  0.00    +0.169 C 
ENDROOT
BRANCH   6   7
ATOM      7  C   UNL     1      12.833   7.249  19.640  0.00  0.00    +0.148 C 
BRANCH   7   8
ATOM      8  N   UNL     1      12.460   7.524  20.323  0.00  0.00    -0.199 NA
ATOM      9  C   UNL     1      11.662   7.734  20.300  0.00  0.00    +0.265 C 
ATOM     10  O   UNL     1      11.238   7.670  19.596  0.00  0.00    -0.268 OA
BRANCH   9  11
ATOM     11  C   UNL     1      11.289   8.009  20.983  0.00  0.00    +0.055 A 
ATOM     12  C   UNL     1      10.926   7.477  21.498  0.00  0.00    +0.007 A 
ATOM     13  C   UNL     1      10.553   7.752  22.181  0.00  0.00    +0.030 A 
ATOM     14  C   UNL     1      10.542   8.559  22.348  0.00  0.00    +0.140 A 
ATOM     15  F   UNL     1      10.169   8.834  23.030  0.00  0.00    -0.204 F 
ATOM     16  C   UNL     1      10.905   9.092  21.833  0.00  0.00    +0.030 A 
ATOM     17  C   UNL     1      11.278   8.817  21.150  0.00  0.00    +0.007 A 
ENDBRANCH   9  11
ENDBRANCH   7   8
ENDBRANCH   6   7
BRANCH   3  18
ATOM     18  N   UNL     1      15.646   6.975  18.973  0.00  0.00    -0.216 NA
BRANCH  18  19
ATOM     19  C   UNL     1      16.338   6.726  19.346  0.00  0.00    +0.073 C 
ATOM     20  C   UNL     1      16.744   7.136  19.936  0.00  0.00    +0.017 C 
ATOM     21  C   UNL     1      17.403   6.687  20.149  0.00  0.00    +0.001 C 
ATOM     22  C   UNL     1      17.404   6.001  19.691  0.00  0.00    +0.001 C 
ATOM     23  C   UNL     1      16.745   6.026  19.195  0.00  0.00    +0.017 C 
ENDBRANCH  18  19
ENDBRANCH   3  18
TORSDOF 5
ENDMDL
