MODEL 1
REMARK VINA RESULT:     -12.3      0.000      0.000
REMARK  Name = 
REMARK  9 active torsions:
REMARK  status: ('A' for Active; 'I' for Inactive)
REMARK    1  A    between atoms: O_2  and  C_3
REMARK    2  A    between atoms: C_6  and  C_7
REMARK    3  A    between atoms: C_7  and  N_8
REMARK    4  A    between atoms: C_9  and  C_11
REMARK    5  A    between atoms: C_11  and  C_12
REMARK    6  A    between atoms: C_17  and  C_18
REMARK    7  A    between atoms: C_18  and  C_19
REMARK    8  A    between atoms: C_22  and  C_23
REMARK    9  A    between atoms: C_23  and  C_24
REMARK                            x       y       z     vdW  Elec       q    Type
REMARK                         _______ _______ _______ _____ _____    ______ ____
ROOT
ATOM     12  C   UNL     1      -0.306   1.363  24.787  0.00  0.00    +0.012 C 
ATOM     13  C   UNL     1       0.032   1.614  24.078  0.00  0.00    +0.019 C 
ATOM     14  C   UNL     1       0.214   1.063  23.491  0.00  0.00    +0.089 C 
ATOM     15  N   UNL     1       0.058   0.262  23.614  0.00  0.00    -0.218 NA
ATOM     16  C   UNL     1      -0.280   0.013  24.324  0.00  0.00    +0.089 C 
ATOM     17  C   UNL     1      -0.462   0.563  24.910  0.00  0.00    +0.024 C 
ENDROOT
BRANCH  12  11
ATOM     11  C   UNL     1      -0.488   1.915  25.374  0.00  0.00    +0.087 C 
BRANCH  11   9
ATOM      8  N   UNL     1      -1.654   2.738  25.322  0.00  0.00    -0.201 NA
ATOM      9  C   UNL     1      -0.851   2.628  25.173  0.00  0.00    +0.242 C 
ATOM     10  O   UNL     1      -0.409   3.230  24.821  0.00  0.00    -0.273 OA
BRANCH   8   7
ATOM      7  C   UNL     1      -2.017   3.451  25.120  0.00  0.00    +0.141 C 
BRANCH   7   6
ATOM      3  C   UNL     1      -4.469   3.702  25.351  0.00  0.00    +0.139 A 
ATOM      4  C   UNL     1      -4.148   3.405  24.651  0.00  0.00    +0.037 A 
ATOM      5  C   UNL     1      -3.332   3.322  24.574  0.00  0.00    +0.001 A 
ATOM      6  C   UNL     1      -2.835   3.535  25.197  0.00  0.00    -0.000 A 
ATOM     31  C   UNL     1      -3.154   3.832  25.897  0.00  0.00    +0.001 A 
ATOM     32  C   UNL     1      -3.972   3.915  25.974  0.00  0.00    +0.037 A 
BRANCH   3   2
ATOM      1  C   UNL     1      -5.748   3.141  25.655  0.00  0.00    +0.252 C 
ATOM      2  O   UNL     1      -5.286   3.786  25.428  0.00  0.00    -0.471 OA
ENDBRANCH   3   2
ENDBRANCH   7   6
ENDBRANCH   8   7
ENDBRANCH  11   9
ENDBRANCH  12  11
BRANCH  17  18
ATOM     18  C   UNL     1      -0.800   0.313  25.621  0.00  0.00    +0.051 C 
BRANCH  18  19
ATOM     19  C   UNL     1      -1.276  -0.361  25.636  0.00  0.00    +0.100 A 
ATOM     20  N   UNL     1      -1.011  -1.142  25.596  0.00  0.00    -0.082 NA
ATOM     21  O   UNL     1      -1.672  -1.636  25.629  0.00  0.00    -0.358 OA
ATOM     22  C   UNL     1      -2.343  -1.161  25.691  0.00  0.00    +0.154 A 
ATOM     30  C   UNL     1      -2.098  -0.373  25.695  0.00  0.00    +0.054 A 
BRANCH  22  23
ATOM     23  C   UNL     1      -3.122  -1.427  25.740  0.00  0.00    +0.067 C 
BRANCH  23  24
ATOM     24  C   UNL     1      -3.505  -1.709  25.065  0.00  0.00    +0.008 C 
ATOM     25  C   UNL     1      -3.477  -2.513  24.881  0.00  0.00    +0.000 C 
ATOM     26  C   UNL     1      -3.860  -2.795  24.207  0.00  0.00    +0.000 C 
ATOM     27  C   UNL     1      -4.270  -2.275  23.717  0.00  0.00    +0.000 C 
ATOM     28  C   UNL     1      -4.299  -1.470  23.901  0.00  0.00    +0.000 C 
ATOM     29  C   UNL     1      -3.916  -1.187  24.576  0.00  0.00    +0.000 C 
ENDBRANCH  23  24
ENDBRANCH  22  23
ENDBRANCH  18  19
ENDBRANCH  17  18
TORSDOF 9
ENDMDL
MODEL 2
REMARK VINA RESULT:     -11.9      1.585      5.540
REMARK  Name = 
REMARK  9 active torsions:
REMARK  status: ('A' for Active; 'I' for Inactive)
REMARK    1  A    between atoms: O_2  and  C_3
REMARK    2  A    between atoms: C_6  and  C_7
REMARK    3  A    between atoms: C_7  and  N_8
REMARK    4  A    between atoms: C_9  and  C_11
REMARK    5  A    between atoms: C_11  and  C_12
REMARK    6  A    between atoms: C_17  and  C_18
REMARK    7  A    between atoms: C_18  and  C_19
REMARK    8  A    between atoms: C_22  and  C_23
REMARK    9  A    between atoms: C_23  and  C_24
REMARK                            x       y       z     vdW  Elec       q    Type
REMARK                         _______ _______ _______ _____ _____    ______ ____
ROOT
ATOM     12  C   UNL     1      -4.999   2.200  25.050  0.00  0.00    +0.012 C 
ATOM     13  C   UNL     1      -5.610   1.920  25.528  0.00  0.00    +0.019 C 
ATOM     14  C   UNL     1      -5.976   2.426  26.069  0.00  0.00    +0.089 C 
ATOM     15  N   UNL     1      -5.730   3.211  26.130  0.00  0.00    -0.218 NA
ATOM     16  C   UNL     1      -5.119   3.490  25.651  0.00  0.00    +0.089 C 
ATOM     17  C   UNL     1      -4.754   2.985  25.111  0.00  0.00    +0.024 C 
ENDROOT
BRANCH  12  11
ATOM     11  C   UNL     1      -4.633   1.694  24.510  0.00  0.00    +0.087 C 
BRANCH  11   9
ATOM      8  N   UNL     1      -3.948   0.468  24.768  0.00  0.00    -0.201 NA
ATOM      9  C   UNL     1      -4.650   0.878  24.633  0.00  0.00    +0.242 C 
ATOM     10  O   UNL     1      -5.369   0.474  24.619  0.00  0.00    -0.273 OA
BRANCH   8   7
ATOM      7  C   UNL     1      -3.964  -0.348  24.891  0.00  0.00    +0.141 C 
BRANCH   7   6
ATOM      3  C   UNL     1      -1.845  -1.616  25.069  0.00  0.00    +0.139 A 
ATOM      4  C   UNL     1      -1.949  -0.921  25.503  0.00  0.00    +0.037 A 
ATOM      5  C   UNL     1      -2.654  -0.499  25.443  0.00  0.00    +0.001 A 
ATOM      6  C   UNL     1      -3.257  -0.771  24.950  0.00  0.00    -0.000 A 
ATOM     31  C   UNL     1      -3.155  -1.465  24.517  0.00  0.00    +0.001 A 
ATOM     32  C   UNL     1      -2.448  -1.888  24.576  0.00  0.00    +0.037 A 
BRANCH   3   2
ATOM      1  C   UNL     1      -0.418  -1.639  25.137  0.00  0.00    +0.252 C 
ATOM      2  O   UNL     1      -1.140  -2.038  25.128  0.00  0.00    -0.471 OA
ENDBRANCH   3   2
ENDBRANCH   7   6
ENDBRANCH   8   7
ENDBRANCH  11   9
ENDBRANCH  12  11
BRANCH  17  18
ATOM     18  C   UNL     1      -4.142   3.264  24.632  0.00  0.00    +0.051 C 
BRANCH  18  19
ATOM     19  C   UNL     1      -3.467   3.592  24.975  0.00  0.00    +0.100 A 
ATOM     20  N   UNL     1      -3.446   4.052  25.661  0.00  0.00    -0.082 NA
ATOM     21  O   UNL     1      -2.661   4.262  25.802  0.00  0.00    -0.358 OA
ATOM     22  C   UNL     1      -2.197   3.933  25.204  0.00  0.00    +0.154 A 
ATOM     30  C   UNL     1      -2.696   3.519  24.693  0.00  0.00    +0.054 A 
BRANCH  22  23
ATOM     23  C   UNL     1      -1.379   4.004  25.130  0.00  0.00    +0.067 C 
BRANCH  23  24
ATOM     24  C   UNL     1      -0.892   3.355  25.280  0.00  0.00    +0.008 C 
ATOM     25  C   UNL     1      -0.582   2.920  24.651  0.00  0.00    +0.000 C 
ATOM     26  C   UNL     1      -0.095   2.270  24.800  0.00  0.00    +0.000 C 
ATOM     27  C   UNL     1       0.081   2.056  25.576  0.00  0.00    +0.000 C 
ATOM     28  C   UNL     1      -0.230   2.491  26.205  0.00  0.00    +0.000 C 
ATOM     29  C   UNL     1      -0.716   3.141  26.057  0.00  0.00    +0.000 C 
ENDBRANCH  23  24
ENDBRANCH  22  23
ENDBRANCH  18  19
ENDBRANCH  17  18
TORSDOF 9
ENDMDL
MODEL 3
REMARK VINA RESULT:     -11.8      1.228      4.488
REMARK  Name = 
REMARK  9 active torsions:
REMARK  status: ('A' for Active; 'I' for Inactive)
REMARK    1  A    between atoms: O_2  and  C_3
REMARK    2  A    between atoms: C_6  and  C_7
REMARK    3  A    between atoms: C_7  and  N_8
REMARK    4  A    between atoms: C_9  and  C_11
REMARK    5  A    between atoms: C_11  and  C_12
REMARK    6  A    between atoms: C_17  and  C_18
REMARK    7  A    between atoms: C_18  and  C_19
REMARK    8  A    between atoms: C_22  and  C_23
REMARK    9  A    between atoms: C_23  and  C_24
REMARK                            x       y       z     vdW  Elec       q    Type
REMARK                         _______ _______ _______ _____ _____    ______ ____
ROOT
ATOM     12  C   UNL     1      -0.667   1.973  24.976  0.00  0.00    +0.012 C 
ATOM     13  C   UNL     1      -0.199   1.837  25.641  0.00  0.00    +0.019 C 
ATOM     14  C   UNL     1      -0.116   2.425  26.215  0.00  0.00    +0.089 C 
ATOM     15  N   UNL     1      -0.503   3.148  26.123  0.00  0.00    -0.218 NA
ATOM     16  C   UNL     1      -0.971   3.283  25.457  0.00  0.00    +0.089 C 
ATOM     17  C   UNL     1      -1.054   2.696  24.884  0.00  0.00    +0.024 C 
ENDROOT
BRANCH  12  11
ATOM     11  C   UNL     1      -0.750   1.385  24.403  0.00  0.00    +0.087 C 
BRANCH  11   9
ATOM      8  N   UNL     1      -1.299   0.094  24.673  0.00  0.00    -0.201 NA
ATOM      9  C   UNL     1      -0.646   0.592  24.607  0.00  0.00    +0.242 C 
ATOM     10  O   UNL     1       0.113   0.298  24.744  0.00  0.00    -0.273 OA
BRANCH   8   7
ATOM      7  C   UNL     1      -1.195  -0.698  24.877  0.00  0.00    +0.141 C 
BRANCH   7   6
ATOM      3  C   UNL     1      -3.091  -2.281  24.702  0.00  0.00    +0.139 A 
ATOM      4  C   UNL     1      -2.345  -2.497  24.421  0.00  0.00    +0.037 A 
ATOM      5  C   UNL     1      -1.714  -1.970  24.479  0.00  0.00    +0.001 A 
ATOM      6  C   UNL     1      -1.827  -1.226  24.818  0.00  0.00    -0.000 A 
ATOM     31  C   UNL     1      -2.572  -1.010  25.099  0.00  0.00    +0.001 A 
ATOM     32  C   UNL     1      -3.204  -1.538  25.041  0.00  0.00    +0.037 A 
BRANCH   3   2
ATOM      1  C   UNL     1      -4.244  -2.759  24.006  0.00  0.00    +0.252 C 
ATOM      2  O   UNL     1      -3.722  -2.808  24.643  0.00  0.00    -0.471 OA
ENDBRANCH   3   2
ENDBRANCH   7   6
ENDBRANCH   8   7
ENDBRANCH  11   9
ENDBRANCH  12  11
BRANCH  17  18
ATOM     18  C   UNL     1      -1.522   2.831  24.218  0.00  0.00    +0.051 C 
BRANCH  18  19
ATOM     19  C   UNL     1      -2.282   3.140  24.305  0.00  0.00    +0.100 A 
ATOM     20  N   UNL     1      -2.473   3.874  24.631  0.00  0.00    -0.082 NA
ATOM     21  O   UNL     1      -3.294   3.957  24.609  0.00  0.00    -0.358 OA
ATOM     22  C   UNL     1      -3.610   3.275  24.270  0.00  0.00    +0.154 A 
ATOM     30  C   UNL     1      -2.985   2.770  24.083  0.00  0.00    +0.054 A 
BRANCH  22  23
ATOM     23  C   UNL     1      -4.410   3.123  24.141  0.00  0.00    +0.067 C 
BRANCH  23  24
ATOM     24  C   UNL     1      -4.848   2.708  24.704  0.00  0.00    +0.008 C 
ATOM     25  C   UNL     1      -5.197   3.112  25.334  0.00  0.00    +0.000 C 
ATOM     26  C   UNL     1      -5.634   2.697  25.897  0.00  0.00    +0.000 C 
ATOM     27  C   UNL     1      -5.723   1.880  25.832  0.00  0.00    +0.000 C 
ATOM     28  C   UNL     1      -5.374   1.477  25.202  0.00  0.00    +0.000 C 
ATOM     29  C   UNL     1      -4.936   1.891  24.638  0.00  0.00    +0.000 C 
ENDBRANCH  23  24
ENDBRANCH  22  23
ENDBRANCH  18  19
ENDBRANCH  17  18
TORSDOF 9
ENDMDL
MODEL 4
REMARK VINA RESULT:     -11.7      1.482      3.859
REMARK  Name = 
REMARK  9 active torsions:
REMARK  status: ('A' for Active; 'I' for Inactive)
REMARK    1  A    between atoms: O_2  and  C_3
REMARK    2  A    between atoms: C_6  and  C_7
REMARK    3  A    between atoms: C_7  and  N_8
REMARK    4  A    between atoms: C_9  and  C_11
REMARK    5  A    between atoms: C_11  and  C_12
REMARK    6  A    between atoms: C_17  and  C_18
REMARK    7  A    between atoms: C_18  and  C_19
REMARK    8  A    between atoms: C_22  and  C_23
REMARK    9  A    between atoms: C_23  and  C_24
REMARK                            x       y       z     vdW  Elec       q    Type
REMARK                         _______ _______ _______ _____ _____    ______ ____
ROOT
ATOM     12  C   UNL     1      -2.245  -1.260  25.304  0.00  0.00    +0.012 C 
ATOM     13  C   UNL     1      -1.719  -1.744  24.893  0.00  0.00    +0.019 C 
ATOM     14  C   UNL     1      -2.006  -2.322  24.379  0.00  0.00    +0.089 C 
ATOM     15  N   UNL     1      -2.820  -2.415  24.276  0.00  0.00    -0.218 NA
ATOM     16  C   UNL     1      -3.345  -1.930  24.688  0.00  0.00    +0.089 C 
ATOM     17  C   UNL     1      -3.058  -1.353  25.202  0.00  0.00    +0.024 C 
ENDROOT
BRANCH  12  11
ATOM     11  C   UNL     1      -1.957  -0.682  25.819  0.00  0.00    +0.087 C 
BRANCH  11   9
ATOM      8  N   UNL     1      -1.243   0.517  25.511  0.00  0.00    -0.201 NA
ATOM      9  C   UNL     1      -1.248  -0.296  25.651  0.00  0.00    +0.242 C 
ATOM     10  O   UNL     1      -0.543  -0.724  25.623  0.00  0.00    -0.273 OA
BRANCH   8   7
ATOM      7  C   UNL     1      -0.534   0.902  25.343  0.00  0.00    +0.141 C 
BRANCH   7   6
ATOM      3  C   UNL     1      -0.535   3.320  24.810  0.00  0.00    +0.139 A 
ATOM      4  C   UNL     1      -0.528   2.763  24.202  0.00  0.00    +0.037 A 
ATOM      5  C   UNL     1      -0.527   1.958  24.379  0.00  0.00    +0.001 A 
ATOM      6  C   UNL     1      -0.534   1.709  25.165  0.00  0.00    -0.000 A 
ATOM     31  C   UNL     1      -0.542   2.265  25.775  0.00  0.00    +0.001 A 
ATOM     32  C   UNL     1      -0.542   3.071  25.597  0.00  0.00    +0.037 A 
BRANCH   3   2
ATOM      1  C   UNL     1      -0.955   4.653  25.109  0.00  0.00    +0.252 C 
ATOM      2  O   UNL     1      -0.535   4.125  24.633  0.00  0.00    -0.471 OA
ENDBRANCH   3   2
ENDBRANCH   7   6
ENDBRANCH   8   7
ENDBRANCH  11   9
ENDBRANCH  12  11
BRANCH  17  18
ATOM     18  C   UNL     1      -3.584  -0.868  25.614  0.00  0.00    +0.051 C 
BRANCH  18  19
ATOM     19  C   UNL     1      -4.088  -0.363  25.200  0.00  0.00    +0.100 A 
ATOM     20  N   UNL     1      -4.377  -0.484  24.436  0.00  0.00    -0.082 NA
ATOM     21  O   UNL     1      -4.860   0.156  24.242  0.00  0.00    -0.358 OA
ATOM     22  C   UNL     1      -4.870   0.673  24.885  0.00  0.00    +0.154 A 
ATOM     30  C   UNL     1      -4.393   0.352  25.477  0.00  0.00    +0.054 A 
BRANCH  22  23
ATOM     23  C   UNL     1      -5.283   1.385  24.929  0.00  0.00    +0.067 C 
BRANCH  23  24
ATOM     24  C   UNL     1      -4.885   2.101  24.830  0.00  0.00    +0.008 C 
ATOM     25  C   UNL     1      -4.784   2.608  25.474  0.00  0.00    +0.000 C 
ATOM     26  C   UNL     1      -4.385   3.324  25.375  0.00  0.00    +0.000 C 
ATOM     27  C   UNL     1      -4.088   3.532  24.635  0.00  0.00    +0.000 C 
ATOM     28  C   UNL     1      -4.188   3.025  23.992  0.00  0.00    +0.000 C 
ATOM     29  C   UNL     1      -4.587   2.309  24.090  0.00  0.00    +0.000 C 
ENDBRANCH  23  24
ENDBRANCH  22  23
ENDBRANCH  18  19
ENDBRANCH  17  18
TORSDOF 9
ENDMDL
MODEL 5
REMARK VINA RESULT:     -11.7      1.452      4.917
REMARK  Name = 
REMARK  9 active torsions:
REMARK  status: ('A' for Active; 'I' for Inactive)
REMARK    1  A    between atoms: O_2  and  C_3
REMARK    2  A    between atoms: C_6  and  C_7
REMARK    3  A    between atoms: C_7  and  N_8
REMARK    4  A    between atoms: C_9  and  C_11
REMARK    5  A    between atoms: C_11  and  C_12
REMARK    6  A    between atoms: C_17  and  C_18
REMARK    7  A    between atoms: C_18  and  C_19
REMARK    8  A    between atoms: C_22  and  C_23
REMARK    9  A    between atoms: C_23  and  C_24
REMARK                            x       y       z     vdW  Elec       q    Type
REMARK                         _______ _______ _______ _____ _____    ______ ____
ROOT
ATOM     12  C   UNL     1      -4.109   2.906  24.823  0.00  0.00    +0.012 C 
ATOM     13  C   UNL     1      -4.520   2.906  24.107  0.00  0.00    +0.019 C 
ATOM     14  C   UNL     1      -4.347   3.474  23.533  0.00  0.00    +0.089 C 
ATOM     15  N   UNL     1      -3.764   4.040  23.675  0.00  0.00    -0.218 NA
ATOM     16  C   UNL     1      -3.354   4.039  24.391  0.00  0.00    +0.089 C 
ATOM     17  C   UNL     1      -3.527   3.472  24.965  0.00  0.00    +0.024 C 
ENDROOT
BRANCH  12  11
ATOM     11  C   UNL     1      -4.282   2.338  25.397  0.00  0.00    +0.087 C 
BRANCH  11   9
ATOM      8  N   UNL     1      -4.244   0.933  25.145  0.00  0.00    -0.201 NA
ATOM      9  C   UNL     1      -4.666   1.640  25.184  0.00  0.00    +0.242 C 
ATOM     10  O   UNL     1      -5.473   1.649  25.010  0.00  0.00    -0.273 OA
BRANCH   8   7
ATOM      7  C   UNL     1      -4.628   0.234  24.932  0.00  0.00    +0.141 C 
BRANCH   7   6
ATOM      3  C   UNL     1      -3.339  -1.867  24.704  0.00  0.00    +0.139 A 
ATOM      4  C   UNL     1      -3.366  -1.476  25.430  0.00  0.00    +0.037 A 
ATOM      5  C   UNL     1      -3.795  -0.776  25.506  0.00  0.00    +0.001 A 
ATOM      6  C   UNL     1      -4.198  -0.467  24.856  0.00  0.00    -0.000 A 
ATOM     31  C   UNL     1      -4.172  -0.857  24.130  0.00  0.00    +0.001 A 
ATOM     32  C   UNL     1      -3.743  -1.558  24.054  0.00  0.00    +0.037 A 
BRANCH   3   2
ATOM      1  C   UNL     1      -2.097  -2.541  24.492  0.00  0.00    +0.252 C 
ATOM      2  O   UNL     1      -2.910  -2.567  24.628  0.00  0.00    -0.471 OA
ENDBRANCH   3   2
ENDBRANCH   7   6
ENDBRANCH   8   7
ENDBRANCH  11   9
ENDBRANCH  12  11
BRANCH  17  18
ATOM     18  C   UNL     1      -3.116   3.470  25.681  0.00  0.00    +0.051 C 
BRANCH  18  19
ATOM     19  C   UNL     1      -2.292   3.449  25.683  0.00  0.00    +0.100 A 
ATOM     20  N   UNL     1      -1.790   4.099  25.594  0.00  0.00    -0.082 NA
ATOM     21  O   UNL     1      -1.012   3.826  25.631  0.00  0.00    -0.358 OA
ATOM     22  C   UNL     1      -1.033   3.009  25.743  0.00  0.00    +0.154 A 
ATOM     30  C   UNL     1      -1.824   2.776  25.775  0.00  0.00    +0.054 A 
BRANCH  22  23
ATOM     23  C   UNL     1      -0.378   2.512  25.810  0.00  0.00    +0.067 C 
BRANCH  23  24
ATOM     24  C   UNL     1      -0.238   1.934  25.238  0.00  0.00    +0.008 C 
ATOM     25  C   UNL     1       0.217   2.115  24.573  0.00  0.00    +0.000 C 
ATOM     26  C   UNL     1       0.357   1.538  24.001  0.00  0.00    +0.000 C 
ATOM     27  C   UNL     1       0.044   0.781  24.092  0.00  0.00    +0.000 C 
ATOM     28  C   UNL     1      -0.410   0.600  24.757  0.00  0.00    +0.000 C 
ATOM     29  C   UNL     1      -0.551   1.177  25.330  0.00  0.00    +0.000 C 
ENDBRANCH  23  24
ENDBRANCH  22  23
ENDBRANCH  18  19
ENDBRANCH  17  18
TORSDOF 9
ENDMDL
MODEL 6
REMARK VINA RESULT:     -11.5      1.685      3.844
REMARK  Name = 
REMARK  9 active torsions:
REMARK  status: ('A' for Active; 'I' for Inactive)
REMARK    1  A    between atoms: O_2  and  C_3
REMARK    2  A    between atoms: C_6  and  C_7
REMARK    3  A    between atoms: C_7  and  N_8
REMARK    4  A    between atoms: C_9  and  C_11
REMARK    5  A    between atoms: C_11  and  C_12
REMARK    6  A    between atoms: C_17  and  C_18
REMARK    7  A    between atoms: C_18  and  C_19
REMARK    8  A    between atoms: C_22  and  C_23
REMARK    9  A    between atoms: C_23  and  C_24
REMARK                            x       y       z     vdW  Elec       q    Type
REMARK                         _______ _______ _______ _____ _____    ______ ____
ROOT
ATOM     12  C   UNL     1      -4.776   2.395  24.666  0.00  0.00    +0.012 C 
ATOM     13  C   UNL     1      -5.169   2.937  25.149  0.00  0.00    +0.019 C 
ATOM     14  C   UNL     1      -5.714   2.670  25.709  0.00  0.00    +0.089 C 
ATOM     15  N   UNL     1      -5.866   1.863  25.785  0.00  0.00    -0.218 NA
ATOM     16  C   UNL     1      -5.473   1.322  25.302  0.00  0.00    +0.089 C 
ATOM     17  C   UNL     1      -4.928   1.588  24.742  0.00  0.00    +0.024 C 
ENDROOT
BRANCH  12  11
ATOM     11  C   UNL     1      -4.231   2.662  24.106  0.00  0.00    +0.087 C 
BRANCH  11   9
ATOM      8  N   UNL     1      -2.896   2.984  24.498  0.00  0.00    -0.201 NA
ATOM      9  C   UNL     1      -3.664   3.222  24.316  0.00  0.00    +0.242 C 
ATOM     10  O   UNL     1      -3.866   4.022  24.345  0.00  0.00    -0.273 OA
BRANCH   8   7
ATOM      7  C   UNL     1      -2.329   3.545  24.708  0.00  0.00    +0.141 C 
BRANCH   7   6
ATOM      3  C   UNL     1      -0.196   2.823  25.738  0.00  0.00    +0.139 A 
ATOM      4  C   UNL     1      -0.813   3.096  26.213  0.00  0.00    +0.037 A 
ATOM      5  C   UNL     1      -1.523   3.337  25.871  0.00  0.00    +0.001 A 
ATOM      6  C   UNL     1      -1.618   3.304  25.052  0.00  0.00    -0.000 A 
ATOM     31  C   UNL     1      -1.002   3.031  24.575  0.00  0.00    +0.001 A 
ATOM     32  C   UNL     1      -0.291   2.790  24.919  0.00  0.00    +0.037 A 
BRANCH   3   2
ATOM      1  C   UNL     1       0.542   2.390  26.882  0.00  0.00    +0.252 C 
ATOM      2  O   UNL     1       0.514   2.582  26.080  0.00  0.00    -0.471 OA
ENDBRANCH   3   2
ENDBRANCH   7   6
ENDBRANCH   8   7
ENDBRANCH  11   9
ENDBRANCH  12  11
BRANCH  17  18
ATOM     18  C   UNL     1      -4.535   1.047  24.259  0.00  0.00    +0.051 C 
BRANCH  18  19
ATOM     19  C   UNL     1      -4.327   0.305  24.554  0.00  0.00    +0.100 A 
ATOM     20  N   UNL     1      -4.701  -0.409  24.377  0.00  0.00    -0.082 NA
ATOM     21  O   UNL     1      -4.314  -1.009  24.792  0.00  0.00    -0.358 OA
ATOM     22  C   UNL     1      -3.702  -0.665  25.226  0.00  0.00    +0.154 A 
ATOM     30  C   UNL     1      -3.711   0.147  25.079  0.00  0.00    +0.054 A 
BRANCH  22  23
ATOM     23  C   UNL     1      -3.175  -1.062  25.720  0.00  0.00    +0.067 C 
BRANCH  23  24
ATOM     24  C   UNL     1      -2.393  -1.177  25.482  0.00  0.00    +0.008 C 
ATOM     25  C   UNL     1      -1.802  -0.666  25.749  0.00  0.00    +0.000 C 
ATOM     26  C   UNL     1      -1.021  -0.780  25.512  0.00  0.00    +0.000 C 
ATOM     27  C   UNL     1      -0.829  -1.404  25.008  0.00  0.00    +0.000 C 
ATOM     28  C   UNL     1      -1.420  -1.915  24.741  0.00  0.00    +0.000 C 
ATOM     29  C   UNL     1      -2.203  -1.801  24.979  0.00  0.00    +0.000 C 
ENDBRANCH  23  24
ENDBRANCH  22  23
ENDBRANCH  18  19
ENDBRANCH  17  18
TORSDOF 9
ENDMDL
