MODEL 1
REMARK VINA RESULT:     -17.1      0.000      0.000
REMARK  Name = 
REMARK  2 active torsions:
REMARK  status: ('A' for Active; 'I' for Inactive)
REMARK    1  A    between atoms: C_2  and  C_26
REMARK    2  A    between atoms: C_12  and  C_13
REMARK                            x       y       z     vdW  Elec       q    Type
REMARK                         _______ _______ _______ _____ _____    ______ ____
ROOT
ATOM      1  O   UNL     1      -5.565   2.296  24.621  0.00  0.00    -0.268 OA
ATOM      2  C   UNL     1      -4.703   2.190  24.720  0.00  0.00    +0.268 C 
ATOM      3  N   UNL     1      -4.240   2.882  24.947  0.00  0.00    -0.274 N 
ATOM      4  C   UNL     1      -4.193   3.693  25.142  0.00  0.00    +0.096 C 
ATOM      5  C   UNL     1      -3.221   3.769  25.300  0.00  0.00    +0.043 C 
ATOM      6  C   UNL     1      -2.455   3.995  25.463  0.00  0.00    +0.011 C 
ATOM      7  C   UNL     1      -2.795   3.410  25.278  0.00  0.00    +0.058 C 
ATOM      8  C   UNL     1      -3.737   3.352  25.129  0.00  0.00    +0.100 C 
ATOM      9  C   UNL     1      -2.652   2.521  25.093  0.00  0.00    +0.041 A 
ATOM     10  C   UNL     1      -2.044   1.965  25.052  0.00  0.00    +0.013 A 
ATOM     11  C   UNL     1      -2.212   1.184  24.846  0.00  0.00    +0.006 A 
ATOM     12  C   UNL     1      -3.082   1.029  24.685  0.00  0.00    +0.062 A 
ATOM     22  C   UNL     1      -3.597   1.515  24.723  0.00  0.00    +0.261 A 
ATOM     23  O   UNL     1      -4.603   1.315  24.532  0.00  0.00    -0.267 OA
ATOM     24  N   UNL     1      -3.428   2.296  24.929  0.00  0.00    -0.299 N 
ATOM     25  C   UNL     1      -3.081   2.840  25.105  0.00  0.00    +0.110 C 
ENDROOT
BRANCH  12  13
ATOM     13  C   UNL     1      -3.438   0.386  24.484  0.00  0.00    +0.034 A 
ATOM     14  C   UNL     1      -3.805  -0.194  24.282  0.00  0.00    +0.007 A 
ATOM     15  C   UNL     1      -3.845  -0.942  24.223  0.00  0.00    +0.006 A 
ATOM     16  C   UNL     1      -3.122  -1.170  24.549  0.00  0.00    +0.029 A 
ATOM     17  S   UNL     1      -2.717  -0.488  24.775  0.00  0.00    -0.087 S 
ATOM     18  C   UNL     1      -2.926  -1.970  24.598  0.00  0.00    +0.006 A 
ATOM     19  C   UNL     1      -3.453  -2.542  24.322  0.00  0.00    +0.001 A 
ATOM     20  C   UNL     1      -4.175  -2.314  23.996  0.00  0.00    +0.000 A 
ATOM     21  C   UNL     1      -4.372  -1.515  23.947  0.00  0.00    +0.001 A 
ENDBRANCH  12  13
BRANCH   2  26
ATOM     26  C   UNL     1      -4.102   1.491  24.645  0.00  0.00    +0.154 A 
ATOM     27  C   UNL     1      -3.843   1.015  25.266  0.00  0.00    +0.123 A 
ATOM     28  N   UNL     1      -3.303   0.408  25.122  0.00  0.00    -0.239 NA
ATOM     29  C   UNL     1      -3.022   0.278  24.357  0.00  0.00    +0.120 A 
ATOM     30  C   UNL     1      -3.281   0.755  23.736  0.00  0.00    +0.120 A 
ATOM     31  N   UNL     1      -3.822   1.362  23.880  0.00  0.00    -0.236 NA
ENDBRANCH   2  26
TORSDOF 2
ENDMDL
MODEL 2
REMARK VINA RESULT:     -17.1      1.292      4.089
REMARK  Name = 
REMARK  2 active torsions:
REMARK  status: ('A' for Active; 'I' for Inactive)
REMARK    1  A    between atoms: C_2  and  C_26
REMARK    2  A    between atoms: C_12  and  C_13
REMARK                            x       y       z     vdW  Elec       q    Type
REMARK                         _______ _______ _______ _____ _____    ______ ____
ROOT
ATOM      1  O   UNL     1      -1.086  -0.445  25.047  0.00  0.00    -0.268 OA
ATOM      2  C   UNL     1      -1.927  -0.583  24.856  0.00  0.00    +0.268 C 
ATOM      3  N   UNL     1      -2.178  -1.400  24.729  0.00  0.00    -0.274 N 
ATOM      4  C   UNL     1      -2.003  -2.216  24.693  0.00  0.00    +0.096 C 
ATOM      5  C   UNL     1      -2.900  -2.567  24.471  0.00  0.00    +0.043 C 
ATOM      6  C   UNL     1      -3.561  -3.008  24.291  0.00  0.00    +0.011 C 
ATOM      7  C   UNL     1      -3.398  -2.332  24.386  0.00  0.00    +0.058 C 
ATOM      8  C   UNL     1      -2.526  -2.008  24.601  0.00  0.00    +0.100 C 
ATOM      9  C   UNL     1      -3.773  -1.492  24.381  0.00  0.00    +0.041 A 
ATOM     10  C   UNL     1      -4.496  -1.115  24.261  0.00  0.00    +0.013 A 
ATOM     11  C   UNL     1      -4.548  -0.294  24.324  0.00  0.00    +0.006 A 
ATOM     12  C   UNL     1      -3.769   0.106  24.525  0.00  0.00    +0.062 A 
ATOM     22  C   UNL     1      -3.153  -0.228  24.626  0.00  0.00    +0.261 A 
ATOM     23  O   UNL     1      -2.258   0.255  24.860  0.00  0.00    -0.267 OA
ATOM     24  N   UNL     1      -3.101  -1.049  24.564  0.00  0.00    -0.299 N 
ATOM     25  C   UNL     1      -3.282  -1.687  24.468  0.00  0.00    +0.110 C 
ENDROOT
BRANCH  12  13
ATOM     13  C   UNL     1      -3.607   0.844  24.626  0.00  0.00    +0.034 A 
ATOM     14  C   UNL     1      -3.413   1.527  24.715  0.00  0.00    +0.007 A 
ATOM     15  C   UNL     1      -3.611   2.241  24.842  0.00  0.00    +0.006 A 
ATOM     16  C   UNL     1      -4.432   2.175  24.900  0.00  0.00    +0.029 A 
ATOM     17  S   UNL     1      -4.631   1.382  24.794  0.00  0.00    -0.087 S 
ATOM     18  C   UNL     1      -4.890   2.846  25.042  0.00  0.00    +0.006 A 
ATOM     19  C   UNL     1      -4.528   3.583  25.126  0.00  0.00    +0.001 A 
ATOM     20  C   UNL     1      -3.708   3.649  25.068  0.00  0.00    +0.000 A 
ATOM     21  C   UNL     1      -3.250   2.979  24.926  0.00  0.00    +0.001 A 
ENDBRANCH  12  13
BRANCH   2  26
ATOM     26  C   UNL     1      -2.683  -0.062  24.741  0.00  0.00    +0.154 A 
ATOM     27  C   UNL     1      -3.248   0.094  25.321  0.00  0.00    +0.123 A 
ATOM     28  N   UNL     1      -3.899   0.570  25.145  0.00  0.00    -0.239 NA
ATOM     29  C   UNL     1      -3.983   0.890  24.389  0.00  0.00    +0.120 A 
ATOM     30  C   UNL     1      -3.418   0.734  23.810  0.00  0.00    +0.120 A 
ATOM     31  N   UNL     1      -2.767   0.257  23.986  0.00  0.00    -0.236 NA
ENDBRANCH   2  26
TORSDOF 2
ENDMDL
