MODEL 1
REMARK VINA RESULT:     -14.5      0.000      0.000
REMARK  Name = 
REMARK  3 active torsions:
REMARK  status: ('A' for Active; 'I' for Inactive)
REMARK    1  A    between atoms: C_3  and  C_4
REMARK    2  A    between atoms: N_10  and  S_12
REMARK    3  A    between atoms: S_12  and  C_15
REMARK                            x       y       z     vdW  Elec       q    Type
REMARK                         _______ _______ _______ _____ _____    ______ ____
ROOT
ATOM      4  C   UNL     1      -4.092   1.013  24.717  0.00  0.00    +0.012 A 
ATOM      5  C   UNL     1      -4.580   1.635  24.952  0.00  0.00    +0.041 A 
ATOM      6  C   UNL     1      -5.461   1.820  25.137  0.00  0.00    +0.056 C 
ATOM      7  C   UNL     1      -6.094   1.518  25.160  0.00  0.00    +0.011 C 
ATOM      8  C   UNL     1      -5.773   2.254  25.296  0.00  0.00    +0.041 C 
ATOM      9  C   UNL     1      -5.578   3.200  25.505  0.00  0.00    +0.098 C 
ATOM     10  N   UNL     1      -4.752   3.205  25.377  0.00  0.00    -0.155 NA
ATOM     11  C   UNL     1      -5.288   2.737  25.342  0.00  0.00    +0.102 C 
ATOM     22  C   UNL     1      -4.850   2.070  25.105  0.00  0.00    +0.110 C 
ATOM     23  N   UNL     1      -4.258   2.382  25.090  0.00  0.00    -0.299 N 
ATOM     24  C   UNL     1      -3.448   2.507  24.995  0.00  0.00    +0.261 A 
ATOM     25  O   UNL     1      -3.126   3.254  25.133  0.00  0.00    -0.267 OA
ATOM     26  C   UNL     1      -2.960   1.885  24.760  0.00  0.00    +0.061 A 
ATOM     27  C   UNL     1      -3.282   1.138  24.622  0.00  0.00    +0.006 A 
ENDROOT
BRANCH   4   3
ATOM      1  C   UNL     1      -4.250  -1.100  24.190  0.00  0.00    +0.031 C 
ATOM      2  C   UNL     1      -3.928  -0.352  24.329  0.00  0.00    -0.026 C 
ATOM      3  C   UNL     1      -4.414   0.266  24.579  0.00  0.00    -0.003 C 
ENDBRANCH   4   3
BRANCH  10  12
ATOM     12  S   UNL     1      -3.982   3.498  25.330  0.00  0.00    +0.063 S 
ATOM     13  O   UNL     1      -3.862   3.310  26.125  0.00  0.00    -0.153 OA
ATOM     14  O   UNL     1      -4.102   3.685  24.535  0.00  0.00    -0.153 OA
BRANCH  12  15
ATOM     15  C   UNL     1      -3.212   3.791  25.283  0.00  0.00    +0.122 A 
ATOM     16  C   UNL     1      -2.723   3.774  25.947  0.00  0.00    +0.021 A 
ATOM     17  C   UNL     1      -1.953   4.067  25.900  0.00  0.00    +0.013 A 
ATOM     18  C   UNL     1      -1.673   4.377  25.189  0.00  0.00    +0.058 A 
ATOM     19 CL   UNL     1      -0.903   4.670  25.142  0.00  0.00    -0.082 Cl
ATOM     20  C   UNL     1      -2.162   4.394  24.525  0.00  0.00    +0.013 A 
ATOM     21  C   UNL     1      -2.932   4.101  24.572  0.00  0.00    +0.021 A 
ENDBRANCH  12  15
ENDBRANCH  10  12
TORSDOF 3
ENDMDL
MODEL 2
REMARK VINA RESULT:     -14.0      2.082      3.699
REMARK  Name = 
REMARK  3 active torsions:
REMARK  status: ('A' for Active; 'I' for Inactive)
REMARK    1  A    between atoms: C_3  and  C_4
REMARK    2  A    between atoms: N_10  and  S_12
REMARK    3  A    between atoms: S_12  and  C_15
REMARK                            x       y       z     vdW  Elec       q    Type
REMARK                         _______ _______ _______ _____ _____    ______ ____
ROOT
ATOM      4  C   UNL     1      -2.577   2.276  24.936  0.00  0.00    +0.012 A 
ATOM      5  C   UNL     1      -3.397   2.197  24.893  0.00  0.00    +0.041 A 
ATOM      6  C   UNL     1      -4.163   2.704  24.869  0.00  0.00    +0.056 C 
ATOM      7  C   UNL     1      -4.382   3.371  24.877  0.00  0.00    +0.011 C 
ATOM      8  C   UNL     1      -4.715   2.628  24.839  0.00  0.00    +0.041 C 
ATOM      9  C   UNL     1      -5.296   1.831  24.788  0.00  0.00    +0.098 C 
ATOM     10  N   UNL     1      -4.714   1.232  24.800  0.00  0.00    -0.155 NA
ATOM     11  C   UNL     1      -4.739   1.944  24.819  0.00  0.00    +0.102 C 
ATOM     22  C   UNL     1      -3.920   2.090  24.864  0.00  0.00    +0.110 C 
ATOM     23  N   UNL     1      -3.738   1.446  24.854  0.00  0.00    -0.299 N 
ATOM     24  C   UNL     1      -3.258   0.775  24.859  0.00  0.00    +0.261 A 
ATOM     25  O   UNL     1      -3.599   0.024  24.821  0.00  0.00    -0.267 OA
ATOM     26  C   UNL     1      -2.438   0.854  24.902  0.00  0.00    +0.061 A 
ATOM     27  C   UNL     1      -2.098   1.605  24.941  0.00  0.00    +0.006 A 
ENDROOT
BRANCH   4   3
ATOM      1  C   UNL     1      -1.081   3.856  25.107  0.00  0.00    +0.031 C 
ATOM      2  C   UNL     1      -1.421   3.105  25.069  0.00  0.00    -0.026 C 
ATOM      3  C   UNL     1      -2.237   3.027  24.974  0.00  0.00    -0.003 C 
ENDBRANCH   4   3
BRANCH  10  12
ATOM     12  S   UNL     1      -4.391   0.472  24.794  0.00  0.00    +0.063 S 
ATOM     13  O   UNL     1      -4.467   0.434  25.615  0.00  0.00    -0.153 OA
ATOM     14  O   UNL     1      -4.316   0.511  23.973  0.00  0.00    -0.153 OA
BRANCH  12  15
ATOM     15  C   UNL     1      -4.068  -0.287  24.789  0.00  0.00    +0.122 A 
ATOM     16  C   UNL     1      -3.884  -0.662  25.500  0.00  0.00    +0.021 A 
ATOM     17  C   UNL     1      -3.561  -1.421  25.494  0.00  0.00    +0.013 A 
ATOM     18  C   UNL     1      -3.422  -1.805  24.777  0.00  0.00    +0.058 A 
ATOM     19 CL   UNL     1      -3.099  -2.564  24.772  0.00  0.00    -0.082 Cl
ATOM     20  C   UNL     1      -3.607  -1.430  24.066  0.00  0.00    +0.013 A 
ATOM     21  C   UNL     1      -3.930  -0.671  24.072  0.00  0.00    +0.021 A 
ENDBRANCH  12  15
ENDBRANCH  10  12
TORSDOF 3
ENDMDL
MODEL 3
REMARK VINA RESULT:     -13.8      2.445      4.056
REMARK  Name = 
REMARK  3 active torsions:
REMARK  status: ('A' for Active; 'I' for Inactive)
REMARK    1  A    between atoms: C_3  and  C_4
REMARK    2  A    between atoms: N_10  and  S_12
REMARK    3  A    between atoms: S_12  and  C_15
REMARK                            x       y       z     vdW  Elec       q    Type
REMARK                         _______ _______ _______ _____ _____    ______ ____
ROOT
ATOM      4  C   UNL     1      -4.722   1.989  24.898  0.00  0.00    +0.012 A 
ATOM      5  C   UNL     1      -4.102   1.916  24.360  0.00  0.00    +0.041 A 
ATOM      6  C   UNL     1      -3.607   2.418  23.770  0.00  0.00    +0.056 C 
ATOM      7  C   UNL     1      -3.541   3.072  23.523  0.00  0.00    +0.011 C 
ATOM      8  C   UNL     1      -3.186   2.347  23.410  0.00  0.00    +0.041 C 
ATOM      9  C   UNL     1      -2.639   1.571  23.138  0.00  0.00    +0.098 C 
ATOM     10  N   UNL     1      -2.984   0.981  23.619  0.00  0.00    -0.155 NA
ATOM     11  C   UNL     1      -3.069   1.677  23.496  0.00  0.00    +0.102 C 
ATOM     22  C   UNL     1      -3.698   1.815  24.024  0.00  0.00    +0.110 C 
ATOM     23  N   UNL     1      -3.740   1.184  24.243  0.00  0.00    -0.299 N 
ATOM     24  C   UNL     1      -3.999   0.524  24.665  0.00  0.00    +0.261 A 
ATOM     25  O   UNL     1      -3.637  -0.208  24.548  0.00  0.00    -0.267 OA
ATOM     26  C   UNL     1      -4.619   0.596  25.204  0.00  0.00    +0.061 A 
ATOM     27  C   UNL     1      -4.981   1.329  25.320  0.00  0.00    +0.006 A 
ENDROOT
BRANCH   4   3
ATOM      1  C   UNL     1      -5.990   3.552  25.744  0.00  0.00    +0.031 C 
ATOM      2  C   UNL     1      -5.628   2.819  25.627  0.00  0.00    -0.026 C 
ATOM      3  C   UNL     1      -5.084   2.721  25.015  0.00  0.00    -0.003 C 
ENDBRANCH   4   3
BRANCH  10  12
ATOM     12  S   UNL     1      -3.113   0.236  23.949  0.00  0.00    +0.063 S 
ATOM     13  O   UNL     1      -3.660   0.067  23.354  0.00  0.00    -0.153 OA
ATOM     14  O   UNL     1      -2.566   0.404  24.544  0.00  0.00    -0.153 OA
BRANCH  12  15
ATOM     15  C   UNL     1      -3.243  -0.510  24.279  0.00  0.00    +0.122 A 
ATOM     16  C   UNL     1      -3.785  -1.026  23.932  0.00  0.00    +0.021 A 
ATOM     17  C   UNL     1      -3.914  -1.771  24.263  0.00  0.00    +0.013 A 
ATOM     18  C   UNL     1      -3.502  -1.999  24.939  0.00  0.00    +0.058 A 
ATOM     19 CL   UNL     1      -3.631  -2.744  25.269  0.00  0.00    -0.082 Cl
ATOM     20  C   UNL     1      -2.960  -1.483  25.286  0.00  0.00    +0.013 A 
ATOM     21  C   UNL     1      -2.830  -0.738  24.956  0.00  0.00    +0.021 A 
ENDBRANCH  12  15
ENDBRANCH  10  12
TORSDOF 3
ENDMDL
MODEL 4
REMARK VINA RESULT:     -13.2      2.221      3.527
REMARK  Name = 
REMARK  3 active torsions:
REMARK  status: ('A' for Active; 'I' for Inactive)
REMARK    1  A    between atoms: C_3  and  C_4
REMARK    2  A    between atoms: N_10  and  S_12
REMARK    3  A    between atoms: S_12  and  C_15
REMARK                            x       y       z     vdW  Elec       q    Type
REMARK                         _______ _______ _______ _____ _____    ______ ____
ROOT
ATOM      4  C   UNL     1      -1.967  -0.947  24.990  0.00  0.00    +0.012 A 
ATOM      5  C   UNL     1      -2.728  -1.109  24.719  0.00  0.00    +0.041 A 
ATOM      6  C   UNL     1      -3.266  -1.816  24.484  0.00  0.00    +0.056 C 
ATOM      7  C   UNL     1      -3.265  -2.516  24.435  0.00  0.00    +0.011 C 
ATOM      8  C   UNL     1      -3.786  -1.904  24.301  0.00  0.00    +0.041 C 
ATOM      9  C   UNL     1      -4.546  -1.312  24.083  0.00  0.00    +0.098 C 
ATOM     10  N   UNL     1      -4.201  -0.571  24.254  0.00  0.00    -0.155 NA
ATOM     11  C   UNL     1      -4.011  -1.258  24.270  0.00  0.00    +0.102 C 
ATOM     22  C   UNL     1      -3.231  -1.159  24.543  0.00  0.00    +0.110 C 
ATOM     23  N   UNL     1      -3.258  -0.492  24.582  0.00  0.00    -0.299 N 
ATOM     24  C   UNL     1      -3.026   0.288  24.716  0.00  0.00    +0.261 A 
ATOM     25  O   UNL     1      -3.556   0.906  24.580  0.00  0.00    -0.267 OA
ATOM     26  C   UNL     1      -2.265   0.451  24.988  0.00  0.00    +0.061 A 
ATOM     27  C   UNL     1      -1.735  -0.167  25.125  0.00  0.00    +0.006 A 
ENDROOT
BRANCH   4   3
ATOM      1  C   UNL     1      -0.120  -2.017  25.448  0.00  0.00    +0.031 C 
ATOM      2  C   UNL     1      -0.650  -1.400  25.311  0.00  0.00    -0.026 C 
ATOM      3  C   UNL     1      -1.437  -1.564  25.127  0.00  0.00    -0.003 C 
ENDBRANCH   4   3
BRANCH  10  12
ATOM     12  S   UNL     1      -4.136   0.247  24.334  0.00  0.00    +0.063 S 
ATOM     13  O   UNL     1      -3.838   0.299  23.567  0.00  0.00    -0.153 OA
ATOM     14  O   UNL     1      -4.434   0.195  25.102  0.00  0.00    -0.153 OA
BRANCH  12  15
ATOM     15  C   UNL     1      -4.071   1.066  24.415  0.00  0.00    +0.122 A 
ATOM     16  C   UNL     1      -3.750   1.517  23.803  0.00  0.00    +0.021 A 
ATOM     17  C   UNL     1      -3.686   2.335  23.884  0.00  0.00    +0.013 A 
ATOM     18  C   UNL     1      -3.942   2.703  24.576  0.00  0.00    +0.058 A 
ATOM     19 CL   UNL     1      -3.877   3.522  24.657  0.00  0.00    -0.082 Cl
ATOM     20  C   UNL     1      -4.262   2.252  25.188  0.00  0.00    +0.013 A 
ATOM     21  C   UNL     1      -4.327   1.434  25.108  0.00  0.00    +0.021 A 
ENDBRANCH  12  15
ENDBRANCH  10  12
TORSDOF 3
ENDMDL
MODEL 5
REMARK VINA RESULT:     -13.0      2.163      3.448
REMARK  Name = 
REMARK  3 active torsions:
REMARK  status: ('A' for Active; 'I' for Inactive)
REMARK    1  A    between atoms: C_3  and  C_4
REMARK    2  A    between atoms: N_10  and  S_12
REMARK    3  A    between atoms: S_12  and  C_15
REMARK                            x       y       z     vdW  Elec       q    Type
REMARK                         _______ _______ _______ _____ _____    ______ ____
ROOT
ATOM      4  C   UNL     1      -3.043  -1.119  24.510  0.00  0.00    +0.012 A 
ATOM      5  C   UNL     1      -2.348  -0.716  24.696  0.00  0.00    +0.041 A 
ATOM      6  C   UNL     1      -1.493  -0.869  24.997  0.00  0.00    +0.056 C 
ATOM      7  C   UNL     1      -1.065  -1.388  25.197  0.00  0.00    +0.011 C 
ATOM      8  C   UNL     1      -1.033  -0.578  25.117  0.00  0.00    +0.041 C 
ATOM      9  C   UNL     1      -0.801   0.382  25.087  0.00  0.00    +0.098 C 
ATOM     10  N   UNL     1      -1.526   0.693  24.811  0.00  0.00    -0.155 NA
ATOM     11  C   UNL     1      -1.254   0.055  24.973  0.00  0.00    +0.102 C 
ATOM     22  C   UNL     1      -1.924  -0.408  24.802  0.00  0.00    +0.110 C 
ATOM     23  N   UNL     1      -2.312   0.105  24.616  0.00  0.00    -0.299 N 
ATOM     24  C   UNL     1      -2.972   0.522  24.350  0.00  0.00    +0.261 A 
ATOM     25  O   UNL     1      -2.937   1.343  24.271  0.00  0.00    -0.267 OA
ATOM     26  C   UNL     1      -3.668   0.120  24.164  0.00  0.00    +0.061 A 
ATOM     27  C   UNL     1      -3.703  -0.701  24.244  0.00  0.00    +0.006 A 
ENDROOT
BRANCH   4   3
ATOM      1  C   UNL     1      -3.782  -3.170  24.413  0.00  0.00    +0.031 C 
ATOM      2  C   UNL     1      -3.746  -2.350  24.334  0.00  0.00    -0.026 C 
ATOM      3  C   UNL     1      -3.078  -1.939  24.589  0.00  0.00    -0.003 C 
ENDBRANCH   4   3
BRANCH  10  12
ATOM     12  S   UNL     1      -2.079   1.254  24.565  0.00  0.00    +0.063 S 
ATOM     13  O   UNL     1      -1.820   1.168  23.787  0.00  0.00    -0.153 OA
ATOM     14  O   UNL     1      -2.339   1.340  25.344  0.00  0.00    -0.153 OA
BRANCH  12  15
ATOM     15  C   UNL     1      -2.632   1.815  24.319  0.00  0.00    +0.122 A 
ATOM     16  C   UNL     1      -2.692   2.012  23.521  0.00  0.00    +0.021 A 
ATOM     17  C   UNL     1      -3.246   2.573  23.275  0.00  0.00    +0.013 A 
ATOM     18  C   UNL     1      -3.738   2.936  23.828  0.00  0.00    +0.058 A 
ATOM     19 CL   UNL     1      -4.291   3.497  23.581  0.00  0.00    -0.082 Cl
ATOM     20  C   UNL     1      -3.678   2.740  24.626  0.00  0.00    +0.013 A 
ATOM     21  C   UNL     1      -3.124   2.179  24.872  0.00  0.00    +0.021 A 
ENDBRANCH  12  15
ENDBRANCH  10  12
TORSDOF 3
ENDMDL
