MODEL 1
REMARK VINA RESULT:     -12.0      0.000      0.000
REMARK  Name = 
REMARK  6 active torsions:
REMARK  status: ('A' for Active; 'I' for Inactive)
REMARK    1  A    between atoms: O_2  and  C_3
REMARK    2  A    between atoms: C_6  and  C_7
REMARK    3  A    between atoms: C_7  and  N_8
REMARK    4  A    between atoms: C_13  and  O_15
REMARK    5  A    between atoms: O_15  and  C_16
REMARK    6  A    between atoms: C_19  and  C_22
REMARK                            x       y       z     vdW  Elec       q    Type
REMARK                         _______ _______ _______ _____ _____    ______ ____
ROOT
ATOM      8  N   UNL     1      -3.768   2.696  24.633  0.00  0.00    -0.264 NA
ATOM      9  C   UNL     1      -4.360   2.903  25.169  0.00  0.00    +0.105 C 
ATOM     10  C   UNL     1      -4.990   2.447  25.442  0.00  0.00    +0.160 C 
ATOM     11  O   UNL     1      -5.185   1.669  25.247  0.00  0.00    -0.348 OA
ATOM     12  C   UNL     1      -4.797   1.157  24.729  0.00  0.00    +0.187 C 
ATOM     13  C   UNL     1      -4.119   1.295  24.280  0.00  0.00    +0.211 C 
ATOM     14  C   UNL     1      -3.662   1.980  24.238  0.00  0.00    +0.119 C 
ENDROOT
BRANCH   8   7
ATOM      7  C   UNL     1      -3.211   3.282  24.471  0.00  0.00    +0.099 C 
BRANCH   7   6
ATOM      3  C   UNL     1      -1.009   3.243  25.602  0.00  0.00    +0.139 A 
ATOM      4  C   UNL     1      -1.675   3.519  26.003  0.00  0.00    +0.037 A 
ATOM      5  C   UNL     1      -2.408   3.532  25.626  0.00  0.00    +0.000 A 
ATOM      6  C   UNL     1      -2.477   3.269  24.848  0.00  0.00    -0.006 A 
ATOM     26  C   UNL     1      -1.811   2.992  24.446  0.00  0.00    +0.000 A 
ATOM     27  C   UNL     1      -1.078   2.979  24.822  0.00  0.00    +0.037 A 
BRANCH   3   2
ATOM      1  C   UNL     1       0.082   2.509  26.161  0.00  0.00    +0.252 C 
ATOM      2  O   UNL     1      -0.275   3.230  25.978  0.00  0.00    -0.471 OA
ENDBRANCH   3   2
ENDBRANCH   7   6
ENDBRANCH   8   7
BRANCH  13  15
ATOM     15  O   UNL     1      -3.865   0.665  23.812  0.00  0.00    -0.475 OA
BRANCH  15  16
ATOM     16  C   UNL     1      -3.774  -0.084  24.144  0.00  0.00    +0.139 A 
ATOM     17  C   UNL     1      -4.324  -0.678  23.980  0.00  0.00    +0.037 A 
ATOM     18  C   UNL     1      -4.233  -1.428  24.312  0.00  0.00    +0.007 A 
ATOM     19  C   UNL     1      -3.592  -1.584  24.809  0.00  0.00    +0.072 A 
ATOM     20  C   UNL     1      -3.043  -0.991  24.973  0.00  0.00    +0.007 A 
ATOM     21  C   UNL     1      -3.135  -0.241  24.640  0.00  0.00    +0.037 A 
BRANCH  19  22
ATOM     22  C   UNL     1      -3.502  -2.333  25.141  0.00  0.00    +0.419 C 
ATOM     23  F   UNL     1      -3.412  -3.083  25.473  0.00  0.00    -0.166 F 
ATOM     24  F   UNL     1      -3.366  -2.649  24.391  0.00  0.00    -0.166 F 
ATOM     25  F   UNL     1      -3.638  -2.019  25.891  0.00  0.00    -0.166 F 
ENDBRANCH  19  22
ENDBRANCH  15  16
ENDBRANCH  13  15
TORSDOF 6
ENDMDL
MODEL 2
REMARK VINA RESULT:     -12.0      2.924      5.090
REMARK  Name = 
REMARK  6 active torsions:
REMARK  status: ('A' for Active; 'I' for Inactive)
REMARK    1  A    between atoms: O_2  and  C_3
REMARK    2  A    between atoms: C_6  and  C_7
REMARK    3  A    between atoms: C_7  and  N_8
REMARK    4  A    between atoms: C_13  and  O_15
REMARK    5  A    between atoms: O_15  and  C_16
REMARK    6  A    between atoms: C_19  and  C_22
REMARK                            x       y       z     vdW  Elec       q    Type
REMARK                         _______ _______ _______ _____ _____    ______ ____
ROOT
ATOM      8  N   UNL     1      -3.756   1.564  24.463  0.00  0.00    -0.264 NA
ATOM      9  C   UNL     1      -4.544   1.681  24.247  0.00  0.00    +0.105 C 
ATOM     10  C   UNL     1      -5.075   2.246  24.526  0.00  0.00    +0.160 C 
ATOM     11  O   UNL     1      -4.952   2.834  25.092  0.00  0.00    -0.348 OA
ATOM     12  C   UNL     1      -4.265   3.001  25.517  0.00  0.00    +0.187 C 
ATOM     13  C   UNL     1      -3.532   2.623  25.481  0.00  0.00    +0.211 C 
ATOM     14  C   UNL     1      -3.307   1.983  25.013  0.00  0.00    +0.119 C 
ENDROOT
BRANCH   8   7
ATOM      7  C   UNL     1      -3.368   0.946  24.079  0.00  0.00    +0.099 C 
BRANCH   7   6
ATOM      3  C   UNL     1      -3.637  -1.379  24.886  0.00  0.00    +0.139 A 
ATOM      4  C   UNL     1      -3.087  -0.878  25.243  0.00  0.00    +0.037 A 
ATOM      5  C   UNL     1      -2.997  -0.105  24.975  0.00  0.00    +0.000 A 
ATOM      6  C   UNL     1      -3.457   0.171  24.348  0.00  0.00    -0.006 A 
ATOM     26  C   UNL     1      -4.008  -0.329  23.990  0.00  0.00    +0.000 A 
ATOM     27  C   UNL     1      -4.097  -1.103  24.258  0.00  0.00    +0.037 A 
BRANCH   3   2
ATOM      1  C   UNL     1      -3.560  -2.787  24.652  0.00  0.00    +0.252 C 
ATOM      2  O   UNL     1      -3.726  -2.153  25.155  0.00  0.00    -0.471 OA
ENDBRANCH   3   2
ENDBRANCH   7   6
ENDBRANCH   8   7
BRANCH  13  15
ATOM     15  O   UNL     1      -2.949   2.924  25.982  0.00  0.00    -0.475 OA
BRANCH  15  16
ATOM     16  C   UNL     1      -2.420   3.491  25.702  0.00  0.00    +0.139 A 
ATOM     17  C   UNL     1      -1.641   3.279  25.531  0.00  0.00    +0.037 A 
ATOM     18  C   UNL     1      -1.111   3.846  25.251  0.00  0.00    +0.007 A 
ATOM     19  C   UNL     1      -1.360   4.625  25.142  0.00  0.00    +0.072 A 
ATOM     20  C   UNL     1      -2.138   4.837  25.313  0.00  0.00    +0.007 A 
ATOM     21  C   UNL     1      -2.668   4.270  25.593  0.00  0.00    +0.037 A 
BRANCH  19  22
ATOM     22  C   UNL     1      -0.830   5.192  24.863  0.00  0.00    +0.419 C 
ATOM     23  F   UNL     1      -0.299   5.758  24.583  0.00  0.00    -0.166 F 
ATOM     24  F   UNL     1      -1.245   5.780  25.265  0.00  0.00    -0.166 F 
ATOM     25  F   UNL     1      -0.413   4.605  24.460  0.00  0.00    -0.166 F 
ENDBRANCH  19  22
ENDBRANCH  15  16
ENDBRANCH  13  15
TORSDOF 6
ENDMDL
MODEL 3
REMARK VINA RESULT:     -11.9      3.054      5.330
REMARK  Name = 
REMARK  6 active torsions:
REMARK  status: ('A' for Active; 'I' for Inactive)
REMARK    1  A    between atoms: O_2  and  C_3
REMARK    2  A    between atoms: C_6  and  C_7
REMARK    3  A    between atoms: C_7  and  N_8
REMARK    4  A    between atoms: C_13  and  O_15
REMARK    5  A    between atoms: O_15  and  C_16
REMARK    6  A    between atoms: C_19  and  C_22
REMARK                            x       y       z     vdW  Elec       q    Type
REMARK                         _______ _______ _______ _____ _____    ______ ____
ROOT
ATOM      8  N   UNL     1      -3.318   0.913  24.267  0.00  0.00    -0.264 NA
ATOM      9  C   UNL     1      -3.381   0.862  23.445  0.00  0.00    +0.105 C 
ATOM     10  C   UNL     1      -2.900   1.205  22.870  0.00  0.00    +0.160 C 
ATOM     11  O   UNL     1      -2.235   1.684  22.974  0.00  0.00    -0.348 OA
ATOM     12  C   UNL     1      -1.890   1.937  23.678  0.00  0.00    +0.187 C 
ATOM     13  C   UNL     1      -2.122   1.774  24.453  0.00  0.00    +0.211 C 
ATOM     14  C   UNL     1      -2.757   1.318  24.714  0.00  0.00    +0.119 C 
ENDROOT
BRANCH   8   7
ATOM      7  C   UNL     1      -3.891   0.502  24.695  0.00  0.00    +0.099 C 
BRANCH   7   6
ATOM      3  C   UNL     1      -3.671  -1.939  25.039  0.00  0.00    +0.139 A 
ATOM      4  C   UNL     1      -3.361  -1.414  25.594  0.00  0.00    +0.037 A 
ATOM      5  C   UNL     1      -3.434  -0.601  25.480  0.00  0.00    +0.000 A 
ATOM      6  C   UNL     1      -3.817  -0.311  24.809  0.00  0.00    -0.006 A 
ATOM     26  C   UNL     1      -4.128  -0.836  24.253  0.00  0.00    +0.000 A 
ATOM     27  C   UNL     1      -4.054  -1.649  24.367  0.00  0.00    +0.037 A 
BRANCH   3   2
ATOM      1  C   UNL     1      -3.270  -3.225  24.561  0.00  0.00    +0.252 C 
ATOM      2  O   UNL     1      -3.597  -2.752  25.153  0.00  0.00    -0.471 OA
ENDBRANCH   3   2
ENDBRANCH   7   6
ENDBRANCH   8   7
BRANCH  13  15
ATOM     15  O   UNL     1      -1.656   2.113  25.045  0.00  0.00    -0.475 OA
BRANCH  15  16
ATOM     16  C   UNL     1      -1.560   2.931  25.076  0.00  0.00    +0.139 A 
ATOM     17  C   UNL     1      -2.146   3.402  25.418  0.00  0.00    +0.037 A 
ATOM     18  C   UNL     1      -2.049   4.221  25.448  0.00  0.00    +0.007 A 
ATOM     19  C   UNL     1      -1.369   4.569  25.137  0.00  0.00    +0.072 A 
ATOM     20  C   UNL     1      -0.784   4.099  24.796  0.00  0.00    +0.007 A 
ATOM     21  C   UNL     1      -0.880   3.279  24.765  0.00  0.00    +0.037 A 
BRANCH  19  22
ATOM     22  C   UNL     1      -1.274   5.388  25.168  0.00  0.00    +0.419 C 
ATOM     23  F   UNL     1      -1.179   6.207  25.199  0.00  0.00    -0.166 F 
ATOM     24  F   UNL     1      -1.960   5.450  25.621  0.00  0.00    -0.166 F 
ATOM     25  F   UNL     1      -0.588   5.326  24.715  0.00  0.00    -0.166 F 
ENDBRANCH  19  22
ENDBRANCH  15  16
ENDBRANCH  13  15
TORSDOF 6
ENDMDL
MODEL 4
REMARK VINA RESULT:     -11.8      1.906      2.813
REMARK  Name = 
REMARK  6 active torsions:
REMARK  status: ('A' for Active; 'I' for Inactive)
REMARK    1  A    between atoms: O_2  and  C_3
REMARK    2  A    between atoms: C_6  and  C_7
REMARK    3  A    between atoms: C_7  and  N_8
REMARK    4  A    between atoms: C_13  and  O_15
REMARK    5  A    between atoms: O_15  and  C_16
REMARK    6  A    between atoms: C_19  and  C_22
REMARK                            x       y       z     vdW  Elec       q    Type
REMARK                         _______ _______ _______ _____ _____    ______ ____
ROOT
ATOM      8  N   UNL     1      -0.532   1.208  25.343  0.00  0.00    -0.264 NA
ATOM      9  C   UNL     1      -0.104   1.331  24.649  0.00  0.00    +0.105 C 
ATOM     10  C   UNL     1       0.006   0.817  24.014  0.00  0.00    +0.160 C 
ATOM     11  O   UNL     1      -0.286   0.051  23.915  0.00  0.00    -0.348 OA
ATOM     12  C   UNL     1      -0.759  -0.388  24.428  0.00  0.00    +0.187 C 
ATOM     13  C   UNL     1      -1.058  -0.171  25.167  0.00  0.00    +0.211 C 
ATOM     14  C   UNL     1      -0.956   0.539  25.573  0.00  0.00    +0.119 C 
ENDROOT
BRANCH   8   7
ATOM      7  C   UNL     1      -0.536   1.836  25.878  0.00  0.00    +0.099 C 
BRANCH   7   6
ATOM      3  C   UNL     1      -1.637   3.969  25.275  0.00  0.00    +0.139 A 
ATOM      4  C   UNL     1      -2.087   3.336  25.555  0.00  0.00    +0.037 A 
ATOM      5  C   UNL     1      -1.720   2.626  25.756  0.00  0.00    +0.000 A 
ATOM      6  C   UNL     1      -0.903   2.547  25.677  0.00  0.00    -0.006 A 
ATOM     26  C   UNL     1      -0.452   3.180  25.396  0.00  0.00    +0.000 A 
ATOM     27  C   UNL     1      -0.819   3.890  25.195  0.00  0.00    +0.037 A 
BRANCH   3   2
ATOM      1  C   UNL     1      -1.577   5.386  25.095  0.00  0.00    +0.252 C 
ATOM      2  O   UNL     1      -2.005   4.680  25.074  0.00  0.00    -0.471 OA
ENDBRANCH   3   2
ENDBRANCH   7   6
ENDBRANCH   8   7
BRANCH  13  15
ATOM     15  O   UNL     1      -1.518  -0.740  25.548  0.00  0.00    -0.475 OA
BRANCH  15  16
ATOM     16  C   UNL     1      -2.178  -1.058  25.168  0.00  0.00    +0.139 A 
ATOM     17  C   UNL     1      -2.118  -1.781  24.774  0.00  0.00    +0.037 A 
ATOM     18  C   UNL     1      -2.778  -2.099  24.394  0.00  0.00    +0.007 A 
ATOM     19  C   UNL     1      -3.497  -1.694  24.407  0.00  0.00    +0.072 A 
ATOM     20  C   UNL     1      -3.556  -0.972  24.801  0.00  0.00    +0.007 A 
ATOM     21  C   UNL     1      -2.896  -0.654  25.181  0.00  0.00    +0.037 A 
BRANCH  19  22
ATOM     22  C   UNL     1      -4.156  -2.012  24.027  0.00  0.00    +0.419 C 
ATOM     23  F   UNL     1      -4.815  -2.331  23.647  0.00  0.00    -0.166 F 
ATOM     24  F   UNL     1      -4.092  -2.694  24.487  0.00  0.00    -0.166 F 
ATOM     25  F   UNL     1      -4.221  -1.331  23.567  0.00  0.00    -0.166 F 
ENDBRANCH  19  22
ENDBRANCH  15  16
ENDBRANCH  13  15
TORSDOF 6
ENDMDL
MODEL 5
REMARK VINA RESULT:     -11.6      1.195      2.679
REMARK  Name = 
REMARK  6 active torsions:
REMARK  status: ('A' for Active; 'I' for Inactive)
REMARK    1  A    between atoms: O_2  and  C_3
REMARK    2  A    between atoms: C_6  and  C_7
REMARK    3  A    between atoms: C_7  and  N_8
REMARK    4  A    between atoms: C_13  and  O_15
REMARK    5  A    between atoms: O_15  and  C_16
REMARK    6  A    between atoms: C_19  and  C_22
REMARK                            x       y       z     vdW  Elec       q    Type
REMARK                         _______ _______ _______ _____ _____    ______ ____
ROOT
ATOM      8  N   UNL     1      -1.710   2.467  24.821  0.00  0.00    -0.264 NA
ATOM      9  C   UNL     1      -1.262   2.652  25.489  0.00  0.00    +0.105 C 
ATOM     10  C   UNL     1      -0.777   2.157  25.936  0.00  0.00    +0.160 C 
ATOM     11  O   UNL     1      -0.619   1.355  25.827  0.00  0.00    -0.348 OA
ATOM     12  C   UNL     1      -0.908   0.850  25.242  0.00  0.00    +0.187 C 
ATOM     13  C   UNL     1      -1.426   1.022  24.623  0.00  0.00    +0.211 C 
ATOM     14  C   UNL     1      -1.782   1.742  24.436  0.00  0.00    +0.119 C 
ENDROOT
BRANCH   8   7
ATOM      7  C   UNL     1      -2.141   3.090  24.496  0.00  0.00    +0.099 C 
BRANCH   7   6
ATOM      3  C   UNL     1      -4.453   3.530  25.264  0.00  0.00    +0.139 A 
ATOM      4  C   UNL     1      -3.813   3.741  25.739  0.00  0.00    +0.037 A 
ATOM      5  C   UNL     1      -3.043   3.594  25.484  0.00  0.00    +0.000 A 
ATOM      6  C   UNL     1      -2.912   3.237  24.752  0.00  0.00    -0.006 A 
ATOM     26  C   UNL     1      -3.552   3.026  24.276  0.00  0.00    +0.000 A 
ATOM     27  C   UNL     1      -4.322   3.172  24.531  0.00  0.00    +0.037 A 
BRANCH   3   2
ATOM      1  C   UNL     1      -5.719   3.047  25.718  0.00  0.00    +0.252 C 
ATOM      2  O   UNL     1      -5.223   3.676  25.520  0.00  0.00    -0.471 OA
ENDBRANCH   3   2
ENDBRANCH   7   6
ENDBRANCH   8   7
BRANCH  13  15
ATOM     15  O   UNL     1      -1.611   0.390  24.125  0.00  0.00    -0.475 OA
BRANCH  15  16
ATOM     16  C   UNL     1      -2.041  -0.251  24.416  0.00  0.00    +0.139 A 
ATOM     17  C   UNL     1      -2.866  -0.234  24.404  0.00  0.00    +0.037 A 
ATOM     18  C   UNL     1      -3.296  -0.875  24.696  0.00  0.00    +0.007 A 
ATOM     19  C   UNL     1      -2.901  -1.533  24.999  0.00  0.00    +0.072 A 
ATOM     20  C   UNL     1      -2.076  -1.550  25.011  0.00  0.00    +0.007 A 
ATOM     21  C   UNL     1      -1.647  -0.908  24.720  0.00  0.00    +0.037 A 
BRANCH  19  22
ATOM     22  C   UNL     1      -3.331  -2.174  25.290  0.00  0.00    +0.419 C 
ATOM     23  F   UNL     1      -3.761  -2.814  25.581  0.00  0.00    -0.166 F 
ATOM     24  F   UNL     1      -3.555  -1.726  25.945  0.00  0.00    -0.166 F 
ATOM     25  F   UNL     1      -3.108  -2.622  24.635  0.00  0.00    -0.166 F 
ENDBRANCH  19  22
ENDBRANCH  15  16
ENDBRANCH  13  15
TORSDOF 6
ENDMDL
MODEL 6
REMARK VINA RESULT:      -8.1     16.319     18.663
REMARK  Name = 
REMARK  6 active torsions:
REMARK  status: ('A' for Active; 'I' for Inactive)
REMARK    1  A    between atoms: O_2  and  C_3
REMARK    2  A    between atoms: C_6  and  C_7
REMARK    3  A    between atoms: C_7  and  N_8
REMARK    4  A    between atoms: C_13  and  O_15
REMARK    5  A    between atoms: O_15  and  C_16
REMARK    6  A    between atoms: C_19  and  C_22
REMARK                            x       y       z     vdW  Elec       q    Type
REMARK                         _______ _______ _______ _____ _____    ______ ____
ROOT
ATOM      8  N   UNL     1      13.939   8.152  18.570  0.00  0.00    -0.264 NA
ATOM      9  C   UNL     1      13.777   7.557  18.021  0.00  0.00    +0.105 C 
ATOM     10  C   UNL     1      13.045   7.265  17.780  0.00  0.00    +0.160 C 
ATOM     11  O   UNL     1      12.292   7.494  18.028  0.00  0.00    -0.348 OA
ATOM     12  C   UNL     1      12.087   8.074  18.579  0.00  0.00    +0.187 C 
ATOM     13  C   UNL     1      12.584   8.566  19.017  0.00  0.00    +0.211 C 
ATOM     14  C   UNL     1      13.408   8.600  19.012  0.00  0.00    +0.119 C 
ENDROOT
BRANCH   8   7
ATOM      7  C   UNL     1      14.738   8.319  18.690  0.00  0.00    +0.099 C 
BRANCH   7   6
ATOM      3  C   UNL     1      16.069   6.940  20.257  0.00  0.00    +0.139 A 
ATOM      4  C   UNL     1      15.885   6.652  19.506  0.00  0.00    +0.037 A 
ATOM      5  C   UNL     1      15.442   7.110  18.985  0.00  0.00    +0.000 A 
ATOM      6  C   UNL     1      15.181   7.859  19.213  0.00  0.00    -0.006 A 
ATOM     26  C   UNL     1      15.365   8.149  19.964  0.00  0.00    +0.000 A 
ATOM     27  C   UNL     1      15.809   7.690  20.485  0.00  0.00    +0.037 A 
BRANCH   3   2
ATOM      1  C   UNL     1      17.338   6.500  20.747  0.00  0.00    +0.252 C 
ATOM      2  O   UNL     1      16.513   6.481  20.779  0.00  0.00    -0.471 OA
ENDBRANCH   3   2
ENDBRANCH   7   6
ENDBRANCH   8   7
BRANCH  13  15
ATOM     15  O   UNL     1      12.206   9.094  19.527  0.00  0.00    -0.475 OA
BRANCH  15  16
ATOM     16  C   UNL     1      11.821   8.812  20.200  0.00  0.00    +0.139 A 
ATOM     17  C   UNL     1      11.051   8.519  20.142  0.00  0.00    +0.037 A 
ATOM     18  C   UNL     1      10.667   8.237  20.816  0.00  0.00    +0.007 A 
ATOM     19  C   UNL     1      11.052   8.247  21.546  0.00  0.00    +0.072 A 
ATOM     20  C   UNL     1      11.821   8.539  21.603  0.00  0.00    +0.007 A 
ATOM     21  C   UNL     1      12.205   8.821  20.929  0.00  0.00    +0.037 A 
BRANCH  19  22
ATOM     22  C   UNL     1      10.666   7.965  22.219  0.00  0.00    +0.419 C 
ATOM     23  F   UNL     1      10.281   7.683  22.891  0.00  0.00    -0.166 F 
ATOM     24  F   UNL     1      10.384   8.724  22.375  0.00  0.00    -0.166 F 
ATOM     25  F   UNL     1      10.948   7.206  22.062  0.00  0.00    -0.166 F 
ENDBRANCH  19  22
ENDBRANCH  15  16
ENDBRANCH  13  15
TORSDOF 6
ENDMDL
