MODEL 1
REMARK VINA RESULT:     -11.2      0.000      0.000
REMARK  Name = 
REMARK  7 active torsions:
REMARK  status: ('A' for Active; 'I' for Inactive)
REMARK    1  A    between atoms: C_2  and  C_4
REMARK    2  A    between atoms: C_4  and  C_5
REMARK    3  A    between atoms: C_7  and  C_25
REMARK    4  A    between atoms: N_11  and  C_12
REMARK    5  A    between atoms: C_12  and  C_13
REMARK    6  A    between atoms: N_27  and  C_28
REMARK    7  A    between atoms: C_28  and  C_29
REMARK                            x       y       z     vdW  Elec       q    Type
REMARK                         _______ _______ _______ _____ _____    ______ ____
ROOT
ATOM      5  C   UNL     1      -4.283   2.084  24.967  0.00  0.00    +0.095 C 
ATOM      6  N   UNL     1      -3.837   2.721  25.241  0.00  0.00    -0.207 NA
ATOM      7  C   UNL     1      -3.029   2.748  25.411  0.00  0.00    +0.155 C 
ATOM      8  C   UNL     1      -2.470   2.145  25.349  0.00  0.00    +0.055 C 
ATOM      9  C   UNL     1      -2.579   1.366  25.102  0.00  0.00    -0.002 A 
ATOM     10  C   UNL     1      -1.970   0.811  25.064  0.00  0.00    +0.072 A 
ATOM     11  N   UNL     1      -2.289   0.099  24.794  0.00  0.00    -0.319 N 
ATOM     19  C   UNL     1      -3.096   0.214  24.665  0.00  0.00    +0.060 A 
ATOM     20  C   UNL     1      -3.275   0.997  24.855  0.00  0.00    +0.011 A 
ATOM     21  C   UNL     1      -4.034   1.317  24.796  0.00  0.00    -0.005 A 
ATOM     22  C   UNL     1      -4.643   0.766  24.514  0.00  0.00    -0.003 A 
ATOM     23  C   UNL     1      -4.464  -0.017  24.324  0.00  0.00    +0.001 A 
ATOM     24  C   UNL     1      -3.690  -0.292  24.400  0.00  0.00    +0.017 A 
ENDROOT
BRANCH   7  25
ATOM     25  C   UNL     1      -2.745   3.475  25.678  0.00  0.00    +0.258 C 
ATOM     26  O   UNL     1      -2.940   3.742  26.434  0.00  0.00    -0.272 OA
ATOM     27  N   UNL     1      -2.264   3.935  25.189  0.00  0.00    -0.204 NA
BRANCH  27  28
ATOM     28  C   UNL     1      -1.980   4.661  25.456  0.00  0.00    +0.115 C 
BRANCH  28  29
ATOM     29  C   UNL     1      -1.369   5.039  25.049  0.00  0.00    +0.022 C 
ATOM     30  C   UNL     1      -1.032   5.729  24.746  0.00  0.00    +0.002 C 
ATOM     31  C   UNL     1      -0.649   5.005  24.649  0.00  0.00    +0.002 C 
ENDBRANCH  28  29
ENDBRANCH  27  28
ENDBRANCH   7  25
BRANCH   5   4
ATOM      4  C   UNL     1      -5.086   2.234  24.850  0.00  0.00    +0.022 C 
BRANCH   4   2
ATOM      1  C   UNL     1      -5.628   3.497  25.240  0.00  0.00    +0.000 C 
ATOM      2  C   UNL     1      -5.502   2.697  25.392  0.00  0.00    +0.002 C 
ATOM      3  C   UNL     1      -5.793   2.357  26.086  0.00  0.00    +0.000 C 
ENDBRANCH   4   2
ENDBRANCH   5   4
BRANCH  11  12
ATOM     12  C   UNL     1      -1.875  -0.604  24.674  0.00  0.00    +0.170 C 
BRANCH  12  13
ATOM     13  C   UNL     1      -1.093  -0.583  24.410  0.00  0.00    +0.144 A 
ATOM     14  N   UNL     1      -0.787  -0.070  23.841  0.00  0.00    -0.227 NA
ATOM     15  C   UNL     1       0.014  -0.242  23.749  0.00  0.00    +0.119 A 
ATOM     16  C   UNL     1       0.203  -0.860  24.261  0.00  0.00    +0.098 A 
ATOM     17  N   UNL     1      -0.481  -1.071  24.670  0.00  0.00    -0.310 N 
ATOM     18  C   UNL     1      -0.543  -1.666  25.239  0.00  0.00    +0.132 C 
ENDBRANCH  12  13
ENDBRANCH  11  12
TORSDOF 7
ENDMDL
MODEL 2
REMARK VINA RESULT:     -11.2      1.314      4.321
REMARK  Name = 
REMARK  7 active torsions:
REMARK  status: ('A' for Active; 'I' for Inactive)
REMARK    1  A    between atoms: C_2  and  C_4
REMARK    2  A    between atoms: C_4  and  C_5
REMARK    3  A    between atoms: C_7  and  C_25
REMARK    4  A    between atoms: N_11  and  C_12
REMARK    5  A    between atoms: C_12  and  C_13
REMARK    6  A    between atoms: N_27  and  C_28
REMARK    7  A    between atoms: C_28  and  C_29
REMARK                            x       y       z     vdW  Elec       q    Type
REMARK                         _______ _______ _______ _____ _____    ______ ____
ROOT
ATOM      5  C   UNL     1      -3.168  -0.496  24.558  0.00  0.00    +0.095 C 
ATOM      6  N   UNL     1      -2.353  -0.627  24.549  0.00  0.00    -0.207 NA
ATOM      7  C   UNL     1      -1.743  -0.081  24.651  0.00  0.00    +0.155 C 
ATOM      8  C   UNL     1      -1.797   0.730  24.788  0.00  0.00    +0.055 C 
ATOM      9  C   UNL     1      -2.474   1.197  24.857  0.00  0.00    -0.002 A 
ATOM     10  C   UNL     1      -2.454   2.010  24.995  0.00  0.00    +0.072 A 
ATOM     11  N   UNL     1      -3.232   2.282  25.029  0.00  0.00    -0.319 N 
ATOM     19  C   UNL     1      -3.734   1.637  24.912  0.00  0.00    +0.060 A 
ATOM     20  C   UNL     1      -3.265   0.966  24.805  0.00  0.00    +0.011 A 
ATOM     21  C   UNL     1      -3.573   0.212  24.672  0.00  0.00    -0.005 A 
ATOM     22  C   UNL     1      -4.440   0.169  24.651  0.00  0.00    -0.003 A 
ATOM     23  C   UNL     1      -4.909   0.840  24.758  0.00  0.00    +0.001 A 
ATOM     24  C   UNL     1      -4.555   1.574  24.888  0.00  0.00    +0.017 A 
ENDROOT
BRANCH   7  25
ATOM     25  C   UNL     1      -0.978  -0.388  24.611  0.00  0.00    +0.258 C 
ATOM     26  O   UNL     1      -0.668  -0.807  25.250  0.00  0.00    -0.272 OA
ATOM     27  N   UNL     1      -0.523  -0.275  23.931  0.00  0.00    -0.204 NA
BRANCH  27  28
ATOM     28  C   UNL     1       0.241  -0.581  23.891  0.00  0.00    +0.115 C 
BRANCH  28  29
ATOM     29  C   UNL     1       0.745  -0.353  23.279  0.00  0.00    +0.022 C 
ATOM     30  C   UNL     1       1.487  -0.102  23.020  0.00  0.00    +0.002 C 
ATOM     31  C   UNL     1       0.875  -0.209  22.478  0.00  0.00    +0.002 C 
ENDBRANCH  28  29
ENDBRANCH  27  28
ENDBRANCH   7  25
BRANCH   5   4
ATOM      4  C   UNL     1      -3.638  -1.163  24.437  0.00  0.00    +0.022 C 
BRANCH   4   2
ATOM      1  C   UNL     1      -3.145  -2.491  24.244  0.00  0.00    +0.000 C 
ATOM      2  C   UNL     1      -3.407  -1.892  24.748  0.00  0.00    +0.002 C 
ATOM      3  C   UNL     1      -3.439  -2.022  25.563  0.00  0.00    +0.000 C 
ENDBRANCH   4   2
ENDBRANCH   5   4
BRANCH  11  12
ATOM     12  C   UNL     1      -3.469   3.062  25.158  0.00  0.00    +0.170 C 
BRANCH  12  13
ATOM     13  C   UNL     1      -2.904   3.660  25.215  0.00  0.00    +0.144 A 
ATOM     14  N   UNL     1      -2.310   3.821  24.665  0.00  0.00    -0.227 NA
ATOM     15  C   UNL     1      -1.874   4.463  24.943  0.00  0.00    +0.119 A 
ATOM     16  C   UNL     1      -2.198   4.700  25.663  0.00  0.00    +0.098 A 
ATOM     17  N   UNL     1      -2.835   4.204  25.832  0.00  0.00    -0.310 N 
ATOM     18  C   UNL     1      -3.318   4.244  26.500  0.00  0.00    +0.132 C 
ENDBRANCH  12  13
ENDBRANCH  11  12
TORSDOF 7
ENDMDL
MODEL 3
REMARK VINA RESULT:     -11.1      1.918      3.873
REMARK  Name = 
REMARK  7 active torsions:
REMARK  status: ('A' for Active; 'I' for Inactive)
REMARK    1  A    between atoms: C_2  and  C_4
REMARK    2  A    between atoms: C_4  and  C_5
REMARK    3  A    between atoms: C_7  and  C_25
REMARK    4  A    between atoms: N_11  and  C_12
REMARK    5  A    between atoms: C_12  and  C_13
REMARK    6  A    between atoms: N_27  and  C_28
REMARK    7  A    between atoms: C_28  and  C_29
REMARK                            x       y       z     vdW  Elec       q    Type
REMARK                         _______ _______ _______ _____ _____    ______ ____
ROOT
ATOM      5  C   UNL     1      -4.640   2.085  24.901  0.00  0.00    +0.095 C 
ATOM      6  N   UNL     1      -4.593   1.321  24.593  0.00  0.00    -0.207 NA
ATOM      7  C   UNL     1      -3.920   0.871  24.433  0.00  0.00    +0.155 C 
ATOM      8  C   UNL     1      -3.128   1.075  24.541  0.00  0.00    +0.055 C 
ATOM      9  C   UNL     1      -2.813   1.778  24.836  0.00  0.00    -0.002 A 
ATOM     10  C   UNL     1      -2.003   1.915  24.917  0.00  0.00    +0.072 A 
ATOM     11  N   UNL     1      -1.902   2.673  25.227  0.00  0.00    -0.319 N 
ATOM     19  C   UNL     1      -2.650   3.004  25.338  0.00  0.00    +0.060 A 
ATOM     20  C   UNL     1      -3.213   2.451  25.095  0.00  0.00    +0.011 A 
ATOM     21  C   UNL     1      -4.026   2.587  25.124  0.00  0.00    -0.005 A 
ATOM     22  C   UNL     1      -4.257   3.366  25.432  0.00  0.00    -0.003 A 
ATOM     23  C   UNL     1      -3.694   3.919  25.674  0.00  0.00    +0.001 A 
ATOM     24  C   UNL     1      -2.891   3.738  25.627  0.00  0.00    +0.017 A 
ENDROOT
BRANCH   7  25
ATOM     25  C   UNL     1      -4.058   0.118  24.124  0.00  0.00    +0.258 C 
ATOM     26  O   UNL     1      -4.334   0.034  23.351  0.00  0.00    -0.272 OA
ATOM     27  N   UNL     1      -3.918  -0.550  24.588  0.00  0.00    -0.204 NA
BRANCH  27  28
ATOM     28  C   UNL     1      -4.056  -1.302  24.279  0.00  0.00    +0.115 C 
BRANCH  28  29
ATOM     29  C   UNL     1      -3.747  -1.966  24.659  0.00  0.00    +0.022 C 
ATOM     30  C   UNL     1      -3.546  -2.766  24.648  0.00  0.00    +0.002 C 
ATOM     31  C   UNL     1      -3.414  -2.317  25.327  0.00  0.00    +0.002 C 
ENDBRANCH  28  29
ENDBRANCH  27  28
ENDBRANCH   7  25
BRANCH   5   4
ATOM      4  C   UNL     1      -5.402   2.385  24.998  0.00  0.00    +0.022 C 
BRANCH   4   2
ATOM      1  C   UNL     1      -6.582   1.627  24.722  0.00  0.00    +0.000 C 
ATOM      2  C   UNL     1      -6.010   1.889  25.256  0.00  0.00    +0.002 C 
ATOM      3  C   UNL     1      -6.046   1.658  26.047  0.00  0.00    +0.000 C 
ENDBRANCH   4   2
ENDBRANCH   5   4
BRANCH  11  12
ATOM     12  C   UNL     1      -1.182   3.035  25.397  0.00  0.00    +0.170 C 
BRANCH  12  13
ATOM     13  C   UNL     1      -0.477   2.701  25.128  0.00  0.00    +0.144 A 
ATOM     14  N   UNL     1      -0.279   2.557  24.340  0.00  0.00    -0.227 NA
ATOM     15  C   UNL     1       0.473   2.219  24.325  0.00  0.00    +0.119 A 
ATOM     16  C   UNL     1       0.740   2.155  25.103  0.00  0.00    +0.098 A 
ATOM     17  N   UNL     1       0.153   2.453  25.599  0.00  0.00    -0.310 N 
ATOM     18  C   UNL     1       0.189   2.495  26.423  0.00  0.00    +0.132 C 
ENDBRANCH  12  13
ENDBRANCH  11  12
TORSDOF 7
ENDMDL
MODEL 4
REMARK VINA RESULT:     -11.0      1.257      3.345
REMARK  Name = 
REMARK  7 active torsions:
REMARK  status: ('A' for Active; 'I' for Inactive)
REMARK    1  A    between atoms: C_2  and  C_4
REMARK    2  A    between atoms: C_4  and  C_5
REMARK    3  A    between atoms: C_7  and  C_25
REMARK    4  A    between atoms: N_11  and  C_12
REMARK    5  A    between atoms: C_12  and  C_13
REMARK    6  A    between atoms: N_27  and  C_28
REMARK    7  A    between atoms: C_28  and  C_29
REMARK                            x       y       z     vdW  Elec       q    Type
REMARK                         _______ _______ _______ _____ _____    ______ ____
ROOT
ATOM      5  C   UNL     1      -1.922   3.372  25.474  0.00  0.00    +0.095 C 
ATOM      6  N   UNL     1      -2.668   3.281  25.135  0.00  0.00    -0.207 NA
ATOM      7  C   UNL     1      -2.972   2.631  24.727  0.00  0.00    +0.155 C 
ATOM      8  C   UNL     1      -2.605   1.912  24.559  0.00  0.00    +0.055 C 
ATOM      9  C   UNL     1      -1.843   1.665  24.756  0.00  0.00    -0.002 A 
ATOM     10  C   UNL     1      -1.539   0.925  24.554  0.00  0.00    +0.072 A 
ATOM     11  N   UNL     1      -0.767   0.879  24.843  0.00  0.00    -0.319 N 
ATOM     19  C   UNL     1      -0.595   1.590  25.224  0.00  0.00    +0.060 A 
ATOM     20  C   UNL     1      -1.260   2.076  25.171  0.00  0.00    +0.011 A 
ATOM     21  C   UNL     1      -1.296   2.836  25.490  0.00  0.00    -0.005 A 
ATOM     22  C   UNL     1      -0.573   3.097  25.895  0.00  0.00    -0.003 A 
ATOM     23  C   UNL     1       0.092   2.612  25.949  0.00  0.00    +0.001 A 
ATOM     24  C   UNL     1       0.081   1.858  25.614  0.00  0.00    +0.017 A 
ENDROOT
BRANCH   7  25
ATOM     25  C   UNL     1      -3.746   2.712  24.452  0.00  0.00    +0.258 C 
ATOM     26  O   UNL     1      -3.889   3.065  23.720  0.00  0.00    -0.272 OA
ATOM     27  N   UNL     1      -4.377   2.439  24.909  0.00  0.00    -0.204 NA
BRANCH  27  28
ATOM     28  C   UNL     1      -5.150   2.520  24.634  0.00  0.00    +0.115 C 
BRANCH  28  29
ATOM     29  C   UNL     1      -5.775   2.183  25.056  0.00  0.00    +0.022 C 
ATOM     30  C   UNL     1      -6.535   1.863  25.073  0.00  0.00    +0.002 C 
ATOM     31  C   UNL     1      -6.096   1.921  25.768  0.00  0.00    +0.002 C 
ENDBRANCH  28  29
ENDBRANCH  27  28
ENDBRANCH   7  25
BRANCH   5   4
ATOM      4  C   UNL     1      -1.784   4.095  25.847  0.00  0.00    +0.022 C 
BRANCH   4   2
ATOM      1  C   UNL     1      -1.551   5.136  24.897  0.00  0.00    +0.000 C 
ATOM      2  C   UNL     1      -2.021   4.797  25.484  0.00  0.00    +0.002 C 
ATOM      3  C   UNL     1      -2.727   5.160  25.709  0.00  0.00    +0.000 C 
ENDBRANCH   4   2
ENDBRANCH   5   4
BRANCH  11  12
ATOM     12  C   UNL     1      -0.257   0.235  24.765  0.00  0.00    +0.170 C 
BRANCH  12  13
ATOM     13  C   UNL     1      -0.554  -0.533  24.801  0.00  0.00    +0.144 A 
ATOM     14  N   UNL     1      -1.068  -0.829  25.375  0.00  0.00    -0.227 NA
ATOM     15  C   UNL     1      -1.220  -1.620  25.197  0.00  0.00    +0.119 A 
ATOM     16  C   UNL     1      -0.800  -1.813  24.514  0.00  0.00    +0.098 A 
ATOM     17  N   UNL     1      -0.389  -1.142  24.269  0.00  0.00    -0.310 N 
ATOM     18  C   UNL     1       0.103  -1.088  23.608  0.00  0.00    +0.132 C 
ENDBRANCH  12  13
ENDBRANCH  11  12
TORSDOF 7
ENDMDL
MODEL 5
REMARK VINA RESULT:     -10.9      1.819      2.550
REMARK  Name = 
REMARK  7 active torsions:
REMARK  status: ('A' for Active; 'I' for Inactive)
REMARK    1  A    between atoms: C_2  and  C_4
REMARK    2  A    between atoms: C_4  and  C_5
REMARK    3  A    between atoms: C_7  and  C_25
REMARK    4  A    between atoms: N_11  and  C_12
REMARK    5  A    between atoms: C_12  and  C_13
REMARK    6  A    between atoms: N_27  and  C_28
REMARK    7  A    between atoms: C_28  and  C_29
REMARK                            x       y       z     vdW  Elec       q    Type
REMARK                         _______ _______ _______ _____ _____    ______ ____
ROOT
ATOM      5  C   UNL     1      -3.723   2.591  24.888  0.00  0.00    +0.095 C 
ATOM      6  N   UNL     1      -2.902   2.645  24.838  0.00  0.00    -0.207 NA
ATOM      7  C   UNL     1      -2.354   2.042  24.704  0.00  0.00    +0.155 C 
ATOM      8  C   UNL     1      -2.493   1.238  24.586  0.00  0.00    +0.055 C 
ATOM      9  C   UNL     1      -3.214   0.836  24.574  0.00  0.00    -0.002 A 
ATOM     10  C   UNL     1      -3.280   0.024  24.450  0.00  0.00    +0.072 A 
ATOM     11  N   UNL     1      -4.080  -0.175  24.475  0.00  0.00    -0.319 N 
ATOM     19  C   UNL     1      -4.510   0.516  24.615  0.00  0.00    +0.060 A 
ATOM     20  C   UNL     1      -3.974   1.141  24.676  0.00  0.00    +0.011 A 
ATOM     21  C   UNL     1      -4.200   1.922  24.816  0.00  0.00    -0.005 A 
ATOM     22  C   UNL     1      -5.056   2.047  24.897  0.00  0.00    -0.003 A 
ATOM     23  C   UNL     1      -5.592   1.423  24.836  0.00  0.00    +0.001 A 
ATOM     24  C   UNL     1      -5.318   0.657  24.695  0.00  0.00    +0.017 A 
ENDROOT
BRANCH   7  25
ATOM     25  C   UNL     1      -1.563   2.276  24.685  0.00  0.00    +0.258 C 
ATOM     26  O   UNL     1      -1.229   2.544  23.980  0.00  0.00    -0.272 OA
ATOM     27  N   UNL     1      -1.106   2.241  25.371  0.00  0.00    -0.204 NA
BRANCH  27  28
ATOM     28  C   UNL     1      -0.315   2.474  25.352  0.00  0.00    +0.115 C 
BRANCH  28  29
ATOM     29  C   UNL     1       0.114   2.535  26.055  0.00  0.00    +0.022 C 
ATOM     30  C   UNL     1       0.782   2.794  26.464  0.00  0.00    +0.002 C 
ATOM     31  C   UNL     1       0.189   2.382  26.861  0.00  0.00    +0.002 C 
ENDBRANCH  28  29
ENDBRANCH  27  28
ENDBRANCH   7  25
BRANCH   5   4
ATOM      4  C   UNL     1      -4.120   3.300  25.029  0.00  0.00    +0.022 C 
BRANCH   4   2
ATOM      1  C   UNL     1      -3.421   4.543  24.925  0.00  0.00    +0.000 C 
ATOM      2  C   UNL     1      -3.724   3.930  25.387  0.00  0.00    +0.002 C 
ATOM      3  C   UNL     1      -3.631   3.946  26.207  0.00  0.00    +0.000 C 
ENDBRANCH   4   2
ENDBRANCH   5   4
BRANCH  11  12
ATOM     12  C   UNL     1      -4.397  -0.930  24.378  0.00  0.00    +0.170 C 
BRANCH  12  13
ATOM     13  C   UNL     1      -3.987  -1.589  24.658  0.00  0.00    +0.144 A 
ATOM     14  N   UNL     1      -3.583  -1.640  25.375  0.00  0.00    -0.227 NA
ATOM     15  C   UNL     1      -3.256  -2.395  25.430  0.00  0.00    +0.119 A 
ATOM     16  C   UNL     1      -3.457  -2.810  24.747  0.00  0.00    +0.098 A 
ATOM     17  N   UNL     1      -3.909  -2.312  24.269  0.00  0.00    -0.310 N 
ATOM     18  C   UNL     1      -4.228  -2.504  23.533  0.00  0.00    +0.132 C 
ENDBRANCH  12  13
ENDBRANCH  11  12
TORSDOF 7
ENDMDL
MODEL 6
REMARK VINA RESULT:     -10.5      1.471      3.315
REMARK  Name = 
REMARK  7 active torsions:
REMARK  status: ('A' for Active; 'I' for Inactive)
REMARK    1  A    between atoms: C_2  and  C_4
REMARK    2  A    between atoms: C_4  and  C_5
REMARK    3  A    between atoms: C_7  and  C_25
REMARK    4  A    between atoms: N_11  and  C_12
REMARK    5  A    between atoms: C_12  and  C_13
REMARK    6  A    between atoms: N_27  and  C_28
REMARK    7  A    between atoms: C_28  and  C_29
REMARK                            x       y       z     vdW  Elec       q    Type
REMARK                         _______ _______ _______ _____ _____    ______ ____
ROOT
ATOM      5  C   UNL     1      -1.350   2.422  24.451  0.00  0.00    +0.095 C 
ATOM      6  N   UNL     1      -2.114   2.713  24.338  0.00  0.00    -0.207 NA
ATOM      7  C   UNL     1      -2.819   2.292  24.258  0.00  0.00    +0.155 C 
ATOM      8  C   UNL     1      -2.934   1.475  24.270  0.00  0.00    +0.055 C 
ATOM      9  C   UNL     1      -2.373   0.878  24.366  0.00  0.00    -0.002 A 
ATOM     10  C   UNL     1      -2.559   0.074  24.368  0.00  0.00    +0.072 A 
ATOM     11  N   UNL     1      -1.860  -0.350  24.477  0.00  0.00    -0.319 N 
ATOM     19  C   UNL     1      -1.241   0.191  24.542  0.00  0.00    +0.060 A 
ATOM     20  C   UNL     1      -1.558   0.950  24.473  0.00  0.00    +0.011 A 
ATOM     21  C   UNL     1      -1.103   1.638  24.511  0.00  0.00    -0.005 A 
ATOM     22  C   UNL     1      -0.252   1.509  24.630  0.00  0.00    -0.003 A 
ATOM     23  C   UNL     1       0.065   0.750  24.699  0.00  0.00    +0.001 A 
ATOM     24  C   UNL     1      -0.430   0.091  24.654  0.00  0.00    +0.017 A 
ENDROOT
BRANCH   7  25
ATOM     25  C   UNL     1      -3.498   2.748  24.151  0.00  0.00    +0.258 C 
ATOM     26  O   UNL     1      -3.665   3.071  23.411  0.00  0.00    -0.272 OA
ATOM     27  N   UNL     1      -4.010   2.880  24.785  0.00  0.00    -0.204 NA
BRANCH  27  28
ATOM     28  C   UNL     1      -4.689   3.335  24.678  0.00  0.00    +0.115 C 
BRANCH  28  29
ATOM     29  C   UNL     1      -5.234   3.414  25.293  0.00  0.00    +0.022 C 
ATOM     30  C   UNL     1      -5.803   3.860  25.691  0.00  0.00    +0.002 C 
ATOM     31  C   UNL     1      -5.608   3.105  25.959  0.00  0.00    +0.002 C 
ENDBRANCH  28  29
ENDBRANCH  27  28
ENDBRANCH   7  25
BRANCH   5   4
ATOM      4  C   UNL     1      -0.756   2.991  24.512  0.00  0.00    +0.022 C 
BRANCH   4   2
ATOM      1  C   UNL     1      -0.976   3.637  25.767  0.00  0.00    +0.000 C 
ATOM      2  C   UNL     1      -0.888   3.679  24.948  0.00  0.00    +0.002 C 
ATOM      3  C   UNL     1      -0.930   4.409  24.564  0.00  0.00    +0.000 C 
ENDBRANCH   4   2
ENDBRANCH   5   4
BRANCH  11  12
ATOM     12  C   UNL     1      -1.792  -1.171  24.514  0.00  0.00    +0.170 C 
BRANCH  12  13
ATOM     13  C   UNL     1      -2.413  -1.625  24.811  0.00  0.00    +0.144 A 
ATOM     14  N   UNL     1      -2.955  -1.388  25.386  0.00  0.00    -0.227 NA
ATOM     15  C   UNL     1      -3.479  -2.012  25.515  0.00  0.00    +0.119 A 
ATOM     16  C   UNL     1      -3.262  -2.634  25.019  0.00  0.00    +0.098 A 
ATOM     17  N   UNL     1      -2.603  -2.395  24.584  0.00  0.00    -0.310 N 
ATOM     18  C   UNL     1      -2.204  -2.847  24.020  0.00  0.00    +0.132 C 
ENDBRANCH  12  13
ENDBRANCH  11  12
TORSDOF 7
ENDMDL
MODEL 7
REMARK VINA RESULT:     -10.3      1.740      4.046
REMARK  Name = 
REMARK  7 active torsions:
REMARK  status: ('A' for Active; 'I' for Inactive)
REMARK    1  A    between atoms: C_2  and  C_4
REMARK    2  A    between atoms: C_4  and  C_5
REMARK    3  A    between atoms: C_7  and  C_25
REMARK    4  A    between atoms: N_11  and  C_12
REMARK    5  A    between atoms: C_12  and  C_13
REMARK    6  A    between atoms: N_27  and  C_28
REMARK    7  A    between atoms: C_28  and  C_29
REMARK                            x       y       z     vdW  Elec       q    Type
REMARK                         _______ _______ _______ _____ _____    ______ ____
ROOT
ATOM      5  C   UNL     1      -2.701  -1.192  24.522  0.00  0.00    +0.095 C 
ATOM      6  N   UNL     1      -3.415  -0.779  24.502  0.00  0.00    -0.207 NA
ATOM      7  C   UNL     1      -3.543   0.031  24.597  0.00  0.00    +0.155 C 
ATOM      8  C   UNL     1      -2.989   0.627  24.735  0.00  0.00    +0.055 C 
ATOM      9  C   UNL     1      -2.170   0.560  24.812  0.00  0.00    -0.002 A 
ATOM     10  C   UNL     1      -1.673   1.204  24.950  0.00  0.00    +0.072 A 
ATOM     11  N   UNL     1      -0.898   0.923  24.994  0.00  0.00    -0.319 N 
ATOM     19  C   UNL     1      -0.917   0.105  24.883  0.00  0.00    +0.060 A 
ATOM     20  C   UNL     1      -1.703  -0.119  24.770  0.00  0.00    +0.011 A 
ATOM     21  C   UNL     1      -1.940  -0.899  24.641  0.00  0.00    -0.005 A 
ATOM     22  C   UNL     1      -1.295  -1.481  24.631  0.00  0.00    -0.003 A 
ATOM     23  C   UNL     1      -0.509  -1.257  24.743  0.00  0.00    +0.001 A 
ATOM     24  C   UNL     1      -0.320  -0.464  24.869  0.00  0.00    +0.017 A 
ENDROOT
BRANCH   7  25
ATOM     25  C   UNL     1      -4.329   0.277  24.547  0.00  0.00    +0.258 C 
ATOM     26  O   UNL     1      -4.816  -0.017  23.950  0.00  0.00    -0.272 OA
ATOM     27  N   UNL     1      -4.627   0.817  25.096  0.00  0.00    -0.204 NA
BRANCH  27  28
ATOM     28  C   UNL     1      -5.413   1.063  25.046  0.00  0.00    +0.115 C 
BRANCH  28  29
ATOM     29  C   UNL     1      -5.671   1.710  25.489  0.00  0.00    +0.022 C 
ATOM     30  C   UNL     1      -6.139   2.022  26.093  0.00  0.00    +0.002 C 
ATOM     31  C   UNL     1      -5.650   2.518  25.652  0.00  0.00    +0.002 C 
ENDBRANCH  28  29
ENDBRANCH  27  28
ENDBRANCH   7  25
BRANCH   5   4
ATOM      4  C   UNL     1      -2.757  -2.007  24.407  0.00  0.00    +0.022 C 
BRANCH   4   2
ATOM      1  C   UNL     1      -3.464  -2.563  25.518  0.00  0.00    +0.000 C 
ATOM      2  C   UNL     1      -3.405  -2.422  24.707  0.00  0.00    +0.002 C 
ATOM      3  C   UNL     1      -3.992  -2.695  24.196  0.00  0.00    +0.000 C 
ENDBRANCH   4   2
ENDBRANCH   5   4
BRANCH  11  12
ATOM     12  C   UNL     1      -0.223   1.378  25.126  0.00  0.00    +0.170 C 
BRANCH  12  13
ATOM     13  C   UNL     1      -0.245   2.193  25.003  0.00  0.00    +0.144 A 
ATOM     14  N   UNL     1      -0.443   2.573  24.297  0.00  0.00    -0.227 NA
ATOM     15  C   UNL     1      -0.392   3.386  24.422  0.00  0.00    +0.119 A 
ATOM     16  C   UNL     1      -0.163   3.510  25.205  0.00  0.00    +0.098 A 
ATOM     17  N   UNL     1      -0.072   2.773  25.564  0.00  0.00    -0.310 N 
ATOM     18  C   UNL     1       0.153   2.639  26.346  0.00  0.00    +0.132 C 
ENDBRANCH  12  13
ENDBRANCH  11  12
TORSDOF 7
ENDMDL
