MODEL 1
REMARK VINA RESULT:      -9.5      0.000      0.000
REMARK  Name = 
REMARK  5 active torsions:
REMARK  status: ('A' for Active; 'I' for Inactive)
REMARK    1  A    between atoms: C_2  and  C_27
REMARK    2  A    between atoms: N_3  and  C_4
REMARK    3  A    between atoms: C_8  and  N_12
REMARK    4  A    between atoms: C_15  and  C_19
REMARK    5  A    between atoms: C_23  and  C_25
REMARK                            x       y       z     vdW  Elec       q    Type
REMARK                         _______ _______ _______ _____ _____    ______ ____
ROOT
ATOM      4  C   UNL     1       0.933   0.883  23.843  0.00  0.00    +0.155 C 
ATOM      5  C   UNL     1       0.498   0.183  23.850  0.00  0.00    +0.166 C 
ATOM      6  O   UNL     1      -0.244   0.347  24.169  0.00  0.00    -0.350 OA
ATOM      7  C   UNL     1      -0.269   1.149  24.359  0.00  0.00    +0.166 C 
ATOM      8  C   UNL     1      -0.742   1.747  24.674  0.00  0.00    +0.154 C 
ATOM      9  C   UNL     1      -0.307   2.448  24.667  0.00  0.00    +0.166 C 
ATOM     10  O   UNL     1       0.436   2.283  24.348  0.00  0.00    -0.350 OA
ATOM     11  C   UNL     1       0.459   1.480  24.158  0.00  0.00    +0.166 C 
ENDROOT
BRANCH   8  12
ATOM     12  N   UNL     1      -1.515   1.660  24.948  0.00  0.00    -0.200 NA
ATOM     13  C   UNL     1      -2.141   2.006  24.536  0.00  0.00    +0.237 A 
ATOM     14  N   UNL     1      -2.914   1.919  24.810  0.00  0.00    -0.212 NA
ATOM     15  C   UNL     1      -3.539   2.265  24.398  0.00  0.00    +0.086 A 
ATOM     16  C   UNL     1      -3.391   2.699  23.712  0.00  0.00    +0.040 A 
ATOM     17  C   UNL     1      -2.618   2.787  23.438  0.00  0.00    +0.103 A 
ATOM     18  N   UNL     1      -1.993   2.440  23.851  0.00  0.00    -0.211 NA
BRANCH  15  19
ATOM     19  C   UNL     1      -4.312   2.178  24.671  0.00  0.00    +0.018 A 
ATOM     20  C   UNL     1      -4.691   1.445  24.612  0.00  0.00    +0.002 A 
ATOM     21  C   UNL     1      -5.463   1.358  24.886  0.00  0.00    +0.001 A 
ATOM     22  C   UNL     1      -5.859   2.001  25.218  0.00  0.00    +0.010 A 
ATOM     23  C   UNL     1      -5.481   2.732  25.277  0.00  0.00    +0.068 A 
ATOM     24  C   UNL     1      -4.708   2.820  25.003  0.00  0.00    +0.012 A 
BRANCH  23  25
ATOM     25  C   UNL     1      -5.876   3.375  25.609  0.00  0.00    +0.100 C 
ATOM     26  N   UNL     1      -6.271   4.019  25.943  0.00  0.00    -0.191 NA
ENDBRANCH  23  25
ENDBRANCH  15  19
ENDBRANCH   8  12
BRANCH   4   3
ATOM      1  O   UNL     1       1.558  -0.206  22.772  0.00  0.00    -0.265 OA
ATOM      2  C   UNL     1       2.019   0.426  23.034  0.00  0.00    +0.300 C 
ATOM      3  N   UNL     1       1.707   0.971  23.569  0.00  0.00    -0.196 NA
BRANCH   2  27
ATOM     27  C   UNL     1       2.792   0.514  22.760  0.00  0.00    +0.200 A 
ATOM     28  C   UNL     1       3.109   0.167  22.082  0.00  0.00    +0.046 A 
ATOM     29  C   UNL     1       3.897   0.403  22.019  0.00  0.00    +0.044 A 
ATOM     30  C   UNL     1       4.068   0.896  22.658  0.00  0.00    +0.180 A 
ATOM     31  O   UNL     1       3.385   0.965  23.116  0.00  0.00    -0.446 OA
ENDBRANCH   2  27
ENDBRANCH   4   3
TORSDOF 5
ENDMDL
MODEL 2
REMARK VINA RESULT:      -9.4      1.538      2.190
REMARK  Name = 
REMARK  5 active torsions:
REMARK  status: ('A' for Active; 'I' for Inactive)
REMARK    1  A    between atoms: C_2  and  C_27
REMARK    2  A    between atoms: N_3  and  C_4
REMARK    3  A    between atoms: C_8  and  N_12
REMARK    4  A    between atoms: C_15  and  C_19
REMARK    5  A    between atoms: C_23  and  C_25
REMARK                            x       y       z     vdW  Elec       q    Type
REMARK                         _______ _______ _______ _____ _____    ______ ____
ROOT
ATOM      4  C   UNL     1       2.129   0.434  23.054  0.00  0.00    +0.155 C 
ATOM      5  C   UNL     1       1.773  -0.114  22.552  0.00  0.00    +0.166 C 
ATOM      6  O   UNL     1       0.956  -0.057  22.651  0.00  0.00    -0.350 OA
ATOM      7  C   UNL     1       0.808   0.525  23.215  0.00  0.00    +0.166 C 
ATOM      8  C   UNL     1       0.212   0.922  23.626  0.00  0.00    +0.154 C 
ATOM      9  C   UNL     1       0.569   1.470  24.129  0.00  0.00    +0.166 C 
ATOM     10  O   UNL     1       1.385   1.413  24.029  0.00  0.00    -0.350 OA
ATOM     11  C   UNL     1       1.533   0.829  23.464  0.00  0.00    +0.166 C 
ENDROOT
BRANCH   8  12
ATOM     12  N   UNL     1      -0.599   0.792  23.547  0.00  0.00    -0.200 NA
ATOM     13  C   UNL     1      -1.040   0.531  24.194  0.00  0.00    +0.237 A 
ATOM     14  N   UNL     1      -1.851   0.401  24.116  0.00  0.00    -0.212 NA
ATOM     15  C   UNL     1      -2.292   0.140  24.762  0.00  0.00    +0.086 A 
ATOM     16  C   UNL     1      -1.921   0.008  25.487  0.00  0.00    +0.040 A 
ATOM     17  C   UNL     1      -1.110   0.138  25.566  0.00  0.00    +0.103 A 
ATOM     18  N   UNL     1      -0.670   0.399  24.919  0.00  0.00    -0.211 NA
BRANCH  15  19
ATOM     19  C   UNL     1      -3.102   0.010  24.684  0.00  0.00    +0.018 A 
ATOM     20  C   UNL     1      -3.382  -0.739  24.477  0.00  0.00    +0.002 A 
ATOM     21  C   UNL     1      -4.193  -0.869  24.399  0.00  0.00    +0.001 A 
ATOM     22  C   UNL     1      -4.724  -0.251  24.527  0.00  0.00    +0.010 A 
ATOM     23  C   UNL     1      -4.444   0.497  24.734  0.00  0.00    +0.068 A 
ATOM     24  C   UNL     1      -3.633   0.627  24.812  0.00  0.00    +0.012 A 
BRANCH  23  25
ATOM     25  C   UNL     1      -4.975   1.116  24.862  0.00  0.00    +0.100 C 
ATOM     26  N   UNL     1      -5.506   1.734  24.990  0.00  0.00    -0.191 NA
ENDBRANCH  23  25
ENDBRANCH  15  19
ENDBRANCH   8  12
BRANCH   4   3
ATOM      1  O   UNL     1       3.164  -0.848  23.163  0.00  0.00    -0.265 OA
ATOM      2  C   UNL     1       3.457  -0.077  23.187  0.00  0.00    +0.300 C 
ATOM      3  N   UNL     1       2.941   0.563  23.133  0.00  0.00    -0.196 NA
BRANCH   2  27
ATOM     27  C   UNL     1       4.269   0.052  23.266  0.00  0.00    +0.200 A 
ATOM     28  C   UNL     1       4.809  -0.460  23.620  0.00  0.00    +0.046 A 
ATOM     29  C   UNL     1       5.556  -0.112  23.577  0.00  0.00    +0.044 A 
ATOM     30  C   UNL     1       5.477   0.616  23.196  0.00  0.00    +0.180 A 
ATOM     31  O   UNL     1       4.681   0.717  23.004  0.00  0.00    -0.446 OA
ENDBRANCH   2  27
ENDBRANCH   4   3
TORSDOF 5
ENDMDL
MODEL 3
REMARK VINA RESULT:      -8.7      1.654      6.806
REMARK  Name = 
REMARK  5 active torsions:
REMARK  status: ('A' for Active; 'I' for Inactive)
REMARK    1  A    between atoms: C_2  and  C_27
REMARK    2  A    between atoms: N_3  and  C_4
REMARK    3  A    between atoms: C_8  and  N_12
REMARK    4  A    between atoms: C_15  and  C_19
REMARK    5  A    between atoms: C_23  and  C_25
REMARK                            x       y       z     vdW  Elec       q    Type
REMARK                         _______ _______ _______ _____ _____    ______ ____
ROOT
ATOM      4  C   UNL     1      -2.508   2.413  24.712  0.00  0.00    +0.155 C 
ATOM      5  C   UNL     1      -2.298   2.878  24.064  0.00  0.00    +0.166 C 
ATOM      6  O   UNL     1      -1.520   2.695  23.861  0.00  0.00    -0.350 OA
ATOM      7  C   UNL     1      -1.248   2.119  24.383  0.00  0.00    +0.166 C 
ATOM      8  C   UNL     1      -0.600   1.649  24.582  0.00  0.00    +0.154 C 
ATOM      9  C   UNL     1      -0.809   1.184  25.230  0.00  0.00    +0.166 C 
ATOM     10  O   UNL     1      -1.588   1.367  25.433  0.00  0.00    -0.350 OA
ATOM     11  C   UNL     1      -1.859   1.944  24.910  0.00  0.00    +0.166 C 
ENDROOT
BRANCH   8  12
ATOM     12  N   UNL     1       0.131   1.645  24.198  0.00  0.00    -0.200 NA
ATOM     13  C   UNL     1       0.412   0.950  23.852  0.00  0.00    +0.237 A 
ATOM     14  N   UNL     1       1.142   0.946  23.469  0.00  0.00    -0.212 NA
ATOM     15  C   UNL     1       1.423   0.252  23.123  0.00  0.00    +0.086 A 
ATOM     16  C   UNL     1       0.973  -0.439  23.161  0.00  0.00    +0.040 A 
ATOM     17  C   UNL     1       0.242  -0.435  23.544  0.00  0.00    +0.103 A 
ATOM     18  N   UNL     1      -0.038   0.260  23.890  0.00  0.00    -0.211 NA
BRANCH  15  19
ATOM     19  C   UNL     1       2.153   0.247  22.740  0.00  0.00    +0.018 A 
ATOM     20  C   UNL     1       2.198   0.043  21.940  0.00  0.00    +0.002 A 
ATOM     21  C   UNL     1       2.928   0.039  21.557  0.00  0.00    +0.001 A 
ATOM     22  C   UNL     1       3.613   0.238  21.971  0.00  0.00    +0.010 A 
ATOM     23  C   UNL     1       3.568   0.442  22.769  0.00  0.00    +0.068 A 
ATOM     24  C   UNL     1       2.837   0.447  23.153  0.00  0.00    +0.012 A 
BRANCH  23  25
ATOM     25  C   UNL     1       4.252   0.642  23.184  0.00  0.00    +0.100 C 
ATOM     26  N   UNL     1       4.937   0.843  23.598  0.00  0.00    -0.191 NA
ENDBRANCH  23  25
ENDBRANCH  15  19
ENDBRANCH   8  12
BRANCH   4   3
ATOM      1  O   UNL     1      -3.896   2.621  23.843  0.00  0.00    -0.265 OA
ATOM      2  C   UNL     1      -3.932   2.521  24.661  0.00  0.00    +0.300 C 
ATOM      3  N   UNL     1      -3.239   2.417  25.096  0.00  0.00    -0.196 NA
BRANCH   2  27
ATOM     27  C   UNL     1      -4.663   2.525  25.045  0.00  0.00    +0.200 A 
ATOM     28  C   UNL     1      -5.211   1.909  25.050  0.00  0.00    +0.046 A 
ATOM     29  C   UNL     1      -5.860   2.149  25.499  0.00  0.00    +0.044 A 
ATOM     30  C   UNL     1      -5.713   2.914  25.771  0.00  0.00    +0.180 A 
ATOM     31  O   UNL     1      -4.973   3.147  25.491  0.00  0.00    -0.446 OA
ENDBRANCH   2  27
ENDBRANCH   4   3
TORSDOF 5
ENDMDL
