MODEL 1
REMARK VINA RESULT:     -11.8      0.000      0.000
REMARK  Name = 
REMARK  4 active torsions:
REMARK  status: ('A' for Active; 'I' for Inactive)
REMARK    1  A    between atoms: C_4  and  C_11
REMARK    2  A    between atoms: N_5  and  C_6
REMARK    3  A    between atoms: C_6  and  C_7
REMARK    4  A    between atoms: C_13  and  C_16
REMARK                            x       y       z     vdW  Elec       q    Type
REMARK                         _______ _______ _______ _____ _____    ______ ____
ROOT
ATOM     11  C   UNL     1      -4.128   1.514  24.637  0.00  0.00    +0.251 A 
ATOM     12  N   UNL     1      -4.160   0.770  24.995  0.00  0.00    -0.190 NA
ATOM     13  C   UNL     1      -3.867   0.217  24.457  0.00  0.00    +0.203 A 
ATOM     14  N   UNL     1      -3.654   0.618  23.769  0.00  0.00    -0.056 NA
ATOM     15  O   UNL     1      -3.816   1.419  23.880  0.00  0.00    -0.336 OA
ENDROOT
BRANCH  13  16
ATOM     16  C   UNL     1      -3.799  -0.595  24.587  0.00  0.00    +0.039 A 
ATOM     17  C   UNL     1      -3.438  -0.874  25.274  0.00  0.00    +0.005 A 
ATOM     18  C   UNL     1      -3.371  -1.687  25.403  0.00  0.00    +0.030 A 
ATOM     19  C   UNL     1      -3.664  -2.219  24.845  0.00  0.00    +0.140 A 
ATOM     20  F   UNL     1      -3.596  -3.031  24.974  0.00  0.00    -0.204 F 
ATOM     21  C   UNL     1      -4.024  -1.939  24.157  0.00  0.00    +0.030 A 
ATOM     22  C   UNL     1      -4.092  -1.127  24.029  0.00  0.00    +0.005 A 
ENDBRANCH  13  16
BRANCH  11   4
ATOM      1  O   UNL     1      -5.779   3.614  25.779  0.00  0.00    -0.222 OA
ATOM      2  C   UNL     1      -5.125   3.191  25.503  0.00  0.00    +0.170 C 
ATOM      3  C   UNL     1      -5.140   2.432  25.178  0.00  0.00    +0.060 C 
ATOM      4  C   UNL     1      -4.366   2.226  24.978  0.00  0.00    +0.140 C 
ATOM      5  N   UNL     1      -3.874   2.856  25.179  0.00  0.00    -0.264 NA
ATOM     10  C   UNL     1      -4.343   3.453  25.503  0.00  0.00    +0.106 C 
BRANCH   5   6
ATOM      6  C   UNL     1      -3.057   2.886  25.074  0.00  0.00    +0.073 C 
BRANCH   6   7
ATOM      7  C   UNL     1      -2.623   3.514  25.386  0.00  0.00    +0.016 C 
ATOM      8  C   UNL     1      -2.283   4.261  25.298  0.00  0.00    +0.001 C 
ATOM      9  C   UNL     1      -2.211   3.856  26.014  0.00  0.00    +0.001 C 
ENDBRANCH   6   7
ENDBRANCH   5   6
ENDBRANCH  11   4
TORSDOF 4
ENDMDL
MODEL 2
REMARK VINA RESULT:     -10.9      2.103      4.658
REMARK  Name = 
REMARK  4 active torsions:
REMARK  status: ('A' for Active; 'I' for Inactive)
REMARK    1  A    between atoms: C_4  and  C_11
REMARK    2  A    between atoms: N_5  and  C_6
REMARK    3  A    between atoms: C_6  and  C_7
REMARK    4  A    between atoms: C_13  and  C_16
REMARK                            x       y       z     vdW  Elec       q    Type
REMARK                         _______ _______ _______ _____ _____    ______ ____
ROOT
ATOM     11  C   UNL     1      -2.922   0.583  24.393  0.00  0.00    +0.251 A 
ATOM     12  N   UNL     1      -3.362   1.030  24.931  0.00  0.00    -0.190 NA
ATOM     13  C   UNL     1      -3.803   1.580  24.502  0.00  0.00    +0.203 A 
ATOM     14  N   UNL     1      -3.637   1.473  23.702  0.00  0.00    -0.056 NA
ATOM     15  O   UNL     1      -3.092   0.857  23.635  0.00  0.00    -0.336 OA
ENDROOT
BRANCH  13  16
ATOM     16  C   UNL     1      -4.320   2.138  24.820  0.00  0.00    +0.039 A 
ATOM     17  C   UNL     1      -5.101   1.931  24.986  0.00  0.00    +0.005 A 
ATOM     18  C   UNL     1      -5.618   2.491  25.304  0.00  0.00    +0.030 A 
ATOM     19  C   UNL     1      -5.353   3.257  25.456  0.00  0.00    +0.140 A 
ATOM     20  F   UNL     1      -5.870   3.816  25.774  0.00  0.00    -0.204 F 
ATOM     21  C   UNL     1      -4.572   3.465  25.291  0.00  0.00    +0.030 A 
ATOM     22  C   UNL     1      -4.056   2.905  24.973  0.00  0.00    +0.005 A 
ENDBRANCH  13  16
BRANCH  11   4
ATOM      1  O   UNL     1      -0.516  -0.877  25.110  0.00  0.00    -0.222 OA
ATOM      2  C   UNL     1      -1.298  -0.701  24.912  0.00  0.00    +0.170 C 
ATOM      3  C   UNL     1      -1.601   0.050  24.755  0.00  0.00    +0.060 C 
ATOM      4  C   UNL     1      -2.404  -0.030  24.583  0.00  0.00    +0.140 C 
ATOM      5  N   UNL     1      -2.597  -0.830  24.633  0.00  0.00    -0.264 NA
ATOM     10  C   UNL     1      -1.913  -1.245  24.836  0.00  0.00    +0.106 C 
BRANCH   5   6
ATOM      6  C   UNL     1      -3.342  -1.158  24.502  0.00  0.00    +0.073 C 
BRANCH   6   7
ATOM      7  C   UNL     1      -3.449  -1.975  24.559  0.00  0.00    +0.016 C 
ATOM      8  C   UNL     1      -3.539  -2.653  25.019  0.00  0.00    +0.001 C 
ATOM      9  C   UNL     1      -3.545  -2.709  24.196  0.00  0.00    +0.001 C 
ENDBRANCH   6   7
ENDBRANCH   5   6
ENDBRANCH  11   4
TORSDOF 4
ENDMDL
MODEL 3
REMARK VINA RESULT:     -10.7      1.036      1.764
REMARK  Name = 
REMARK  4 active torsions:
REMARK  status: ('A' for Active; 'I' for Inactive)
REMARK    1  A    between atoms: C_4  and  C_11
REMARK    2  A    between atoms: N_5  and  C_6
REMARK    3  A    between atoms: C_6  and  C_7
REMARK    4  A    between atoms: C_13  and  C_16
REMARK                            x       y       z     vdW  Elec       q    Type
REMARK                         _______ _______ _______ _____ _____    ______ ____
ROOT
ATOM     11  C   UNL     1      -3.303   1.197  24.369  0.00  0.00    +0.251 A 
ATOM     12  N   UNL     1      -3.331   0.476  24.770  0.00  0.00    -0.190 NA
ATOM     13  C   UNL     1      -3.484  -0.116  24.217  0.00  0.00    +0.203 A 
ATOM     14  N   UNL     1      -3.551   0.239  23.475  0.00  0.00    -0.056 NA
ATOM     15  O   UNL     1      -3.439   1.050  23.570  0.00  0.00    -0.336 OA
ENDROOT
BRANCH  13  16
ATOM     16  C   UNL     1      -3.558  -0.922  24.378  0.00  0.00    +0.039 A 
ATOM     17  C   UNL     1      -3.228  -1.237  25.065  0.00  0.00    +0.005 A 
ATOM     18  C   UNL     1      -3.303  -2.043  25.226  0.00  0.00    +0.030 A 
ATOM     19  C   UNL     1      -3.707  -2.534  24.699  0.00  0.00    +0.140 A 
ATOM     20  F   UNL     1      -3.780  -3.339  24.860  0.00  0.00    -0.204 F 
ATOM     21  C   UNL     1      -4.036  -2.218  24.012  0.00  0.00    +0.030 A 
ATOM     22  C   UNL     1      -3.962  -1.412  23.851  0.00  0.00    +0.005 A 
ENDBRANCH  13  16
BRANCH  11   4
ATOM      1  O   UNL     1      -1.950   3.526  25.459  0.00  0.00    -0.222 OA
ATOM      2  C   UNL     1      -2.541   3.006  25.210  0.00  0.00    +0.170 C 
ATOM      3  C   UNL     1      -2.423   2.262  24.872  0.00  0.00    +0.060 C 
ATOM      4  C   UNL     1      -3.163   1.936  24.710  0.00  0.00    +0.140 C 
ATOM      5  N   UNL     1      -3.738   2.477  24.947  0.00  0.00    -0.264 NA
ATOM     10  C   UNL     1      -3.354   3.139  25.256  0.00  0.00    +0.106 C 
BRANCH   5   6
ATOM      6  C   UNL     1      -4.555   2.375  24.886  0.00  0.00    +0.073 C 
BRANCH   6   7
ATOM      7  C   UNL     1      -5.064   2.852  25.326  0.00  0.00    +0.016 C 
ATOM      8  C   UNL     1      -5.544   2.964  25.987  0.00  0.00    +0.001 C 
ATOM      9  C   UNL     1      -5.466   3.564  25.427  0.00  0.00    +0.001 C 
ENDBRANCH   6   7
ENDBRANCH   5   6
ENDBRANCH  11   4
TORSDOF 4
ENDMDL
MODEL 4
REMARK VINA RESULT:     -10.6      2.174      2.950
REMARK  Name = 
REMARK  4 active torsions:
REMARK  status: ('A' for Active; 'I' for Inactive)
REMARK    1  A    between atoms: C_4  and  C_11
REMARK    2  A    between atoms: N_5  and  C_6
REMARK    3  A    between atoms: C_6  and  C_7
REMARK    4  A    between atoms: C_13  and  C_16
REMARK                            x       y       z     vdW  Elec       q    Type
REMARK                         _______ _______ _______ _____ _____    ______ ____
ROOT
ATOM     11  C   UNL     1      -1.522   0.365  25.031  0.00  0.00    +0.251 A 
ATOM     12  N   UNL     1      -2.024  -0.032  24.509  0.00  0.00    -0.190 NA
ATOM     13  C   UNL     1      -2.433  -0.606  24.938  0.00  0.00    +0.203 A 
ATOM     14  N   UNL     1      -2.184  -0.565  25.723  0.00  0.00    -0.056 NA
ATOM     15  O   UNL     1      -1.621   0.036  25.780  0.00  0.00    -0.336 OA
ENDROOT
BRANCH  13  16
ATOM     16  C   UNL     1      -2.992  -1.130  24.633  0.00  0.00    +0.039 A 
ATOM     17  C   UNL     1      -2.864  -1.944  24.679  0.00  0.00    +0.005 A 
ATOM     18  C   UNL     1      -3.424  -2.468  24.374  0.00  0.00    +0.030 A 
ATOM     19  C   UNL     1      -4.112  -2.178  24.023  0.00  0.00    +0.140 A 
ATOM     20  F   UNL     1      -4.672  -2.702  23.719  0.00  0.00    -0.204 F 
ATOM     21  C   UNL     1      -4.241  -1.364  23.978  0.00  0.00    +0.030 A 
ATOM     22  C   UNL     1      -3.681  -0.840  24.282  0.00  0.00    +0.005 A 
ENDBRANCH  13  16
BRANCH  11   4
ATOM      1  O   UNL     1       0.794   1.840  24.084  0.00  0.00    -0.222 OA
ATOM      2  C   UNL     1       0.053   1.661  24.401  0.00  0.00    +0.170 C 
ATOM      3  C   UNL     1      -0.261   0.904  24.503  0.00  0.00    +0.060 C 
ATOM      4  C   UNL     1      -1.011   0.983  24.837  0.00  0.00    +0.140 C 
ATOM      5  N   UNL     1      -1.161   1.787  24.941  0.00  0.00    -0.264 NA
ATOM     10  C   UNL     1      -0.503   2.206  24.672  0.00  0.00    +0.106 C 
BRANCH   5   6
ATOM      6  C   UNL     1      -1.847   2.115  25.259  0.00  0.00    +0.073 C 
BRANCH   6   7
ATOM      7  C   UNL     1      -1.904   2.931  25.366  0.00  0.00    +0.016 C 
ATOM      8  C   UNL     1      -2.141   3.673  25.093  0.00  0.00    +0.001 C 
ATOM      9  C   UNL     1      -1.764   3.603  25.824  0.00  0.00    +0.001 C 
ENDBRANCH   6   7
ENDBRANCH   5   6
ENDBRANCH  11   4
TORSDOF 4
ENDMDL
MODEL 5
REMARK VINA RESULT:     -10.6      2.779      5.157
REMARK  Name = 
REMARK  4 active torsions:
REMARK  status: ('A' for Active; 'I' for Inactive)
REMARK    1  A    between atoms: C_4  and  C_11
REMARK    2  A    between atoms: N_5  and  C_6
REMARK    3  A    between atoms: C_6  and  C_7
REMARK    4  A    between atoms: C_13  and  C_16
REMARK                            x       y       z     vdW  Elec       q    Type
REMARK                         _______ _______ _______ _____ _____    ______ ____
ROOT
ATOM     11  C   UNL     1      -1.456   1.137  24.465  0.00  0.00    +0.251 A 
ATOM     12  N   UNL     1      -1.455   1.801  24.955  0.00  0.00    -0.190 NA
ATOM     13  C   UNL     1      -1.485   2.471  24.475  0.00  0.00    +0.203 A 
ATOM     14  N   UNL     1      -1.504   2.221  23.689  0.00  0.00    -0.056 NA
ATOM     15  O   UNL     1      -1.485   1.397  23.684  0.00  0.00    -0.336 OA
ENDROOT
BRANCH  13  16
ATOM     16  C   UNL     1      -1.495   3.254  24.736  0.00  0.00    +0.039 A 
ATOM     17  C   UNL     1      -0.817   3.719  24.672  0.00  0.00    +0.005 A 
ATOM     18  C   UNL     1      -0.827   4.501  24.933  0.00  0.00    +0.030 A 
ATOM     19  C   UNL     1      -1.516   4.819  25.258  0.00  0.00    +0.140 A 
ATOM     20  F   UNL     1      -1.526   5.602  25.518  0.00  0.00    -0.204 F 
ATOM     21  C   UNL     1      -2.195   4.354  25.322  0.00  0.00    +0.030 A 
ATOM     22  C   UNL     1      -2.184   3.572  25.060  0.00  0.00    +0.005 A 
ENDBRANCH  13  16
BRANCH  11   4
ATOM      1  O   UNL     1      -0.481  -1.433  25.405  0.00  0.00    -0.222 OA
ATOM      2  C   UNL     1      -0.982  -0.830  25.146  0.00  0.00    +0.170 C 
ATOM      3  C   UNL     1      -0.754  -0.065  24.939  0.00  0.00    +0.060 C 
ATOM      4  C   UNL     1      -1.430   0.351  24.714  0.00  0.00    +0.140 C 
ATOM      5  N   UNL     1      -2.076  -0.157  24.783  0.00  0.00    -0.264 NA
ATOM     10  C   UNL     1      -1.799  -0.887  25.050  0.00  0.00    +0.106 C 
BRANCH   5   6
ATOM      6  C   UNL     1      -2.861   0.031  24.615  0.00  0.00    +0.073 C 
BRANCH   6   7
ATOM      7  C   UNL     1      -3.452  -0.537  24.711  0.00  0.00    +0.016 C 
ATOM      8  C   UNL     1      -3.963  -1.097  24.387  0.00  0.00    +0.001 C 
ATOM      9  C   UNL     1      -3.963  -0.959  25.200  0.00  0.00    +0.001 C 
ENDBRANCH   6   7
ENDBRANCH   5   6
ENDBRANCH  11   4
TORSDOF 4
ENDMDL
MODEL 6
REMARK VINA RESULT:     -10.5      2.136      4.399
REMARK  Name = 
REMARK  4 active torsions:
REMARK  status: ('A' for Active; 'I' for Inactive)
REMARK    1  A    between atoms: C_4  and  C_11
REMARK    2  A    between atoms: N_5  and  C_6
REMARK    3  A    between atoms: C_6  and  C_7
REMARK    4  A    between atoms: C_13  and  C_16
REMARK                            x       y       z     vdW  Elec       q    Type
REMARK                         _______ _______ _______ _____ _____    ______ ____
ROOT
ATOM     11  C   UNL     1      -4.031   2.623  24.685  0.00  0.00    +0.251 A 
ATOM     12  N   UNL     1      -3.387   2.941  25.092  0.00  0.00    -0.190 NA
ATOM     13  C   UNL     1      -2.959   3.409  24.563  0.00  0.00    +0.203 A 
ATOM     14  N   UNL     1      -3.338   3.379  23.831  0.00  0.00    -0.056 NA
ATOM     15  O   UNL     1      -4.001   2.894  23.908  0.00  0.00    -0.336 OA
ENDROOT
BRANCH  13  16
ATOM     16  C   UNL     1      -2.272   3.831  24.737  0.00  0.00    +0.039 A 
ATOM     17  C   UNL     1      -2.324   4.602  25.027  0.00  0.00    +0.005 A 
ATOM     18  C   UNL     1      -1.636   5.024  25.201  0.00  0.00    +0.030 A 
ATOM     19  C   UNL     1      -0.897   4.675  25.084  0.00  0.00    +0.140 A 
ATOM     20  F   UNL     1      -0.210   5.098  25.258  0.00  0.00    -0.204 F 
ATOM     21  C   UNL     1      -0.846   3.905  24.794  0.00  0.00    +0.030 A 
ATOM     22  C   UNL     1      -1.533   3.483  24.621  0.00  0.00    +0.005 A 
ENDBRANCH  13  16
BRANCH  11   4
ATOM      1  O   UNL     1      -6.409   1.657  26.046  0.00  0.00    -0.222 OA
ATOM      2  C   UNL     1      -5.697   1.678  25.628  0.00  0.00    +0.170 C 
ATOM      3  C   UNL     1      -5.282   2.357  25.410  0.00  0.00    +0.060 C 
ATOM      4  C   UNL     1      -4.604   2.122  25.003  0.00  0.00    +0.140 C 
ATOM      5  N   UNL     1      -4.601   1.298  24.968  0.00  0.00    -0.264 NA
ATOM     10  C   UNL     1      -5.276   1.023  25.354  0.00  0.00    +0.106 C 
BRANCH   5   6
ATOM      6  C   UNL     1      -4.024   0.830  24.610  0.00  0.00    +0.073 C 
BRANCH   6   7
ATOM      7  C   UNL     1      -4.066   0.008  24.665  0.00  0.00    +0.016 C 
ATOM      8  C   UNL     1      -4.295  -0.718  24.347  0.00  0.00    +0.001 C 
ATOM      9  C   UNL     1      -3.911  -0.689  25.077  0.00  0.00    +0.001 C 
ENDBRANCH   6   7
ENDBRANCH   5   6
ENDBRANCH  11   4
TORSDOF 4
ENDMDL
