MODEL 1
REMARK VINA RESULT:     -10.0      0.000      0.000
REMARK  Name = 
REMARK  8 active torsions:
REMARK  status: ('A' for Active; 'I' for Inactive)
REMARK    1  A    between atoms: C_2  and  C_4
REMARK    2  A    between atoms: C_6  and  C_7
REMARK    3  A    between atoms: C_7  and  C_8
REMARK    4  A    between atoms: C_21  and  C_22
REMARK    5  A    between atoms: C_22  and  N_23
REMARK    6  A    between atoms: C_24  and  C_26
REMARK    7  A    between atoms: C_26  and  C_27
REMARK    8  A    between atoms: C_27  and  C_28
REMARK                            x       y       z     vdW  Elec       q    Type
REMARK                         _______ _______ _______ _____ _____    ______ ____
ROOT
ATOM      4  C   UNL     1      -1.516   1.576  24.568  0.00  0.00    +0.006 C 
ATOM      5  C   UNL     1      -2.161   2.086  24.499  0.00  0.00    +0.005 C 
ATOM      6  C   UNL     1      -2.491   2.238  23.759  0.00  0.00    +0.026 C 
ATOM     18  C   UNL     1      -2.176   1.880  23.086  0.00  0.00    -0.048 C 
ATOM     19  C   UNL     1      -2.506   2.032  22.345  0.00  0.00    +0.026 C 
ATOM     20  C   UNL     1      -1.531   1.370  23.153  0.00  0.00    -0.033 C 
ATOM     21  C   UNL     1      -1.200   1.218  23.894  0.00  0.00    +0.043 C 
ENDROOT
BRANCH   4   2
ATOM      1  C   UNL     1      -0.652   1.958  25.639  0.00  0.00    +0.000 C 
ATOM      2  C   UNL     1      -1.186   1.424  25.308  0.00  0.00    +0.000 C 
ATOM      3  C   UNL     1      -1.390   0.737  25.717  0.00  0.00    +0.000 C 
ENDBRANCH   4   2
BRANCH   6   7
ATOM      7  C   UNL     1      -3.136   2.748  23.691  0.00  0.00    +0.070 C 
BRANCH   7   8
ATOM      8  C   UNL     1      -3.786   2.660  24.190  0.00  0.00    +0.139 A 
ATOM      9  N   UNL     1      -3.987   3.157  24.818  0.00  0.00    -0.229 NA
ATOM     10  C   UNL     1      -4.675   2.864  25.166  0.00  0.00    +0.100 A 
ATOM     11  C   UNL     1      -4.900   2.186  24.754  0.00  0.00    +0.102 A 
ATOM     12  N   UNL     1      -4.351   2.060  24.151  0.00  0.00    -0.229 NA
ATOM     13  C   UNL     1      -5.576   1.771  24.980  0.00  0.00    +0.050 A 
ATOM     14  C   UNL     1      -6.027   2.034  25.619  0.00  0.00    +0.142 A 
ATOM     15  F   UNL     1      -6.704   1.619  25.845  0.00  0.00    -0.204 F 
ATOM     16  C   UNL     1      -5.802   2.713  26.031  0.00  0.00    +0.031 A 
ATOM     17  C   UNL     1      -5.126   3.128  25.805  0.00  0.00    +0.023 A 
ENDBRANCH   7   8
ENDBRANCH   6   7
BRANCH  21  22
ATOM     22  C   UNL     1      -0.556   0.708  23.961  0.00  0.00    +0.119 C 
BRANCH  22  23
ATOM     23  N   UNL     1       0.026   0.702  23.376  0.00  0.00    -0.205 NA
ATOM     24  C   UNL     1       0.525   0.049  23.298  0.00  0.00    +0.242 C 
ATOM     25  O   UNL     1       0.441  -0.598  23.804  0.00  0.00    -0.273 OA
BRANCH  24  26
ATOM     26  C   UNL     1       1.106   0.042  22.713  0.00  0.00    +0.099 C 
BRANCH  26  27
ATOM     27  C   UNL     1       1.900  -0.048  22.922  0.00  0.00    +0.124 C 
BRANCH  27  28
ATOM     28  C   UNL     1       2.492   0.110  22.370  0.00  0.00    +0.365 C 
ATOM     29  O   UNL     1       3.190   0.481  22.608  0.00  0.00    -0.246 OA
ATOM     30  O   UNL     1       2.386  -0.102  21.579  0.00  0.00    -0.246 OA
ENDBRANCH  27  28
ENDBRANCH  26  27
ENDBRANCH  24  26
ENDBRANCH  22  23
ENDBRANCH  21  22
TORSDOF 8
ENDMDL
MODEL 2
REMARK VINA RESULT:      -9.8      3.279      4.780
REMARK  Name = 
REMARK  8 active torsions:
REMARK  status: ('A' for Active; 'I' for Inactive)
REMARK    1  A    between atoms: C_2  and  C_4
REMARK    2  A    between atoms: C_6  and  C_7
REMARK    3  A    between atoms: C_7  and  C_8
REMARK    4  A    between atoms: C_21  and  C_22
REMARK    5  A    between atoms: C_22  and  N_23
REMARK    6  A    between atoms: C_24  and  C_26
REMARK    7  A    between atoms: C_26  and  C_27
REMARK    8  A    between atoms: C_27  and  C_28
REMARK                            x       y       z     vdW  Elec       q    Type
REMARK                         _______ _______ _______ _____ _____    ______ ____
ROOT
ATOM      4  C   UNL     1      -4.353   1.728  24.656  0.00  0.00    +0.006 C 
ATOM      5  C   UNL     1      -4.288   1.031  24.220  0.00  0.00    +0.005 C 
ATOM      6  C   UNL     1      -3.636   0.908  23.731  0.00  0.00    +0.026 C 
ATOM     18  C   UNL     1      -3.047   1.484  23.677  0.00  0.00    -0.048 C 
ATOM     19  C   UNL     1      -2.394   1.361  23.187  0.00  0.00    +0.026 C 
ATOM     20  C   UNL     1      -3.110   2.181  24.113  0.00  0.00    -0.033 C 
ATOM     21  C   UNL     1      -3.764   2.303  24.603  0.00  0.00    +0.043 C 
ENDROOT
BRANCH   4   2
ATOM      1  C   UNL     1      -5.008   1.547  25.912  0.00  0.00    +0.000 C 
ATOM      2  C   UNL     1      -5.005   1.850  25.146  0.00  0.00    +0.000 C 
ATOM      3  C   UNL     1      -5.654   2.277  24.868  0.00  0.00    +0.000 C 
ENDBRANCH   4   2
BRANCH   6   7
ATOM      7  C   UNL     1      -3.572   0.211  23.294  0.00  0.00    +0.070 C 
BRANCH   7   8
ATOM      8  C   UNL     1      -3.501  -0.513  23.681  0.00  0.00    +0.139 A 
ATOM      9  N   UNL     1      -2.889  -0.734  24.190  0.00  0.00    -0.229 NA
ATOM     10  C   UNL     1      -3.039  -1.502  24.451  0.00  0.00    +0.100 A 
ATOM     11  C   UNL     1      -3.742  -1.756  24.104  0.00  0.00    +0.102 A 
ATOM     12  N   UNL     1      -4.028  -1.146  23.629  0.00  0.00    -0.229 NA
ATOM     13  C   UNL     1      -4.032  -2.512  24.266  0.00  0.00    +0.050 A 
ATOM     14  C   UNL     1      -3.619  -3.012  24.775  0.00  0.00    +0.142 A 
ATOM     15  F   UNL     1      -3.909  -3.767  24.937  0.00  0.00    -0.204 F 
ATOM     16  C   UNL     1      -2.915  -2.757  25.122  0.00  0.00    +0.031 A 
ATOM     17  C   UNL     1      -2.625  -2.002  24.960  0.00  0.00    +0.023 A 
ENDBRANCH   7   8
ENDBRANCH   6   7
BRANCH  21  22
ATOM     22  C   UNL     1      -3.827   3.001  25.039  0.00  0.00    +0.119 C 
BRANCH  22  23
ATOM     23  N   UNL     1      -3.328   3.636  24.872  0.00  0.00    -0.205 NA
ATOM     24  C   UNL     1      -3.089   4.143  25.478  0.00  0.00    +0.242 C 
ATOM     25  O   UNL     1      -3.349   4.014  26.251  0.00  0.00    -0.273 OA
BRANCH  24  26
ATOM     26  C   UNL     1      -2.591   4.779  25.312  0.00  0.00    +0.099 C 
BRANCH  26  27
ATOM     27  C   UNL     1      -1.787   4.732  25.496  0.00  0.00    +0.124 C 
BRANCH  27  28
ATOM     28  C   UNL     1      -1.248   5.223  25.112  0.00  0.00    +0.365 C 
ATOM     29  O   UNL     1      -0.533   4.915  24.835  0.00  0.00    -0.246 OA
ATOM     30  O   UNL     1      -1.421   6.023  25.004  0.00  0.00    -0.246 OA
ENDBRANCH  27  28
ENDBRANCH  26  27
ENDBRANCH  24  26
ENDBRANCH  22  23
ENDBRANCH  21  22
TORSDOF 8
ENDMDL
MODEL 3
REMARK VINA RESULT:      -8.9      3.408      4.341
REMARK  Name = 
REMARK  8 active torsions:
REMARK  status: ('A' for Active; 'I' for Inactive)
REMARK    1  A    between atoms: C_2  and  C_4
REMARK    2  A    between atoms: C_6  and  C_7
REMARK    3  A    between atoms: C_7  and  C_8
REMARK    4  A    between atoms: C_21  and  C_22
REMARK    5  A    between atoms: C_22  and  N_23
REMARK    6  A    between atoms: C_24  and  C_26
REMARK    7  A    between atoms: C_26  and  C_27
REMARK    8  A    between atoms: C_27  and  C_28
REMARK                            x       y       z     vdW  Elec       q    Type
REMARK                         _______ _______ _______ _____ _____    ______ ____
ROOT
ATOM      4  C   UNL     1      -1.880   0.856  24.956  0.00  0.00    +0.006 C 
ATOM      5  C   UNL     1      -2.538   0.376  25.088  0.00  0.00    +0.005 C 
ATOM      6  C   UNL     1      -3.298   0.685  25.005  0.00  0.00    +0.026 C 
ATOM     18  C   UNL     1      -3.401   1.474  24.789  0.00  0.00    -0.048 C 
ATOM     19  C   UNL     1      -4.161   1.784  24.706  0.00  0.00    +0.026 C 
ATOM     20  C   UNL     1      -2.744   1.955  24.657  0.00  0.00    -0.033 C 
ATOM     21  C   UNL     1      -1.983   1.645  24.740  0.00  0.00    +0.043 C 
ENDROOT
BRANCH   4   2
ATOM      1  C   UNL     1      -0.726   0.238  24.384  0.00  0.00    +0.000 C 
ATOM      2  C   UNL     1      -1.120   0.547  25.039  0.00  0.00    +0.000 C 
ATOM      3  C   UNL     1      -0.754   0.546  25.779  0.00  0.00    +0.000 C 
ENDBRANCH   4   2
BRANCH   6   7
ATOM      7  C   UNL     1      -3.956   0.205  25.137  0.00  0.00    +0.070 C 
BRANCH   7   8
ATOM      8  C   UNL     1      -3.952  -0.581  24.886  0.00  0.00    +0.139 A 
ATOM      9  N   UNL     1      -4.217  -0.859  24.156  0.00  0.00    -0.229 NA
ATOM     10  C   UNL     1      -4.110  -1.677  24.140  0.00  0.00    +0.100 A 
ATOM     11  C   UNL     1      -3.779  -1.904  24.860  0.00  0.00    +0.102 A 
ATOM     12  N   UNL     1      -3.681  -1.228  25.321  0.00  0.00    -0.229 NA
ATOM     13  C   UNL     1      -3.610  -2.699  25.003  0.00  0.00    +0.050 A 
ATOM     14  C   UNL     1      -3.771  -3.266  24.426  0.00  0.00    +0.142 A 
ATOM     15  F   UNL     1      -3.602  -4.061  24.569  0.00  0.00    -0.204 F 
ATOM     16  C   UNL     1      -4.103  -3.037  23.705  0.00  0.00    +0.031 A 
ATOM     17  C   UNL     1      -4.272  -2.243  23.562  0.00  0.00    +0.023 A 
ENDBRANCH   7   8
ENDBRANCH   6   7
BRANCH  21  22
ATOM     22  C   UNL     1      -1.326   2.126  24.608  0.00  0.00    +0.119 C 
BRANCH  22  23
ATOM     23  N   UNL     1      -1.419   2.944  24.550  0.00  0.00    -0.205 NA
ATOM     24  C   UNL     1      -0.762   3.425  24.419  0.00  0.00    +0.242 C 
ATOM     25  O   UNL     1      -0.012   3.089  24.345  0.00  0.00    -0.273 OA
BRANCH  24  26
ATOM     26  C   UNL     1      -0.855   4.243  24.361  0.00  0.00    +0.099 C 
BRANCH  26  27
ATOM     27  C   UNL     1      -0.847   4.708  25.043  0.00  0.00    +0.124 C 
BRANCH  27  28
ATOM     28  C   UNL     1      -1.132   5.481  25.018  0.00  0.00    +0.365 C 
ATOM     29  O   UNL     1      -1.855   5.666  25.372  0.00  0.00    -0.246 OA
ATOM     30  O   UNL     1      -0.696   6.070  24.639  0.00  0.00    -0.246 OA
ENDBRANCH  27  28
ENDBRANCH  26  27
ENDBRANCH  24  26
ENDBRANCH  22  23
ENDBRANCH  21  22
TORSDOF 8
ENDMDL
MODEL 4
REMARK VINA RESULT:      -8.9      3.188      4.615
REMARK  Name = 
REMARK  8 active torsions:
REMARK  status: ('A' for Active; 'I' for Inactive)
REMARK    1  A    between atoms: C_2  and  C_4
REMARK    2  A    between atoms: C_6  and  C_7
REMARK    3  A    between atoms: C_7  and  C_8
REMARK    4  A    between atoms: C_21  and  C_22
REMARK    5  A    between atoms: C_22  and  N_23
REMARK    6  A    between atoms: C_24  and  C_26
REMARK    7  A    between atoms: C_26  and  C_27
REMARK    8  A    between atoms: C_27  and  C_28
REMARK                            x       y       z     vdW  Elec       q    Type
REMARK                         _______ _______ _______ _____ _____    ______ ____
ROOT
ATOM      4  C   UNL     1      -3.204   1.515  24.755  0.00  0.00    +0.006 C 
ATOM      5  C   UNL     1      -2.629   1.989  25.109  0.00  0.00    +0.005 C 
ATOM      6  C   UNL     1      -1.912   1.660  25.349  0.00  0.00    +0.026 C 
ATOM     18  C   UNL     1      -1.770   0.856  25.235  0.00  0.00    -0.048 C 
ATOM     19  C   UNL     1      -1.052   0.526  25.476  0.00  0.00    +0.026 C 
ATOM     20  C   UNL     1      -2.343   0.380  24.882  0.00  0.00    -0.033 C 
ATOM     21  C   UNL     1      -3.061   0.710  24.642  0.00  0.00    +0.043 C 
ENDROOT
BRANCH   4   2
ATOM      1  C   UNL     1      -4.005   2.133  23.748  0.00  0.00    +0.000 C 
ATOM      2  C   UNL     1      -3.921   1.844  24.515  0.00  0.00    +0.000 C 
ATOM      3  C   UNL     1      -4.554   1.883  25.043  0.00  0.00    +0.000 C 
ENDBRANCH   4   2
BRANCH   6   7
ATOM      7  C   UNL     1      -1.337   2.135  25.702  0.00  0.00    +0.070 C 
BRANCH   7   8
ATOM      8  C   UNL     1      -1.247   2.920  25.466  0.00  0.00    +0.139 A 
ATOM      9  N   UNL     1      -0.727   3.197  24.888  0.00  0.00    -0.229 NA
ATOM     10  C   UNL     1      -0.820   4.014  24.832  0.00  0.00    +0.100 A 
ATOM     11  C   UNL     1      -1.397   4.243  25.374  0.00  0.00    +0.102 A 
ATOM     12  N   UNL     1      -1.662   3.567  25.766  0.00  0.00    -0.229 NA
ATOM     13  C   UNL     1      -1.608   5.038  25.440  0.00  0.00    +0.050 A 
ATOM     14  C   UNL     1      -1.242   5.604  24.965  0.00  0.00    +0.142 A 
ATOM     15  F   UNL     1      -1.453   6.399  25.032  0.00  0.00    -0.204 F 
ATOM     16  C   UNL     1      -0.664   5.374  24.422  0.00  0.00    +0.031 A 
ATOM     17  C   UNL     1      -0.453   4.579  24.355  0.00  0.00    +0.023 A 
ENDBRANCH   7   8
ENDBRANCH   6   7
BRANCH  21  22
ATOM     22  C   UNL     1      -3.635   0.234  24.288  0.00  0.00    +0.119 C 
BRANCH  22  23
ATOM     23  N   UNL     1      -3.468  -0.555  24.119  0.00  0.00    -0.205 NA
ATOM     24  C   UNL     1      -4.084  -1.091  24.000  0.00  0.00    +0.242 C 
ATOM     25  O   UNL     1      -4.868  -0.836  24.050  0.00  0.00    -0.273 OA
BRANCH  24  26
ATOM     26  C   UNL     1      -3.917  -1.881  23.830  0.00  0.00    +0.099 C 
BRANCH  26  27
ATOM     27  C   UNL     1      -4.109  -2.469  24.376  0.00  0.00    +0.124 C 
BRANCH  27  28
ATOM     28  C   UNL     1      -3.638  -3.143  24.439  0.00  0.00    +0.365 C 
ATOM     29  O   UNL     1      -3.520  -3.626  23.779  0.00  0.00    -0.246 OA
ATOM     30  O   UNL     1      -3.285  -3.335  25.159  0.00  0.00    -0.246 OA
ENDBRANCH  27  28
ENDBRANCH  26  27
ENDBRANCH  24  26
ENDBRANCH  22  23
ENDBRANCH  21  22
TORSDOF 8
ENDMDL
