MODEL 1
REMARK VINA RESULT:     -10.1      0.000      0.000
REMARK  Name = 
REMARK  7 active torsions:
REMARK  status: ('A' for Active; 'I' for Inactive)
REMARK    1  A    between atoms: O_2  and  C_3
REMARK    2  A    between atoms: C_3  and  C_4
REMARK    3  A    between atoms: N_6  and  C_7
REMARK    4  A    between atoms: C_10  and  C_13
REMARK    5  A    between atoms: C_13  and  C_15
REMARK    6  A    between atoms: N_21  and  C_22
REMARK    7  A    between atoms: C_22  and  C_23
REMARK                            x       y       z     vdW  Elec       q    Type
REMARK                         _______ _______ _______ _____ _____    ______ ____
ROOT
ATOM     13  C   UNL     1      -1.593  -0.080  25.487  0.00  0.00    +0.195 C 
ATOM     14  O   UNL     1      -2.101  -0.262  26.111  0.00  0.00    -0.216 OA
ENDROOT
BRANCH  13  15
ATOM     15  C   UNL     1      -1.270  -0.684  25.027  0.00  0.00    +0.140 C 
ATOM     16  C   UNL     1      -0.526  -0.590  24.687  0.00  0.00    +0.165 C 
ATOM     17  O   UNL     1      -0.203  -1.195  24.227  0.00  0.00    -0.343 OA
ATOM     18  C   UNL     1      -0.626  -1.893  24.109  0.00  0.00    +0.227 C 
ATOM     19  C   UNL     1      -1.371  -1.987  24.449  0.00  0.00    +0.256 C 
ATOM     20  O   UNL     1      -1.794  -2.685  24.331  0.00  0.00    -0.272 OA
ATOM     21  N   UNL     1      -1.694  -1.383  24.909  0.00  0.00    -0.270 N 
BRANCH  21  22
ATOM     22  C   UNL     1      -2.439  -1.476  25.250  0.00  0.00    +0.120 C 
BRANCH  22  23
ATOM     23  C   UNL     1      -3.077  -1.718  24.786  0.00  0.00    -0.002 A 
ATOM     24  C   UNL     1      -3.346  -2.496  24.828  0.00  0.00    -0.003 A 
ATOM     25  C   UNL     1      -3.984  -2.738  24.364  0.00  0.00    -0.000 A 
ATOM     26  C   UNL     1      -4.353  -2.200  23.858  0.00  0.00    -0.000 A 
ATOM     27  C   UNL     1      -4.084  -1.422  23.816  0.00  0.00    -0.000 A 
ATOM     28  C   UNL     1      -3.446  -1.180  24.281  0.00  0.00    -0.003 A 
ENDBRANCH  22  23
ENDBRANCH  21  22
ENDBRANCH  13  15
BRANCH  13  10
ATOM      7  C   UNL     1      -1.037   2.281  24.992  0.00  0.00    +0.073 A 
ATOM      8  C   UNL     1      -1.651   1.907  24.585  0.00  0.00    +0.016 A 
ATOM      9  C   UNL     1      -1.835   1.121  24.751  0.00  0.00    -0.000 A 
ATOM     10  C   UNL     1      -1.408   0.708  25.322  0.00  0.00    +0.010 A 
ATOM     11  C   UNL     1      -0.795   1.081  25.728  0.00  0.00    -0.000 A 
ATOM     12  C   UNL     1      -0.609   1.868  25.563  0.00  0.00    +0.016 A 
BRANCH   7   6
ATOM      4  C   UNL     1      -1.237   3.675  25.232  0.00  0.00    +0.276 C 
ATOM      5  O   UNL     1      -1.804   3.496  25.802  0.00  0.00    -0.270 OA
ATOM      6  N   UNL     1      -0.852   3.068  24.827  0.00  0.00    -0.177 NA
BRANCH   4   3
ATOM      3  C   UNL     1      -1.052   4.462  25.067  0.00  0.00    +0.229 C 
BRANCH   3   2
ATOM      1  C   UNL     1      -1.510   5.814  24.995  0.00  0.00    +0.175 C 
ATOM      2  O   UNL     1      -1.540   5.066  25.344  0.00  0.00    -0.342 OA
ENDBRANCH   3   2
ENDBRANCH   4   3
ENDBRANCH   7   6
ENDBRANCH  13  10
TORSDOF 7
ENDMDL
MODEL 2
REMARK VINA RESULT:     -10.0      2.010      5.725
REMARK  Name = 
REMARK  7 active torsions:
REMARK  status: ('A' for Active; 'I' for Inactive)
REMARK    1  A    between atoms: O_2  and  C_3
REMARK    2  A    between atoms: C_3  and  C_4
REMARK    3  A    between atoms: N_6  and  C_7
REMARK    4  A    between atoms: C_10  and  C_13
REMARK    5  A    between atoms: C_13  and  C_15
REMARK    6  A    between atoms: N_21  and  C_22
REMARK    7  A    between atoms: C_22  and  C_23
REMARK                            x       y       z     vdW  Elec       q    Type
REMARK                         _______ _______ _______ _____ _____    ______ ____
ROOT
ATOM     13  C   UNL     1      -3.974   2.617  24.241  0.00  0.00    +0.195 C 
ATOM     14  O   UNL     1      -3.878   3.041  23.540  0.00  0.00    -0.216 OA
ENDROOT
BRANCH  13  15
ATOM     15  C   UNL     1      -4.021   3.015  24.962  0.00  0.00    +0.140 C 
ATOM     16  C   UNL     1      -4.639   2.854  25.483  0.00  0.00    +0.165 C 
ATOM     17  O   UNL     1      -4.686   3.253  26.204  0.00  0.00    -0.343 OA
ATOM     18  C   UNL     1      -4.114   3.814  26.402  0.00  0.00    +0.227 C 
ATOM     19  C   UNL     1      -3.497   3.975  25.881  0.00  0.00    +0.256 C 
ATOM     20  O   UNL     1      -2.925   4.537  26.080  0.00  0.00    -0.272 OA
ATOM     21  N   UNL     1      -3.449   3.577  25.161  0.00  0.00    -0.270 N 
BRANCH  21  22
ATOM     22  C   UNL     1      -2.831   3.739  24.639  0.00  0.00    +0.120 C 
BRANCH  22  23
ATOM     23  C   UNL     1      -2.057   3.785  24.919  0.00  0.00    -0.002 A 
ATOM     24  C   UNL     1      -1.711   3.132  25.287  0.00  0.00    -0.003 A 
ATOM     25  C   UNL     1      -0.937   3.178  25.566  0.00  0.00    -0.000 A 
ATOM     26  C   UNL     1      -0.508   3.877  25.479  0.00  0.00    -0.000 A 
ATOM     27  C   UNL     1      -0.852   4.530  25.112  0.00  0.00    -0.000 A 
ATOM     28  C   UNL     1      -1.628   4.484  24.832  0.00  0.00    -0.003 A 
ENDBRANCH  22  23
ENDBRANCH  21  22
ENDBRANCH  13  15
BRANCH  13  10
ATOM      7  C   UNL     1      -4.118   0.146  24.184  0.00  0.00    +0.073 A 
ATOM      8  C   UNL     1      -4.702   0.585  24.569  0.00  0.00    +0.016 A 
ATOM      9  C   UNL     1      -4.653   1.408  24.588  0.00  0.00    -0.000 A 
ATOM     10  C   UNL     1      -4.022   1.793  24.222  0.00  0.00    +0.010 A 
ATOM     11  C   UNL     1      -3.439   1.355  23.837  0.00  0.00    -0.000 A 
ATOM     12  C   UNL     1      -3.487   0.531  23.818  0.00  0.00    +0.016 A 
BRANCH   7   6
ATOM      4  C   UNL     1      -3.805  -1.125  24.757  0.00  0.00    +0.276 C 
ATOM      5  O   UNL     1      -3.395  -0.750  25.365  0.00  0.00    -0.270 OA
ATOM      6  N   UNL     1      -4.167  -0.677  24.165  0.00  0.00    -0.177 NA
BRANCH   4   3
ATOM      3  C   UNL     1      -3.854  -1.948  24.738  0.00  0.00    +0.229 C 
BRANCH   3   2
ATOM      1  C   UNL     1      -3.187  -3.210  24.804  0.00  0.00    +0.175 C 
ATOM      2  O   UNL     1      -3.210  -2.404  24.979  0.00  0.00    -0.342 OA
ENDBRANCH   3   2
ENDBRANCH   4   3
ENDBRANCH   7   6
ENDBRANCH  13  10
TORSDOF 7
ENDMDL
MODEL 3
REMARK VINA RESULT:      -9.0      1.605      2.394
REMARK  Name = 
REMARK  7 active torsions:
REMARK  status: ('A' for Active; 'I' for Inactive)
REMARK    1  A    between atoms: O_2  and  C_3
REMARK    2  A    between atoms: C_3  and  C_4
REMARK    3  A    between atoms: N_6  and  C_7
REMARK    4  A    between atoms: C_10  and  C_13
REMARK    5  A    between atoms: C_13  and  C_15
REMARK    6  A    between atoms: N_21  and  C_22
REMARK    7  A    between atoms: C_22  and  C_23
REMARK                            x       y       z     vdW  Elec       q    Type
REMARK                         _______ _______ _______ _____ _____    ______ ____
ROOT
ATOM     13  C   UNL     1      -3.263   0.846  23.817  0.00  0.00    +0.195 C 
ATOM     14  O   UNL     1      -3.234   0.369  23.144  0.00  0.00    -0.216 OA
ENDROOT
BRANCH  13  15
ATOM     15  C   UNL     1      -3.819   0.694  24.407  0.00  0.00    +0.140 C 
ATOM     16  C   UNL     1      -4.398   1.253  24.583  0.00  0.00    +0.165 C 
ATOM     17  O   UNL     1      -4.954   1.101  25.174  0.00  0.00    -0.343 OA
ATOM     18  C   UNL     1      -4.929   0.388  25.588  0.00  0.00    +0.227 C 
ATOM     19  C   UNL     1      -4.350  -0.171  25.413  0.00  0.00    +0.256 C 
ATOM     20  O   UNL     1      -4.326  -0.885  25.828  0.00  0.00    -0.272 OA
ATOM     21  N   UNL     1      -3.794  -0.019  24.822  0.00  0.00    -0.270 N 
BRANCH  21  22
ATOM     22  C   UNL     1      -3.215  -0.579  24.646  0.00  0.00    +0.120 C 
BRANCH  22  23
ATOM     23  C   UNL     1      -3.429  -1.362  24.501  0.00  0.00    -0.002 A 
ATOM     24  C   UNL     1      -3.964  -1.539  23.899  0.00  0.00    -0.003 A 
ATOM     25  C   UNL     1      -4.178  -2.322  23.753  0.00  0.00    -0.000 A 
ATOM     26  C   UNL     1      -3.857  -2.929  24.210  0.00  0.00    -0.000 A 
ATOM     27  C   UNL     1      -3.321  -2.753  24.812  0.00  0.00    -0.000 A 
ATOM     28  C   UNL     1      -3.107  -1.969  24.957  0.00  0.00    -0.003 A 
ENDBRANCH  22  23
ENDBRANCH  21  22
ENDBRANCH  13  15
BRANCH  13  10
ATOM      7  C   UNL     1      -1.682   2.735  24.065  0.00  0.00    +0.073 A 
ATOM      8  C   UNL     1      -2.380   2.834  23.634  0.00  0.00    +0.016 A 
ATOM      9  C   UNL     1      -2.906   2.204  23.552  0.00  0.00    -0.000 A 
ATOM     10  C   UNL     1      -2.736   1.476  23.899  0.00  0.00    +0.010 A 
ATOM     11  C   UNL     1      -2.040   1.377  24.329  0.00  0.00    -0.000 A 
ATOM     12  C   UNL     1      -1.512   2.007  24.412  0.00  0.00    +0.016 A 
BRANCH   7   6
ATOM      4  C   UNL     1      -1.253   3.905  24.763  0.00  0.00    +0.276 C 
ATOM      5  O   UNL     1      -1.876   3.815  25.296  0.00  0.00    -0.270 OA
ATOM      6  N   UNL     1      -1.156   3.364  24.147  0.00  0.00    -0.177 NA
BRANCH   4   3
ATOM      3  C   UNL     1      -0.727   4.535  24.846  0.00  0.00    +0.229 C 
BRANCH   3   2
ATOM      1  C   UNL     1      -0.697   5.963  24.800  0.00  0.00    +0.175 C 
ATOM      2  O   UNL     1      -0.998   5.264  25.120  0.00  0.00    -0.342 OA
ENDBRANCH   3   2
ENDBRANCH   4   3
ENDBRANCH   7   6
ENDBRANCH  13  10
TORSDOF 7
ENDMDL
MODEL 4
REMARK VINA RESULT:      -9.0      2.591      4.544
REMARK  Name = 
REMARK  7 active torsions:
REMARK  status: ('A' for Active; 'I' for Inactive)
REMARK    1  A    between atoms: O_2  and  C_3
REMARK    2  A    between atoms: C_3  and  C_4
REMARK    3  A    between atoms: N_6  and  C_7
REMARK    4  A    between atoms: C_10  and  C_13
REMARK    5  A    between atoms: C_13  and  C_15
REMARK    6  A    between atoms: N_21  and  C_22
REMARK    7  A    between atoms: C_22  and  C_23
REMARK                            x       y       z     vdW  Elec       q    Type
REMARK                         _______ _______ _______ _____ _____    ______ ____
ROOT
ATOM     13  C   UNL     1      -2.641   2.707  24.130  0.00  0.00    +0.195 C 
ATOM     14  O   UNL     1      -3.126   2.715  23.463  0.00  0.00    -0.216 OA
ENDROOT
BRANCH  13  15
ATOM     15  C   UNL     1      -2.862   3.123  24.806  0.00  0.00    +0.140 C 
ATOM     16  C   UNL     1      -2.286   3.455  25.293  0.00  0.00    +0.165 C 
ATOM     17  O   UNL     1      -2.508   3.871  25.971  0.00  0.00    -0.343 OA
ATOM     18  C   UNL     1      -3.306   3.955  26.160  0.00  0.00    +0.227 C 
ATOM     19  C   UNL     1      -3.882   3.624  25.673  0.00  0.00    +0.256 C 
ATOM     20  O   UNL     1      -4.682   3.708  25.862  0.00  0.00    -0.272 OA
ATOM     21  N   UNL     1      -3.661   3.207  24.996  0.00  0.00    -0.270 N 
BRANCH  21  22
ATOM     22  C   UNL     1      -4.238   2.875  24.508  0.00  0.00    +0.120 C 
BRANCH  22  23
ATOM     23  C   UNL     1      -4.812   2.378  24.829  0.00  0.00    -0.002 A 
ATOM     24  C   UNL     1      -4.601   1.634  25.115  0.00  0.00    -0.003 A 
ATOM     25  C   UNL     1      -5.175   1.136  25.436  0.00  0.00    -0.000 A 
ATOM     26  C   UNL     1      -5.962   1.383  25.470  0.00  0.00    -0.000 A 
ATOM     27  C   UNL     1      -6.174   2.128  25.185  0.00  0.00    -0.000 A 
ATOM     28  C   UNL     1      -5.599   2.625  24.864  0.00  0.00    -0.003 A 
ENDBRANCH  22  23
ENDBRANCH  21  22
ENDBRANCH  13  15
BRANCH  13  10
ATOM      7  C   UNL     1      -0.520   1.431  24.102  0.00  0.00    +0.073 A 
ATOM      8  C   UNL     1      -0.528   2.224  23.873  0.00  0.00    +0.016 A 
ATOM      9  C   UNL     1      -1.235   2.649  23.882  0.00  0.00    -0.000 A 
ATOM     10  C   UNL     1      -1.933   2.281  24.120  0.00  0.00    +0.010 A 
ATOM     11  C   UNL     1      -1.926   1.489  24.349  0.00  0.00    -0.000 A 
ATOM     12  C   UNL     1      -1.218   1.064  24.340  0.00  0.00    +0.016 A 
BRANCH   7   6
ATOM      4  C   UNL     1       0.384   0.549  23.434  0.00  0.00    +0.276 C 
ATOM      5  O   UNL     1      -0.125   0.517  22.787  0.00  0.00    -0.270 OA
ATOM      6  N   UNL     1       0.187   1.006  24.092  0.00  0.00    -0.177 NA
BRANCH   4   3
ATOM      3  C   UNL     1       1.092   0.125  23.424  0.00  0.00    +0.229 C 
BRANCH   3   2
ATOM      1  C   UNL     1       2.274  -0.153  22.671  0.00  0.00    +0.175 C 
ATOM      2  O   UNL     1       1.455  -0.053  22.705  0.00  0.00    -0.342 OA
ENDBRANCH   3   2
ENDBRANCH   4   3
ENDBRANCH   7   6
ENDBRANCH  13  10
TORSDOF 7
ENDMDL
MODEL 5
REMARK VINA RESULT:      -8.9      1.974      3.413
REMARK  Name = 
REMARK  7 active torsions:
REMARK  status: ('A' for Active; 'I' for Inactive)
REMARK    1  A    between atoms: O_2  and  C_3
REMARK    2  A    between atoms: C_3  and  C_4
REMARK    3  A    between atoms: N_6  and  C_7
REMARK    4  A    between atoms: C_10  and  C_13
REMARK    5  A    between atoms: C_13  and  C_15
REMARK    6  A    between atoms: N_21  and  C_22
REMARK    7  A    between atoms: C_22  and  C_23
REMARK                            x       y       z     vdW  Elec       q    Type
REMARK                         _______ _______ _______ _____ _____    ______ ____
ROOT
ATOM     13  C   UNL     1      -1.805   0.107  25.195  0.00  0.00    +0.195 C 
ATOM     14  O   UNL     1      -1.717  -0.404  25.837  0.00  0.00    -0.216 OA
ENDROOT
BRANCH  13  15
ATOM     15  C   UNL     1      -2.531   0.471  25.054  0.00  0.00    +0.140 C 
ATOM     16  C   UNL     1      -2.556   1.250  24.786  0.00  0.00    +0.165 C 
ATOM     17  O   UNL     1      -3.284   1.615  24.645  0.00  0.00    -0.343 OA
ATOM     18  C   UNL     1      -3.984   1.199  24.772  0.00  0.00    +0.227 C 
ATOM     19  C   UNL     1      -3.959   0.420  25.040  0.00  0.00    +0.256 C 
ATOM     20  O   UNL     1      -4.661   0.004  25.166  0.00  0.00    -0.272 OA
ATOM     21  N   UNL     1      -3.233   0.055  25.181  0.00  0.00    -0.270 N 
BRANCH  21  22
ATOM     22  C   UNL     1      -3.207  -0.725  25.448  0.00  0.00    +0.120 C 
BRANCH  22  23
ATOM     23  C   UNL     1      -3.496  -1.333  24.973  0.00  0.00    -0.002 A 
ATOM     24  C   UNL     1      -3.911  -1.156  24.282  0.00  0.00    -0.003 A 
ATOM     25  C   UNL     1      -4.200  -1.765  23.807  0.00  0.00    -0.000 A 
ATOM     26  C   UNL     1      -4.074  -2.551  24.022  0.00  0.00    -0.000 A 
ATOM     27  C   UNL     1      -3.660  -2.729  24.713  0.00  0.00    -0.000 A 
ATOM     28  C   UNL     1      -3.371  -2.120  25.188  0.00  0.00    -0.003 A 
ENDBRANCH  22  23
ENDBRANCH  21  22
ENDBRANCH  13  15
BRANCH  13  10
ATOM      7  C   UNL     1       0.111   0.544  23.689  0.00  0.00    +0.073 A 
ATOM      8  C   UNL     1       0.011   0.996  24.373  0.00  0.00    +0.016 A 
ATOM      9  C   UNL     1      -0.627   0.850  24.874  0.00  0.00    -0.000 A 
ATOM     10  C   UNL     1      -1.166   0.253  24.693  0.00  0.00    +0.010 A 
ATOM     11  C   UNL     1      -1.067  -0.199  24.010  0.00  0.00    -0.000 A 
ATOM     12  C   UNL     1      -0.428  -0.053  23.508  0.00  0.00    +0.016 A 
BRANCH   7   6
ATOM      4  C   UNL     1       1.328   0.112  23.078  0.00  0.00    +0.276 C 
ATOM      5  O   UNL     1       1.268  -0.611  23.469  0.00  0.00    -0.270 OA
ATOM      6  N   UNL     1       0.749   0.690  23.188  0.00  0.00    -0.177 NA
BRANCH   4   3
ATOM      3  C   UNL     1       1.967   0.258  22.577  0.00  0.00    +0.229 C 
BRANCH   3   2
ATOM      1  C   UNL     1       3.380   0.418  22.439  0.00  0.00    +0.175 C 
ATOM      2  O   UNL     1       2.733   0.079  22.824  0.00  0.00    -0.342 OA
ENDBRANCH   3   2
ENDBRANCH   4   3
ENDBRANCH   7   6
ENDBRANCH  13  10
TORSDOF 7
ENDMDL
MODEL 6
REMARK VINA RESULT:      -8.8      2.345      3.983
REMARK  Name = 
REMARK  7 active torsions:
REMARK  status: ('A' for Active; 'I' for Inactive)
REMARK    1  A    between atoms: O_2  and  C_3
REMARK    2  A    between atoms: C_3  and  C_4
REMARK    3  A    between atoms: N_6  and  C_7
REMARK    4  A    between atoms: C_10  and  C_13
REMARK    5  A    between atoms: C_13  and  C_15
REMARK    6  A    between atoms: N_21  and  C_22
REMARK    7  A    between atoms: C_22  and  C_23
REMARK                            x       y       z     vdW  Elec       q    Type
REMARK                         _______ _______ _______ _____ _____    ______ ____
ROOT
ATOM     13  C   UNL     1      -1.873   0.424  24.930  0.00  0.00    +0.195 C 
ATOM     14  O   UNL     1      -1.806   0.909  25.594  0.00  0.00    -0.216 OA
ENDROOT
BRANCH  13  15
ATOM     15  C   UNL     1      -2.604   0.101  24.727  0.00  0.00    +0.140 C 
ATOM     16  C   UNL     1      -2.646  -0.660  24.412  0.00  0.00    +0.165 C 
ATOM     17  O   UNL     1      -3.378  -0.983  24.210  0.00  0.00    -0.343 OA
ATOM     18  C   UNL     1      -4.067  -0.544  24.322  0.00  0.00    +0.227 C 
ATOM     19  C   UNL     1      -4.026   0.216  24.637  0.00  0.00    +0.256 C 
ATOM     20  O   UNL     1      -4.716   0.655  24.749  0.00  0.00    -0.272 OA
ATOM     21  N   UNL     1      -3.294   0.540  24.839  0.00  0.00    -0.270 N 
BRANCH  21  22
ATOM     22  C   UNL     1      -3.253   1.301  25.154  0.00  0.00    +0.120 C 
BRANCH  22  23
ATOM     23  C   UNL     1      -3.638   1.925  24.777  0.00  0.00    -0.002 A 
ATOM     24  C   UNL     1      -4.234   2.340  25.168  0.00  0.00    -0.003 A 
ATOM     25  C   UNL     1      -4.619   2.963  24.791  0.00  0.00    -0.000 A 
ATOM     26  C   UNL     1      -4.408   3.173  24.022  0.00  0.00    -0.000 A 
ATOM     27  C   UNL     1      -3.812   2.759  23.629  0.00  0.00    -0.000 A 
ATOM     28  C   UNL     1      -3.427   2.134  24.008  0.00  0.00    -0.003 A 
ENDBRANCH  22  23
ENDBRANCH  21  22
ENDBRANCH  13  15
BRANCH  13  10
ATOM      7  C   UNL     1       0.120  -0.061  23.543  0.00  0.00    +0.073 A 
ATOM      8  C   UNL     1      -0.067  -0.548  24.183  0.00  0.00    +0.016 A 
ATOM      9  C   UNL     1      -0.731  -0.386  24.644  0.00  0.00    -0.000 A 
ATOM     10  C   UNL     1      -1.208   0.262  24.467  0.00  0.00    +0.010 A 
ATOM     11  C   UNL     1      -1.022   0.750  23.829  0.00  0.00    -0.000 A 
ATOM     12  C   UNL     1      -0.357   0.588  23.367  0.00  0.00    +0.016 A 
BRANCH   7   6
ATOM      4  C   UNL     1       1.437   0.282  23.108  0.00  0.00    +0.276 C 
ATOM      5  O   UNL     1       1.425   0.946  23.595  0.00  0.00    -0.270 OA
ATOM      6  N   UNL     1       0.784  -0.223  23.082  0.00  0.00    -0.177 NA
BRANCH   4   3
ATOM      3  C   UNL     1       2.101   0.119  22.647  0.00  0.00    +0.229 C 
BRANCH   3   2
ATOM      1  C   UNL     1       3.473   0.363  22.330  0.00  0.00    +0.175 C 
ATOM      2  O   UNL     1       2.787   0.568  22.741  0.00  0.00    -0.342 OA
ENDBRANCH   3   2
ENDBRANCH   4   3
ENDBRANCH   7   6
ENDBRANCH  13  10
TORSDOF 7
ENDMDL
