MODEL 1
REMARK VINA RESULT:      -9.2      0.000      0.000
REMARK  Name = 
REMARK  7 active torsions:
REMARK  status: ('A' for Active; 'I' for Inactive)
REMARK    1  A    between atoms: N_4  and  C_5
REMARK    2  A    between atoms: C_8  and  S_11
REMARK    3  A    between atoms: S_11  and  N_14
REMARK    4  A    between atoms: N_14  and  C_15
REMARK    5  A    between atoms: C_19  and  O_23
REMARK    6  A    between atoms: O_23  and  C_24
REMARK    7  A    between atoms: N_26  and  C_27
REMARK                            x       y       z     vdW  Elec       q    Type
REMARK                         _______ _______ _______ _____ _____    ______ ____
ROOT
ATOM     15  C   UNL     1      -0.210   0.708  24.988  0.00  0.00    +0.157 C 
ATOM     16  C   UNL     1      -0.727   0.739  25.630  0.00  0.00    +0.164 C 
ATOM     17  O   UNL     1      -1.072  -0.006  25.715  0.00  0.00    -0.348 OA
ATOM     18  C   UNL     1      -0.769  -0.496  25.126  0.00  0.00    +0.186 C 
ATOM     19  C   UNL     1      -0.793  -1.260  24.814  0.00  0.00    +0.229 C 
ATOM     20  C   UNL     1      -0.277  -1.290  24.172  0.00  0.00    +0.188 C 
ATOM     21  O   UNL     1       0.068  -0.546  24.087  0.00  0.00    -0.348 OA
ATOM     22  C   UNL     1      -0.236  -0.055  24.677  0.00  0.00    +0.166 C 
ENDROOT
BRANCH  15  14
ATOM     14  N   UNL     1       0.251   1.332  24.707  0.00  0.00    -0.074 NA
BRANCH  14  11
ATOM     11  S   UNL     1      -0.021   2.108  24.771  0.00  0.00    +0.077 S 
ATOM     12  O   UNL     1      -0.423   2.026  24.055  0.00  0.00    -0.152 OA
ATOM     13  O   UNL     1       0.382   2.191  25.486  0.00  0.00    -0.152 OA
BRANCH  11   8
ATOM      5  C   UNL     1      -0.836   4.437  24.964  0.00  0.00    +0.073 A 
ATOM      6  C   UNL     1      -0.727   4.099  24.220  0.00  0.00    +0.018 A 
ATOM      7  C   UNL     1      -0.455   3.322  24.155  0.00  0.00    +0.021 A 
ATOM      8  C   UNL     1      -0.293   2.884  24.835  0.00  0.00    +0.124 A 
ATOM      9  C   UNL     1      -0.402   3.223  25.580  0.00  0.00    +0.021 A 
ATOM     10  C   UNL     1      -0.673   3.999  25.644  0.00  0.00    +0.018 A 
BRANCH   5   4
ATOM      1  C   UNL     1      -2.181   6.138  25.217  0.00  0.00    +0.097 C 
ATOM      2  C   UNL     1      -1.909   5.361  25.152  0.00  0.00    +0.246 C 
ATOM      3  O   UNL     1      -2.440   4.733  25.210  0.00  0.00    -0.273 OA
ATOM      4  N   UNL     1      -1.107   5.213  25.029  0.00  0.00    -0.179 NA
ENDBRANCH   5   4
ENDBRANCH  11   8
ENDBRANCH  14  11
ENDBRANCH  15  14
BRANCH  19  23
ATOM     23  O   UNL     1      -1.255  -1.883  25.095  0.00  0.00    -0.432 OA
BRANCH  23  24
ATOM     24  C   UNL     1      -1.917  -2.131  24.670  0.00  0.00    +0.421 C 
ATOM     25  O   UNL     1      -1.822  -2.523  23.950  0.00  0.00    -0.225 OA
ATOM     26  N   UNL     1      -2.674  -1.987  24.964  0.00  0.00    -0.170 NA
BRANCH  26  27
ATOM     27  C   UNL     1      -3.337  -2.235  24.538  0.00  0.00    +0.099 C 
ATOM     28  C   UNL     1      -3.813  -1.681  24.157  0.00  0.00    +0.022 C 
ATOM     29  C   UNL     1      -4.475  -1.928  23.732  0.00  0.00    +0.002 C 
ATOM     30  C   UNL     1      -4.661  -2.731  23.688  0.00  0.00    +0.000 C 
ATOM     31  C   UNL     1      -4.184  -3.286  24.070  0.00  0.00    +0.002 C 
ATOM     32  C   UNL     1      -3.522  -3.038  24.495  0.00  0.00    +0.022 C 
ENDBRANCH  26  27
ENDBRANCH  23  24
ENDBRANCH  19  23
TORSDOF 7
ENDMDL
MODEL 2
REMARK VINA RESULT:      -9.1      3.148      4.809
REMARK  Name = 
REMARK  7 active torsions:
REMARK  status: ('A' for Active; 'I' for Inactive)
REMARK    1  A    between atoms: N_4  and  C_5
REMARK    2  A    between atoms: C_8  and  S_11
REMARK    3  A    between atoms: S_11  and  N_14
REMARK    4  A    between atoms: N_14  and  C_15
REMARK    5  A    between atoms: C_19  and  O_23
REMARK    6  A    between atoms: O_23  and  C_24
REMARK    7  A    between atoms: N_26  and  C_27
REMARK                            x       y       z     vdW  Elec       q    Type
REMARK                         _______ _______ _______ _____ _____    ______ ____
ROOT
ATOM     15  C   UNL     1      -1.274   0.770  24.127  0.00  0.00    +0.157 C 
ATOM     16  C   UNL     1      -1.275   1.299  23.495  0.00  0.00    +0.164 C 
ATOM     17  O   UNL     1      -0.595   1.163  23.048  0.00  0.00    -0.348 OA
ATOM     18  C   UNL     1      -0.174   0.550  23.403  0.00  0.00    +0.186 C 
ATOM     19  C   UNL     1       0.506   0.086  23.348  0.00  0.00    +0.229 C 
ATOM     20  C   UNL     1       0.507  -0.444  23.981  0.00  0.00    +0.188 C 
ATOM     21  O   UNL     1      -0.173  -0.307  24.428  0.00  0.00    -0.348 OA
ATOM     22  C   UNL     1      -0.594   0.307  24.071  0.00  0.00    +0.166 C 
ENDROOT
BRANCH  15  14
ATOM     14  N   UNL     1      -1.852   0.714  24.713  0.00  0.00    -0.074 NA
BRANCH  14  11
ATOM     11  S   UNL     1      -2.448   1.282  24.761  0.00  0.00    +0.077 S 
ATOM     12  O   UNL     1      -1.967   1.749  25.241  0.00  0.00    -0.152 OA
ATOM     13  O   UNL     1      -2.931   0.817  24.280  0.00  0.00    -0.152 OA
BRANCH  11   8
ATOM      5  C   UNL     1      -4.238   2.987  24.902  0.00  0.00    +0.073 A 
ATOM      6  C   UNL     1      -4.398   2.246  24.577  0.00  0.00    +0.018 A 
ATOM      7  C   UNL     1      -3.802   1.677  24.530  0.00  0.00    +0.021 A 
ATOM      8  C   UNL     1      -3.045   1.850  24.808  0.00  0.00    +0.124 A 
ATOM      9  C   UNL     1      -2.884   2.592  25.133  0.00  0.00    +0.021 A 
ATOM     10  C   UNL     1      -3.480   3.159  25.180  0.00  0.00    +0.018 A 
BRANCH   5   4
ATOM      1  C   UNL     1      -5.951   4.123  25.635  0.00  0.00    +0.097 C 
ATOM      2  C   UNL     1      -5.355   3.555  25.588  0.00  0.00    +0.246 C 
ATOM      3  O   UNL     1      -5.280   2.986  26.181  0.00  0.00    -0.273 OA
ATOM      4  N   UNL     1      -4.834   3.555  24.949  0.00  0.00    -0.179 NA
ENDBRANCH   5   4
ENDBRANCH  11   8
ENDBRANCH  14  11
ENDBRANCH  15  14
BRANCH  19  23
ATOM     23  O   UNL     1       1.084   0.142  22.762  0.00  0.00    -0.432 OA
BRANCH  23  24
ATOM     24  C   UNL     1       1.864   0.316  22.967  0.00  0.00    +0.421 C 
ATOM     25  O   UNL     1       2.021   0.861  23.565  0.00  0.00    -0.225 OA
ATOM     26  N   UNL     1       2.487  -0.055  22.574  0.00  0.00    -0.170 NA
BRANCH  26  27
ATOM     27  C   UNL     1       3.267   0.119  22.779  0.00  0.00    +0.099 C 
ATOM     28  C   UNL     1       3.601   0.839  22.557  0.00  0.00    +0.022 C 
ATOM     29  C   UNL     1       4.380   1.013  22.762  0.00  0.00    +0.002 C 
ATOM     30  C   UNL     1       4.827   0.466  23.189  0.00  0.00    +0.000 C 
ATOM     31  C   UNL     1       4.493  -0.255  23.411  0.00  0.00    +0.002 C 
ATOM     32  C   UNL     1       3.713  -0.428  23.206  0.00  0.00    +0.022 C 
ENDBRANCH  26  27
ENDBRANCH  23  24
ENDBRANCH  19  23
TORSDOF 7
ENDMDL
MODEL 3
REMARK VINA RESULT:      -9.1      2.421      6.558
REMARK  Name = 
REMARK  7 active torsions:
REMARK  status: ('A' for Active; 'I' for Inactive)
REMARK    1  A    between atoms: N_4  and  C_5
REMARK    2  A    between atoms: C_8  and  S_11
REMARK    3  A    between atoms: S_11  and  N_14
REMARK    4  A    between atoms: N_14  and  C_15
REMARK    5  A    between atoms: C_19  and  O_23
REMARK    6  A    between atoms: O_23  and  C_24
REMARK    7  A    between atoms: N_26  and  C_27
REMARK                            x       y       z     vdW  Elec       q    Type
REMARK                         _______ _______ _______ _____ _____    ______ ____
ROOT
ATOM     15  C   UNL     1      -4.815   1.366  24.756  0.00  0.00    +0.157 C 
ATOM     16  C   UNL     1      -4.474   1.550  24.028  0.00  0.00    +0.164 C 
ATOM     17  O   UNL     1      -4.257   2.345  24.043  0.00  0.00    -0.348 OA
ATOM     18  C   UNL     1      -4.463   2.653  24.780  0.00  0.00    +0.186 C 
ATOM     19  C   UNL     1      -4.457   3.334  25.245  0.00  0.00    +0.229 C 
ATOM     20  C   UNL     1      -4.798   3.149  25.974  0.00  0.00    +0.188 C 
ATOM     21  O   UNL     1      -5.015   2.354  25.958  0.00  0.00    -0.348 OA
ATOM     22  C   UNL     1      -4.808   2.047  25.221  0.00  0.00    +0.166 C 
ENDROOT
BRANCH  15  14
ATOM     14  N   UNL     1      -5.111   0.628  24.980  0.00  0.00    -0.074 NA
BRANCH  14  11
ATOM     11  S   UNL     1      -4.637  -0.044  24.914  0.00  0.00    +0.077 S 
ATOM     12  O   UNL     1      -4.391   0.050  25.695  0.00  0.00    -0.152 OA
ATOM     13  O   UNL     1      -4.883  -0.140  24.132  0.00  0.00    -0.152 OA
BRANCH  11   8
ATOM      5  C   UNL     1      -3.218  -2.061  24.712  0.00  0.00    +0.073 A 
ATOM      6  C   UNL     1      -3.716  -1.844  24.092  0.00  0.00    +0.018 A 
ATOM      7  C   UNL     1      -4.189  -1.172  24.159  0.00  0.00    +0.021 A 
ATOM      8  C   UNL     1      -4.164  -0.717  24.846  0.00  0.00    +0.124 A 
ATOM      9  C   UNL     1      -3.666  -0.934  25.467  0.00  0.00    +0.021 A 
ATOM     10  C   UNL     1      -3.192  -1.606  25.399  0.00  0.00    +0.018 A 
BRANCH   5   4
ATOM      1  C   UNL     1      -1.476  -3.333  24.371  0.00  0.00    +0.097 C 
ATOM      2  C   UNL     1      -1.950  -2.660  24.438  0.00  0.00    +0.246 C 
ATOM      3  O   UNL     1      -1.628  -1.914  24.297  0.00  0.00    -0.273 OA
ATOM      4  N   UNL     1      -2.744  -2.734  24.645  0.00  0.00    -0.179 NA
ENDBRANCH   5   4
ENDBRANCH  11   8
ENDBRANCH  14  11
ENDBRANCH  15  14
BRANCH  19  23
ATOM     23  O   UNL     1      -4.161   4.071  25.021  0.00  0.00    -0.432 OA
BRANCH  23  24
ATOM     24  C   UNL     1      -3.381   4.274  25.199  0.00  0.00    +0.421 C 
ATOM     25  O   UNL     1      -3.154   4.392  25.983  0.00  0.00    -0.225 OA
ATOM     26  N   UNL     1      -2.829   4.360  24.593  0.00  0.00    -0.170 NA
BRANCH  26  27
ATOM     27  C   UNL     1      -2.049   4.563  24.770  0.00  0.00    +0.099 C 
ATOM     28  C   UNL     1      -1.835   5.356  24.838  0.00  0.00    +0.022 C 
ATOM     29  C   UNL     1      -1.056   5.559  25.015  0.00  0.00    +0.002 C 
ATOM     30  C   UNL     1      -0.490   4.969  25.125  0.00  0.00    +0.000 C 
ATOM     31  C   UNL     1      -0.704   4.175  25.057  0.00  0.00    +0.002 C 
ATOM     32  C   UNL     1      -1.484   3.972  24.879  0.00  0.00    +0.022 C 
ENDBRANCH  26  27
ENDBRANCH  23  24
ENDBRANCH  19  23
TORSDOF 7
ENDMDL
MODEL 4
REMARK VINA RESULT:      -8.5      1.255      5.977
REMARK  Name = 
REMARK  7 active torsions:
REMARK  status: ('A' for Active; 'I' for Inactive)
REMARK    1  A    between atoms: N_4  and  C_5
REMARK    2  A    between atoms: C_8  and  S_11
REMARK    3  A    between atoms: S_11  and  N_14
REMARK    4  A    between atoms: N_14  and  C_15
REMARK    5  A    between atoms: C_19  and  O_23
REMARK    6  A    between atoms: O_23  and  C_24
REMARK    7  A    between atoms: N_26  and  C_27
REMARK                            x       y       z     vdW  Elec       q    Type
REMARK                         _______ _______ _______ _____ _____    ______ ____
ROOT
ATOM     15  C   UNL     1      -0.458  -0.100  24.947  0.00  0.00    +0.157 C 
ATOM     16  C   UNL     1      -0.361   0.021  24.137  0.00  0.00    +0.164 C 
ATOM     17  O   UNL     1      -0.216   0.824  24.016  0.00  0.00    -0.348 OA
ATOM     18  C   UNL     1      -0.224   1.198  24.750  0.00  0.00    +0.186 C 
ATOM     19  C   UNL     1      -0.139   1.926  25.130  0.00  0.00    +0.229 C 
ATOM     20  C   UNL     1      -0.236   1.804  25.940  0.00  0.00    +0.188 C 
ATOM     21  O   UNL     1      -0.381   1.002  26.061  0.00  0.00    -0.348 OA
ATOM     22  C   UNL     1      -0.373   0.627  25.326  0.00  0.00    +0.166 C 
ENDROOT
BRANCH  15  14
ATOM     14  N   UNL     1      -0.613  -0.824  25.313  0.00  0.00    -0.074 NA
BRANCH  14  11
ATOM     11  S   UNL     1      -1.284  -1.256  25.106  0.00  0.00    +0.077 S 
ATOM     12  O   UNL     1      -0.905  -1.518  24.422  0.00  0.00    -0.152 OA
ATOM     13  O   UNL     1      -1.664  -0.994  25.790  0.00  0.00    -0.152 OA
BRANCH  11   8
ATOM      5  C   UNL     1      -3.299  -2.553  24.487  0.00  0.00    +0.073 A 
ATOM      6  C   UNL     1      -3.368  -1.893  24.975  0.00  0.00    +0.018 A 
ATOM      7  C   UNL     1      -2.697  -1.460  25.182  0.00  0.00    +0.021 A 
ATOM      8  C   UNL     1      -1.956  -1.688  24.900  0.00  0.00    +0.124 A 
ATOM      9  C   UNL     1      -1.887  -2.349  24.411  0.00  0.00    +0.021 A 
ATOM     10  C   UNL     1      -2.558  -2.781  24.204  0.00  0.00    +0.018 A 
BRANCH   5   4
ATOM      1  C   UNL     1      -5.165  -3.124  23.509  0.00  0.00    +0.097 C 
ATOM      2  C   UNL     1      -4.494  -2.691  23.715  0.00  0.00    +0.246 C 
ATOM      3  O   UNL     1      -4.347  -1.962  23.357  0.00  0.00    -0.273 OA
ATOM      4  N   UNL     1      -3.971  -2.986  24.280  0.00  0.00    -0.179 NA
ENDBRANCH   5   4
ENDBRANCH  11   8
ENDBRANCH  14  11
ENDBRANCH  15  14
BRANCH  19  23
ATOM     23  O   UNL     1       0.016   2.649  24.763  0.00  0.00    -0.432 OA
BRANCH  23  24
ATOM     24  C   UNL     1      -0.371   3.332  25.017  0.00  0.00    +0.421 C 
ATOM     25  O   UNL     1      -0.197   3.653  25.757  0.00  0.00    -0.225 OA
ATOM     26  N   UNL     1      -0.931   3.694  24.533  0.00  0.00    -0.170 NA
BRANCH  26  27
ATOM     27  C   UNL     1      -1.318   4.377  24.786  0.00  0.00    +0.099 C 
ATOM     28  C   UNL     1      -0.953   5.111  24.708  0.00  0.00    +0.022 C 
ATOM     29  C   UNL     1      -1.339   5.794  24.962  0.00  0.00    +0.002 C 
ATOM     30  C   UNL     1      -2.093   5.742  25.295  0.00  0.00    +0.000 C 
ATOM     31  C   UNL     1      -2.459   5.007  25.373  0.00  0.00    +0.002 C 
ATOM     32  C   UNL     1      -2.071   4.324  25.119  0.00  0.00    +0.022 C 
ENDBRANCH  26  27
ENDBRANCH  23  24
ENDBRANCH  19  23
TORSDOF 7
ENDMDL
MODEL 5
REMARK VINA RESULT:      -8.4      1.829      2.265
REMARK  Name = 
REMARK  7 active torsions:
REMARK  status: ('A' for Active; 'I' for Inactive)
REMARK    1  A    between atoms: N_4  and  C_5
REMARK    2  A    between atoms: C_8  and  S_11
REMARK    3  A    between atoms: S_11  and  N_14
REMARK    4  A    between atoms: N_14  and  C_15
REMARK    5  A    between atoms: C_19  and  O_23
REMARK    6  A    between atoms: O_23  and  C_24
REMARK    7  A    between atoms: N_26  and  C_27
REMARK                            x       y       z     vdW  Elec       q    Type
REMARK                         _______ _______ _______ _____ _____    ______ ____
ROOT
ATOM     15  C   UNL     1      -0.789   1.959  25.206  0.00  0.00    +0.157 C 
ATOM     16  C   UNL     1      -0.780   1.608  25.952  0.00  0.00    +0.164 C 
ATOM     17  O   UNL     1      -0.671   0.797  25.850  0.00  0.00    -0.348 OA
ATOM     18  C   UNL     1      -0.613   0.646  25.042  0.00  0.00    +0.186 C 
ATOM     19  C   UNL     1      -0.510   0.052  24.478  0.00  0.00    +0.229 C 
ATOM     20  C   UNL     1      -0.519   0.403  23.732  0.00  0.00    +0.188 C 
ATOM     21  O   UNL     1      -0.628   1.214  23.834  0.00  0.00    -0.348 OA
ATOM     22  C   UNL     1      -0.686   1.365  24.643  0.00  0.00    +0.166 C 
ENDROOT
BRANCH  15  14
ATOM     14  N   UNL     1      -0.885   2.763  25.049  0.00  0.00    -0.074 NA
BRANCH  14  11
ATOM     11  S   UNL     1      -1.630   3.111  25.114  0.00  0.00    +0.077 S 
ATOM     12  O   UNL     1      -1.580   3.068  25.936  0.00  0.00    -0.152 OA
ATOM     13  O   UNL     1      -1.682   3.154  24.292  0.00  0.00    -0.152 OA
BRANCH  11   8
ATOM      5  C   UNL     1      -3.867   4.153  25.305  0.00  0.00    +0.073 A 
ATOM      6  C   UNL     1      -3.344   4.180  25.941  0.00  0.00    +0.018 A 
ATOM      7  C   UNL     1      -2.598   3.833  25.878  0.00  0.00    +0.021 A 
ATOM      8  C   UNL     1      -2.376   3.458  25.178  0.00  0.00    +0.124 A 
ATOM      9  C   UNL     1      -2.899   3.430  24.541  0.00  0.00    +0.021 A 
ATOM     10  C   UNL     1      -3.645   3.778  24.605  0.00  0.00    +0.018 A 
BRANCH   5   4
ATOM      1  C   UNL     1      -6.017   4.383  25.609  0.00  0.00    +0.097 C 
ATOM      2  C   UNL     1      -5.271   4.036  25.546  0.00  0.00    +0.246 C 
ATOM      3  O   UNL     1      -5.183   3.224  25.660  0.00  0.00    -0.273 OA
ATOM      4  N   UNL     1      -4.613   4.500  25.368  0.00  0.00    -0.179 NA
ENDBRANCH   5   4
ENDBRANCH  11   8
ENDBRANCH  14  11
ENDBRANCH  15  14
BRANCH  19  23
ATOM     23  O   UNL     1      -0.414  -0.752  24.635  0.00  0.00    -0.432 OA
BRANCH  23  24
ATOM     24  C   UNL     1      -1.014  -1.285  24.441  0.00  0.00    +0.421 C 
ATOM     25  O   UNL     1      -1.073  -1.578  23.672  0.00  0.00    -0.225 OA
ATOM     26  N   UNL     1      -1.555  -1.524  25.016  0.00  0.00    -0.170 NA
BRANCH  26  27
ATOM     27  C   UNL     1      -2.155  -2.057  24.822  0.00  0.00    +0.099 C 
ATOM     28  C   UNL     1      -1.966  -2.823  24.583  0.00  0.00    +0.022 C 
ATOM     29  C   UNL     1      -2.565  -3.355  24.390  0.00  0.00    +0.002 C 
ATOM     30  C   UNL     1      -3.355  -3.121  24.435  0.00  0.00    +0.000 C 
ATOM     31  C   UNL     1      -3.545  -2.354  24.674  0.00  0.00    +0.002 C 
ATOM     32  C   UNL     1      -2.944  -1.822  24.868  0.00  0.00    +0.022 C 
ENDBRANCH  26  27
ENDBRANCH  23  24
ENDBRANCH  19  23
TORSDOF 7
ENDMDL
MODEL 6
REMARK VINA RESULT:      -7.8      3.140      4.723
REMARK  Name = 
REMARK  7 active torsions:
REMARK  status: ('A' for Active; 'I' for Inactive)
REMARK    1  A    between atoms: N_4  and  C_5
REMARK    2  A    between atoms: C_8  and  S_11
REMARK    3  A    between atoms: S_11  and  N_14
REMARK    4  A    between atoms: N_14  and  C_15
REMARK    5  A    between atoms: C_19  and  O_23
REMARK    6  A    between atoms: O_23  and  C_24
REMARK    7  A    between atoms: N_26  and  C_27
REMARK                            x       y       z     vdW  Elec       q    Type
REMARK                         _______ _______ _______ _____ _____    ______ ____
ROOT
ATOM     15  C   UNL     1      -1.144   0.267  24.122  0.00  0.00    +0.157 C 
ATOM     16  C   UNL     1      -1.214   0.871  23.564  0.00  0.00    +0.164 C 
ATOM     17  O   UNL     1      -2.014   1.055  23.488  0.00  0.00    -0.348 OA
ATOM     18  C   UNL     1      -2.439   0.567  23.998  0.00  0.00    +0.186 C 
ATOM     19  C   UNL     1      -3.196   0.378  24.266  0.00  0.00    +0.229 C 
ATOM     20  C   UNL     1      -3.126  -0.226  24.824  0.00  0.00    +0.188 C 
ATOM     21  O   UNL     1      -2.326  -0.411  24.900  0.00  0.00    -0.348 OA
ATOM     22  C   UNL     1      -1.901   0.079  24.389  0.00  0.00    +0.166 C 
ENDROOT
BRANCH  15  14
ATOM     14  N   UNL     1      -0.440  -0.087  24.368  0.00  0.00    -0.074 NA
BRANCH  14  11
ATOM     11  S   UNL     1       0.262   0.065  23.963  0.00  0.00    +0.077 S 
ATOM     12  O   UNL     1       0.158  -0.625  23.523  0.00  0.00    -0.152 OA
ATOM     13  O   UNL     1       0.367   0.755  24.402  0.00  0.00    -0.152 OA
BRANCH  11   8
ATOM      5  C   UNL     1       2.369   0.522  22.748  0.00  0.00    +0.073 A 
ATOM      6  C   UNL     1       2.086   1.064  23.300  0.00  0.00    +0.018 A 
ATOM      7  C   UNL     1       1.384   0.912  23.706  0.00  0.00    +0.021 A 
ATOM      8  C   UNL     1       0.964   0.217  23.558  0.00  0.00    +0.124 A 
ATOM      9  C   UNL     1       1.248  -0.326  23.004  0.00  0.00    +0.021 A 
ATOM     10  C   UNL     1       1.950  -0.173  22.600  0.00  0.00    +0.018 A 
BRANCH   5   4
ATOM      1  C   UNL     1       4.499   0.744  22.322  0.00  0.00    +0.097 C 
ATOM      2  C   UNL     1       3.796   0.592  22.727  0.00  0.00    +0.246 C 
ATOM      3  O   UNL     1       3.819   0.358  23.518  0.00  0.00    -0.273 OA
ATOM      4  N   UNL     1       3.072   0.674  22.342  0.00  0.00    -0.179 NA
ENDBRANCH   5   4
ENDBRANCH  11   8
ENDBRANCH  14  11
ENDBRANCH  15  14
BRANCH  19  23
ATOM     23  O   UNL     1      -3.899   0.731  24.020  0.00  0.00    -0.432 OA
BRANCH  23  24
ATOM     24  C   UNL     1      -4.321   1.216  24.538  0.00  0.00    +0.421 C 
ATOM     25  O   UNL     1      -4.462   0.969  25.312  0.00  0.00    -0.225 OA
ATOM     26  N   UNL     1      -4.602   1.948  24.282  0.00  0.00    -0.170 NA
BRANCH  26  27
ATOM     27  C   UNL     1      -5.023   2.433  24.799  0.00  0.00    +0.099 C 
ATOM     28  C   UNL     1      -4.684   3.128  25.083  0.00  0.00    +0.022 C 
ATOM     29  C   UNL     1      -5.105   3.613  25.600  0.00  0.00    +0.002 C 
ATOM     30  C   UNL     1      -5.867   3.402  25.835  0.00  0.00    +0.000 C 
ATOM     31  C   UNL     1      -6.208   2.705  25.551  0.00  0.00    +0.002 C 
ATOM     32  C   UNL     1      -5.786   2.221  25.034  0.00  0.00    +0.022 C 
ENDBRANCH  26  27
ENDBRANCH  23  24
ENDBRANCH  19  23
TORSDOF 7
ENDMDL
MODEL 7
REMARK VINA RESULT:      -7.7      3.349      5.142
REMARK  Name = 
REMARK  7 active torsions:
REMARK  status: ('A' for Active; 'I' for Inactive)
REMARK    1  A    between atoms: N_4  and  C_5
REMARK    2  A    between atoms: C_8  and  S_11
REMARK    3  A    between atoms: S_11  and  N_14
REMARK    4  A    between atoms: N_14  and  C_15
REMARK    5  A    between atoms: C_19  and  O_23
REMARK    6  A    between atoms: O_23  and  C_24
REMARK    7  A    between atoms: N_26  and  C_27
REMARK                            x       y       z     vdW  Elec       q    Type
REMARK                         _______ _______ _______ _____ _____    ______ ____
ROOT
ATOM     15  C   UNL     1       0.538   0.546  23.516  0.00  0.00    +0.157 C 
ATOM     16  C   UNL     1       0.805   1.257  23.837  0.00  0.00    +0.164 C 
ATOM     17  O   UNL     1       0.223   1.540  24.348  0.00  0.00    -0.348 OA
ATOM     18  C   UNL     1      -0.404   1.005  24.344  0.00  0.00    +0.186 C 
ATOM     19  C   UNL     1      -1.151   0.847  24.656  0.00  0.00    +0.229 C 
ATOM     20  C   UNL     1      -1.418   0.136  24.335  0.00  0.00    +0.188 C 
ATOM     21  O   UNL     1      -0.836  -0.147  23.824  0.00  0.00    -0.348 OA
ATOM     22  C   UNL     1      -0.209   0.390  23.829  0.00  0.00    +0.166 C 
ENDROOT
BRANCH  15  14
ATOM     14  N   UNL     1       0.946   0.074  22.977  0.00  0.00    -0.074 NA
BRANCH  14  11
ATOM     11  S   UNL     1       1.771   0.075  22.968  0.00  0.00    +0.077 S 
ATOM     12  O   UNL     1       1.766   0.709  22.440  0.00  0.00    -0.152 OA
ATOM     13  O   UNL     1       1.778  -0.559  23.497  0.00  0.00    -0.152 OA
BRANCH  11   8
ATOM      5  C   UNL     1       4.246   0.078  22.945  0.00  0.00    +0.073 A 
ATOM      6  C   UNL     1       3.837  -0.579  23.228  0.00  0.00    +0.018 A 
ATOM      7  C   UNL     1       3.012  -0.581  23.236  0.00  0.00    +0.021 A 
ATOM      8  C   UNL     1       2.596   0.076  22.961  0.00  0.00    +0.124 A 
ATOM      9  C   UNL     1       3.005   0.734  22.677  0.00  0.00    +0.021 A 
ATOM     10  C   UNL     1       3.830   0.735  22.669  0.00  0.00    +0.018 A 
BRANCH   5   4
ATOM      1  C   UNL     1       6.315   0.270  23.614  0.00  0.00    +0.097 C 
ATOM      2  C   UNL     1       5.490   0.269  23.622  0.00  0.00    +0.246 C 
ATOM      3  O   UNL     1       5.084   0.456  24.315  0.00  0.00    -0.273 OA
ATOM      4  N   UNL     1       5.071   0.080  22.937  0.00  0.00    -0.179 NA
ENDBRANCH   5   4
ENDBRANCH  11   8
ENDBRANCH  14  11
ENDBRANCH  15  14
BRANCH  19  23
ATOM     23  O   UNL     1      -1.559   1.320  25.196  0.00  0.00    -0.432 OA
BRANCH  23  24
ATOM     24  C   UNL     1      -2.330   1.565  25.029  0.00  0.00    +0.421 C 
ATOM     25  O   UNL     1      -2.915   1.006  24.872  0.00  0.00    -0.225 OA
ATOM     26  N   UNL     1      -2.514   2.369  25.021  0.00  0.00    -0.170 NA
BRANCH  26  27
ATOM     27  C   UNL     1      -3.284   2.614  24.854  0.00  0.00    +0.099 C 
ATOM     28  C   UNL     1      -3.843   2.656  25.458  0.00  0.00    +0.022 C 
ATOM     29  C   UNL     1      -4.613   2.901  25.292  0.00  0.00    +0.002 C 
ATOM     30  C   UNL     1      -4.824   3.105  24.521  0.00  0.00    +0.000 C 
ATOM     31  C   UNL     1      -4.264   3.063  23.916  0.00  0.00    +0.002 C 
ATOM     32  C   UNL     1      -3.494   2.818  24.083  0.00  0.00    +0.022 C 
ENDBRANCH  26  27
ENDBRANCH  23  24
ENDBRANCH  19  23
TORSDOF 7
ENDMDL
MODEL 8
REMARK VINA RESULT:      -7.5      1.896      5.500
REMARK  Name = 
REMARK  7 active torsions:
REMARK  status: ('A' for Active; 'I' for Inactive)
REMARK    1  A    between atoms: N_4  and  C_5
REMARK    2  A    between atoms: C_8  and  S_11
REMARK    3  A    between atoms: S_11  and  N_14
REMARK    4  A    between atoms: N_14  and  C_15
REMARK    5  A    between atoms: C_19  and  O_23
REMARK    6  A    between atoms: O_23  and  C_24
REMARK    7  A    between atoms: N_26  and  C_27
REMARK                            x       y       z     vdW  Elec       q    Type
REMARK                         _______ _______ _______ _____ _____    ______ ____
ROOT
ATOM     15  C   UNL     1      -0.752   1.609  24.655  0.00  0.00    +0.157 C 
ATOM     16  C   UNL     1      -1.049   1.849  23.924  0.00  0.00    +0.164 C 
ATOM     17  O   UNL     1      -1.459   2.555  24.036  0.00  0.00    -0.348 OA
ATOM     18  C   UNL     1      -1.416   2.752  24.835  0.00  0.00    +0.186 C 
ATOM     19  C   UNL     1      -1.642   3.310  25.400  0.00  0.00    +0.229 C 
ATOM     20  C   UNL     1      -1.345   3.070  26.131  0.00  0.00    +0.188 C 
ATOM     21  O   UNL     1      -0.935   2.364  26.019  0.00  0.00    -0.348 OA
ATOM     22  C   UNL     1      -0.978   2.167  25.218  0.00  0.00    +0.166 C 
ENDROOT
BRANCH  15  14
ATOM     14  N   UNL     1      -0.305   0.929  24.798  0.00  0.00    -0.074 NA
BRANCH  14  11
ATOM     11  S   UNL     1      -0.665   0.187  24.775  0.00  0.00    +0.077 S 
ATOM     12  O   UNL     1      -0.646   0.202  23.950  0.00  0.00    -0.152 OA
ATOM     13  O   UNL     1      -0.683   0.170  25.600  0.00  0.00    -0.152 OA
BRANCH  11   8
ATOM      5  C   UNL     1      -1.743  -2.040  24.710  0.00  0.00    +0.073 A 
ATOM      6  C   UNL     1      -1.214  -1.820  24.116  0.00  0.00    +0.018 A 
ATOM      7  C   UNL     1      -0.855  -1.078  24.138  0.00  0.00    +0.021 A 
ATOM      8  C   UNL     1      -1.024  -0.555  24.753  0.00  0.00    +0.124 A 
ATOM      9  C   UNL     1      -1.553  -0.775  25.347  0.00  0.00    +0.021 A 
ATOM     10  C   UNL     1      -1.913  -1.517  25.325  0.00  0.00    +0.018 A 
BRANCH   5   4
ATOM      1  C   UNL     1      -3.250  -3.595  24.433  0.00  0.00    +0.097 C 
ATOM      2  C   UNL     1      -2.891  -2.852  24.454  0.00  0.00    +0.246 C 
ATOM      3  O   UNL     1      -3.319  -2.181  24.241  0.00  0.00    -0.273 OA
ATOM      4  N   UNL     1      -2.103  -2.782  24.688  0.00  0.00    -0.179 NA
ENDBRANCH   5   4
ENDBRANCH  11   8
ENDBRANCH  14  11
ENDBRANCH  15  14
BRANCH  19  23
ATOM     23  O   UNL     1      -2.089   3.989  25.257  0.00  0.00    -0.432 OA
BRANCH  23  24
ATOM     24  C   UNL     1      -2.879   4.021  25.491  0.00  0.00    +0.421 C 
ATOM     25  O   UNL     1      -3.073   4.243  26.261  0.00  0.00    -0.225 OA
ATOM     26  N   UNL     1      -3.476   3.830  24.955  0.00  0.00    -0.170 NA
BRANCH  26  27
ATOM     27  C   UNL     1      -4.267   3.861  25.189  0.00  0.00    +0.099 C 
ATOM     28  C   UNL     1      -4.665   4.583  25.201  0.00  0.00    +0.022 C 
ATOM     29  C   UNL     1      -5.455   4.614  25.435  0.00  0.00    +0.002 C 
ATOM     30  C   UNL     1      -5.848   3.923  25.657  0.00  0.00    +0.000 C 
ATOM     31  C   UNL     1      -5.449   3.201  25.645  0.00  0.00    +0.002 C 
ATOM     32  C   UNL     1      -4.659   3.170  25.411  0.00  0.00    +0.022 C 
ENDBRANCH  26  27
ENDBRANCH  23  24
ENDBRANCH  19  23
TORSDOF 7
ENDMDL
MODEL 9
REMARK VINA RESULT:      -7.0     17.293     19.059
REMARK  Name = 
REMARK  7 active torsions:
REMARK  status: ('A' for Active; 'I' for Inactive)
REMARK    1  A    between atoms: N_4  and  C_5
REMARK    2  A    between atoms: C_8  and  S_11
REMARK    3  A    between atoms: S_11  and  N_14
REMARK    4  A    between atoms: N_14  and  C_15
REMARK    5  A    between atoms: C_19  and  O_23
REMARK    6  A    between atoms: O_23  and  C_24
REMARK    7  A    between atoms: N_26  and  C_27
REMARK                            x       y       z     vdW  Elec       q    Type
REMARK                         _______ _______ _______ _____ _____    ______ ____
ROOT
ATOM     15  C   UNL     1      -6.604  -9.293   9.480  0.00  0.00    +0.157 C 
ATOM     16  C   UNL     1      -6.245  -9.056   8.776  0.00  0.00    +0.164 C 
ATOM     17  O   UNL     1      -6.782  -8.585   8.364  0.00  0.00    -0.348 OA
ATOM     18  C   UNL     1      -7.472  -8.530   8.812  0.00  0.00    +0.186 C 
ATOM     19  C   UNL     1      -8.230  -8.206   8.835  0.00  0.00    +0.229 C 
ATOM     20  C   UNL     1      -8.588  -8.443   9.539  0.00  0.00    +0.188 C 
ATOM     21  O   UNL     1      -8.052  -8.914   9.952  0.00  0.00    -0.348 OA
ATOM     22  C   UNL     1      -7.361  -8.968   9.502  0.00  0.00    +0.166 C 
ENDROOT
BRANCH  15  14
ATOM     14  N   UNL     1      -6.264  -9.771  10.061  0.00  0.00    -0.074 NA
BRANCH  14  11
ATOM     11  S   UNL     1      -5.451  -9.735  10.202  0.00  0.00    +0.077 S 
ATOM     12  O   UNL     1      -5.324 -10.308   9.623  0.00  0.00    -0.152 OA
ATOM     13  O   UNL     1      -5.578  -9.161  10.781  0.00  0.00    -0.152 OA
BRANCH  11   8
ATOM      5  C   UNL     1      -3.016  -9.624  10.627  0.00  0.00    +0.073 A 
ATOM      6  C   UNL     1      -3.480  -8.949  10.714  0.00  0.00    +0.018 A 
ATOM      7  C   UNL     1      -4.293  -8.985  10.572  0.00  0.00    +0.021 A 
ATOM      8  C   UNL     1      -4.640  -9.697  10.344  0.00  0.00    +0.124 A 
ATOM      9  C   UNL     1      -4.175 -10.374  10.257  0.00  0.00    +0.021 A 
ATOM     10  C   UNL     1      -3.363 -10.337  10.398  0.00  0.00    +0.018 A 
BRANCH   5   4
ATOM      1  C   UNL     1      -1.082  -9.845  11.616  0.00  0.00    +0.097 C 
ATOM      2  C   UNL     1      -1.894  -9.881  11.474  0.00  0.00    +0.246 C 
ATOM      3  O   UNL     1      -2.397 -10.211  12.039  0.00  0.00    -0.273 OA
ATOM      4  N   UNL     1      -2.204  -9.588  10.769  0.00  0.00    -0.179 NA
ENDBRANCH   5   4
ENDBRANCH  11   8
ENDBRANCH  14  11
ENDBRANCH  15  14
BRANCH  19  23
ATOM     23  O   UNL     1      -8.570  -7.728   8.255  0.00  0.00    -0.432 OA
BRANCH  23  24
ATOM     24  C   UNL     1      -9.050  -7.093   8.473  0.00  0.00    +0.421 C 
ATOM     25  O   UNL     1      -9.640  -7.197   9.039  0.00  0.00    -0.225 OA
ATOM     26  N   UNL     1      -8.939  -6.354   8.124  0.00  0.00    -0.170 NA
BRANCH  26  27
ATOM     27  C   UNL     1      -9.419  -5.719   8.342  0.00  0.00    +0.099 C 
ATOM     28  C   UNL     1     -10.237  -5.770   8.255  0.00  0.00    +0.022 C 
ATOM     29  C   UNL     1     -10.716  -5.136   8.472  0.00  0.00    +0.002 C 
ATOM     30  C   UNL     1     -10.377  -4.448   8.777  0.00  0.00    +0.000 C 
ATOM     31  C   UNL     1      -9.558  -4.396   8.864  0.00  0.00    +0.002 C 
ATOM     32  C   UNL     1      -9.079  -5.031   8.646  0.00  0.00    +0.022 C 
ENDBRANCH  26  27
ENDBRANCH  23  24
ENDBRANCH  19  23
TORSDOF 7
ENDMDL
