MODEL 1
REMARK VINA RESULT:      -9.3      0.000      0.000
REMARK  Name = 
REMARK  7 active torsions:
REMARK  status: ('A' for Active; 'I' for Inactive)
REMARK    1  A    between atoms: O_2  and  C_3
REMARK    2  A    between atoms: C_3  and  C_4
REMARK    3  A    between atoms: N_6  and  C_9
REMARK    4  A    between atoms: C_13  and  O_17
REMARK    5  A    between atoms: O_17  and  C_18
REMARK    6  A    between atoms: N_20  and  C_21
REMARK    7  A    between atoms: C_24  and  C_27
REMARK                            x       y       z     vdW  Elec       q    Type
REMARK                         _______ _______ _______ _____ _____    ______ ____
ROOT
ATOM      9  C   UNL     1       1.397   0.308  23.095  0.00  0.00    +0.166 C 
ATOM     10  C   UNL     1       1.085  -0.322  22.664  0.00  0.00    +0.169 C 
ATOM     11  O   UNL     1       0.301  -0.425  22.898  0.00  0.00    -0.348 OA
ATOM     12  C   UNL     1       0.128   0.140  23.472  0.00  0.00    +0.187 C 
ATOM     13  C   UNL     1      -0.462   0.427  23.972  0.00  0.00    +0.229 C 
ATOM     14  C   UNL     1      -0.150   1.057  24.403  0.00  0.00    +0.188 C 
ATOM     15  O   UNL     1       0.634   1.160  24.169  0.00  0.00    -0.348 OA
ATOM     16  C   UNL     1       0.806   0.594  23.594  0.00  0.00    +0.171 C 
ENDROOT
BRANCH   9   6
ATOM      4  C   UNL     1       3.492   0.669  22.890  0.00  0.00    +0.131 A 
ATOM      5  C   UNL     1       2.848   0.154  22.910  0.00  0.00    +0.116 A 
ATOM      6  N   UNL     1       2.167   0.602  23.037  0.00  0.00    -0.227 N 
ATOM      7  N   UNL     1       2.389   1.394  23.095  0.00  0.00    -0.064 NA
ATOM      8  N   UNL     1       3.208   1.436  23.004  0.00  0.00    -0.131 NA
BRANCH   4   3
ATOM      3  C   UNL     1       4.281   0.456  22.775  0.00  0.00    +0.191 C 
BRANCH   3   2
ATOM      1  C   UNL     1       5.534   0.080  23.350  0.00  0.00    +0.175 C 
ATOM      2  O   UNL     1       4.807   0.466  23.411  0.00  0.00    -0.345 OA
ENDBRANCH   3   2
ENDBRANCH   4   3
ENDBRANCH   9   6
BRANCH  13  17
ATOM     17  O   UNL     1      -1.232   0.133  24.030  0.00  0.00    -0.432 OA
BRANCH  17  18
ATOM     18  C   UNL     1      -1.835   0.612  24.327  0.00  0.00    +0.425 C 
ATOM     19  O   UNL     1      -1.735   0.999  25.049  0.00  0.00    -0.224 OA
ATOM     20  N   UNL     1      -2.536   0.703  23.904  0.00  0.00    -0.142 NA
BRANCH  20  21
ATOM     21  C   UNL     1      -3.139   1.181  24.201  0.00  0.00    +0.077 A 
ATOM     22  C   UNL     1      -3.197   1.968  23.962  0.00  0.00    +0.016 A 
ATOM     23  C   UNL     1      -3.799   2.447  24.259  0.00  0.00    -0.003 A 
ATOM     24  C   UNL     1      -4.345   2.138  24.796  0.00  0.00    -0.023 A 
ATOM     25  C   UNL     1      -4.287   1.350  25.035  0.00  0.00    -0.003 A 
ATOM     26  C   UNL     1      -3.684   0.872  24.738  0.00  0.00    +0.016 A 
BRANCH  24  27
ATOM     27  C   UNL     1      -4.947   2.615  25.093  0.00  0.00    +0.019 C 
ATOM     28  C   UNL     1      -5.551   3.093  25.391  0.00  0.00    +0.004 C 
ATOM     29  C   UNL     1      -4.414   3.239  25.175  0.00  0.00    +0.004 C 
ATOM     30  C   UNL     1      -5.481   1.992  25.012  0.00  0.00    +0.004 C 
ENDBRANCH  24  27
ENDBRANCH  20  21
ENDBRANCH  17  18
ENDBRANCH  13  17
TORSDOF 7
ENDMDL
MODEL 2
REMARK VINA RESULT:      -8.4      3.148      4.929
REMARK  Name = 
REMARK  7 active torsions:
REMARK  status: ('A' for Active; 'I' for Inactive)
REMARK    1  A    between atoms: O_2  and  C_3
REMARK    2  A    between atoms: C_3  and  C_4
REMARK    3  A    between atoms: N_6  and  C_9
REMARK    4  A    between atoms: C_13  and  O_17
REMARK    5  A    between atoms: O_17  and  C_18
REMARK    6  A    between atoms: N_20  and  C_21
REMARK    7  A    between atoms: C_24  and  C_27
REMARK                            x       y       z     vdW  Elec       q    Type
REMARK                         _______ _______ _______ _____ _____    ______ ____
ROOT
ATOM      9  C   UNL     1      -1.453  -1.151  25.133  0.00  0.00    +0.166 C 
ATOM     10  C   UNL     1      -1.373  -0.916  25.919  0.00  0.00    +0.169 C 
ATOM     11  O   UNL     1      -0.915  -0.230  25.934  0.00  0.00    -0.348 OA
ATOM     12  C   UNL     1      -0.712  -0.041  25.158  0.00  0.00    +0.187 C 
ATOM     13  C   UNL     1      -0.304   0.499  24.687  0.00  0.00    +0.229 C 
ATOM     14  C   UNL     1      -0.384   0.264  23.900  0.00  0.00    +0.188 C 
ATOM     15  O   UNL     1      -0.841  -0.422  23.885  0.00  0.00    -0.348 OA
ATOM     16  C   UNL     1      -1.044  -0.611  24.663  0.00  0.00    +0.171 C 
ENDROOT
BRANCH   9   6
ATOM      4  C   UNL     1      -2.861  -2.616  24.476  0.00  0.00    +0.131 A 
ATOM      5  C   UNL     1      -2.684  -1.857  24.747  0.00  0.00    +0.116 A 
ATOM      6  N   UNL     1      -1.868  -1.812  24.864  0.00  0.00    -0.227 N 
ATOM      7  N   UNL     1      -1.541  -2.542  24.664  0.00  0.00    -0.064 NA
ATOM      8  N   UNL     1      -2.155  -3.039  24.424  0.00  0.00    -0.131 NA
BRANCH   4   3
ATOM      3  C   UNL     1      -3.613  -2.901  24.288  0.00  0.00    +0.191 C 
BRANCH   3   2
ATOM      1  C   UNL     1      -4.823  -2.728  23.549  0.00  0.00    +0.175 C 
ATOM      2  O   UNL     1      -4.161  -2.405  23.921  0.00  0.00    -0.345 OA
ENDBRANCH   3   2
ENDBRANCH   4   3
ENDBRANCH   9   6
BRANCH  13  17
ATOM     17  O   UNL     1       0.112   1.159  24.956  0.00  0.00    -0.432 OA
BRANCH  17  18
ATOM     18  C   UNL     1      -0.202   1.915  24.851  0.00  0.00    +0.425 C 
ATOM     19  O   UNL     1      -0.343   2.201  24.091  0.00  0.00    -0.224 OA
ATOM     20  N   UNL     1      -0.374   2.385  25.507  0.00  0.00    -0.142 NA
BRANCH  20  21
ATOM     21  C   UNL     1      -0.688   3.141  25.402  0.00  0.00    +0.077 A 
ATOM     22  C   UNL     1      -1.440   3.319  25.689  0.00  0.00    +0.016 A 
ATOM     23  C   UNL     1      -1.754   4.074  25.584  0.00  0.00    -0.003 A 
ATOM     24  C   UNL     1      -1.315   4.653  25.193  0.00  0.00    -0.023 A 
ATOM     25  C   UNL     1      -0.561   4.475  24.905  0.00  0.00    -0.003 A 
ATOM     26  C   UNL     1      -0.249   3.719  25.010  0.00  0.00    +0.016 A 
BRANCH  24  27
ATOM     27  C   UNL     1      -1.627   5.408  25.088  0.00  0.00    +0.019 C 
ATOM     28  C   UNL     1      -1.941   6.165  24.983  0.00  0.00    +0.004 C 
ATOM     29  C   UNL     1      -0.921   5.652  24.737  0.00  0.00    +0.004 C 
ATOM     30  C   UNL     1      -2.333   5.165  25.438  0.00  0.00    +0.004 C 
ENDBRANCH  24  27
ENDBRANCH  20  21
ENDBRANCH  17  18
ENDBRANCH  13  17
TORSDOF 7
ENDMDL
MODEL 3
REMARK VINA RESULT:      -8.0      4.123      5.298
REMARK  Name = 
REMARK  7 active torsions:
REMARK  status: ('A' for Active; 'I' for Inactive)
REMARK    1  A    between atoms: O_2  and  C_3
REMARK    2  A    between atoms: C_3  and  C_4
REMARK    3  A    between atoms: N_6  and  C_9
REMARK    4  A    between atoms: C_13  and  O_17
REMARK    5  A    between atoms: O_17  and  C_18
REMARK    6  A    between atoms: N_20  and  C_21
REMARK    7  A    between atoms: C_24  and  C_27
REMARK                            x       y       z     vdW  Elec       q    Type
REMARK                         _______ _______ _______ _____ _____    ______ ____
ROOT
ATOM      9  C   UNL     1      -2.990   3.852  25.383  0.00  0.00    +0.166 C 
ATOM     10  C   UNL     1      -3.372   3.626  26.078  0.00  0.00    +0.169 C 
ATOM     11  O   UNL     1      -3.861   2.985  25.902  0.00  0.00    -0.348 OA
ATOM     12  C   UNL     1      -3.780   2.814  25.100  0.00  0.00    +0.187 C 
ATOM     13  C   UNL     1      -4.031   2.313  24.494  0.00  0.00    +0.229 C 
ATOM     14  C   UNL     1      -3.649   2.539  23.800  0.00  0.00    +0.188 C 
ATOM     15  O   UNL     1      -3.160   3.180  23.975  0.00  0.00    -0.348 OA
ATOM     16  C   UNL     1      -3.241   3.351  24.779  0.00  0.00    +0.171 C 
ENDROOT
BRANCH   9   6
ATOM      4  C   UNL     1      -1.344   5.164  25.023  0.00  0.00    +0.131 A 
ATOM      5  C   UNL     1      -1.688   4.415  24.993  0.00  0.00    +0.116 A 
ATOM      6  N   UNL     1      -2.450   4.471  25.306  0.00  0.00    -0.227 N 
ATOM      7  N   UNL     1      -2.576   5.255  25.528  0.00  0.00    -0.064 NA
ATOM      8  N   UNL     1      -1.893   5.684  25.353  0.00  0.00    -0.131 NA
BRANCH   4   3
ATOM      3  C   UNL     1      -0.584   5.359  24.766  0.00  0.00    +0.191 C 
BRANCH   3   2
ATOM      1  C   UNL     1       0.266   5.008  23.673  0.00  0.00    +0.175 C 
ATOM      2  O   UNL     1      -0.128   4.799  24.367  0.00  0.00    -0.345 OA
ENDBRANCH   3   2
ENDBRANCH   4   3
ENDBRANCH   9   6
BRANCH  13  17
ATOM     17  O   UNL     1      -4.571   1.694  24.571  0.00  0.00    -0.432 OA
BRANCH  17  18
ATOM     18  C   UNL     1      -4.328   0.916  24.447  0.00  0.00    +0.425 C 
ATOM     19  O   UNL     1      -3.909   0.719  23.764  0.00  0.00    -0.224 OA
ATOM     20  N   UNL     1      -4.502   0.334  25.005  0.00  0.00    -0.142 NA
BRANCH  20  21
ATOM     21  C   UNL     1      -4.258  -0.444  24.881  0.00  0.00    +0.077 A 
ATOM     22  C   UNL     1      -3.747  -0.807  25.416  0.00  0.00    +0.016 A 
ATOM     23  C   UNL     1      -3.503  -1.585  25.292  0.00  0.00    -0.003 A 
ATOM     24  C   UNL     1      -3.771  -2.001  24.631  0.00  0.00    -0.023 A 
ATOM     25  C   UNL     1      -4.282  -1.637  24.095  0.00  0.00    -0.003 A 
ATOM     26  C   UNL     1      -4.525  -0.859  24.220  0.00  0.00    +0.016 A 
BRANCH  24  27
ATOM     27  C   UNL     1      -3.527  -2.778  24.506  0.00  0.00    +0.019 C 
ATOM     28  C   UNL     1      -3.283  -3.557  24.382  0.00  0.00    +0.004 C 
ATOM     29  C   UNL     1      -4.085  -2.856  23.904  0.00  0.00    +0.004 C 
ATOM     30  C   UNL     1      -2.970  -2.701  25.109  0.00  0.00    +0.004 C 
ENDBRANCH  24  27
ENDBRANCH  20  21
ENDBRANCH  17  18
ENDBRANCH  13  17
TORSDOF 7
ENDMDL
MODEL 4
REMARK VINA RESULT:      -7.5      4.072      5.257
REMARK  Name = 
REMARK  7 active torsions:
REMARK  status: ('A' for Active; 'I' for Inactive)
REMARK    1  A    between atoms: O_2  and  C_3
REMARK    2  A    between atoms: C_3  and  C_4
REMARK    3  A    between atoms: N_6  and  C_9
REMARK    4  A    between atoms: C_13  and  O_17
REMARK    5  A    between atoms: O_17  and  C_18
REMARK    6  A    between atoms: N_20  and  C_21
REMARK    7  A    between atoms: C_24  and  C_27
REMARK                            x       y       z     vdW  Elec       q    Type
REMARK                         _______ _______ _______ _____ _____    ______ ____
ROOT
ATOM      9  C   UNL     1      -4.039  -0.700  24.805  0.00  0.00    +0.166 C 
ATOM     10  C   UNL     1      -4.406  -0.486  25.512  0.00  0.00    +0.169 C 
ATOM     11  O   UNL     1      -4.527   0.330  25.499  0.00  0.00    -0.348 OA
ATOM     12  C   UNL     1      -4.235   0.620  24.785  0.00  0.00    +0.187 C 
ATOM     13  C   UNL     1      -4.128   1.303  24.335  0.00  0.00    +0.229 C 
ATOM     14  C   UNL     1      -3.762   1.089  23.628  0.00  0.00    +0.188 C 
ATOM     15  O   UNL     1      -3.641   0.273  23.641  0.00  0.00    -0.348 OA
ATOM     16  C   UNL     1      -3.934  -0.017  24.356  0.00  0.00    +0.171 C 
ENDROOT
BRANCH   9   6
ATOM      4  C   UNL     1      -3.092  -2.566  24.381  0.00  0.00    +0.131 A 
ATOM      5  C   UNL     1      -3.065  -1.794  24.670  0.00  0.00    +0.116 A 
ATOM      6  N   UNL     1      -3.817  -1.464  24.586  0.00  0.00    -0.227 N 
ATOM      7  N   UNL     1      -4.308  -2.032  24.245  0.00  0.00    -0.064 NA
ATOM      8  N   UNL     1      -3.860  -2.714  24.118  0.00  0.00    -0.131 NA
BRANCH   4   3
ATOM      3  C   UNL     1      -2.460  -3.097  24.358  0.00  0.00    +0.191 C 
BRANCH   3   2
ATOM      1  C   UNL     1      -1.039  -3.100  24.500  0.00  0.00    +0.175 C 
ATOM      2  O   UNL     1      -1.718  -2.843  24.106  0.00  0.00    -0.345 OA
ENDBRANCH   3   2
ENDBRANCH   4   3
ENDBRANCH   9   6
BRANCH  13  17
ATOM     17  O   UNL     1      -4.350   2.067  24.554  0.00  0.00    -0.432 OA
BRANCH  17  18
ATOM     18  C   UNL     1      -3.804   2.684  24.510  0.00  0.00    +0.425 C 
ATOM     19  O   UNL     1      -3.747   3.136  23.822  0.00  0.00    -0.224 OA
ATOM     20  N   UNL     1      -3.316   2.850  25.153  0.00  0.00    -0.142 NA
BRANCH  20  21
ATOM     21  C   UNL     1      -2.770   3.467  25.110  0.00  0.00    +0.077 A 
ATOM     22  C   UNL     1      -3.019   4.246  25.211  0.00  0.00    +0.016 A 
ATOM     23  C   UNL     1      -2.474   4.863  25.168  0.00  0.00    -0.003 A 
ATOM     24  C   UNL     1      -1.678   4.700  25.022  0.00  0.00    -0.023 A 
ATOM     25  C   UNL     1      -1.428   3.920  24.920  0.00  0.00    -0.003 A 
ATOM     26  C   UNL     1      -1.975   3.304  24.964  0.00  0.00    +0.016 A 
BRANCH  24  27
ATOM     27  C   UNL     1      -1.132   5.316  24.978  0.00  0.00    +0.019 C 
ATOM     28  C   UNL     1      -0.585   5.934  24.935  0.00  0.00    +0.004 C 
ATOM     29  C   UNL     1      -0.531   4.773  24.819  0.00  0.00    +0.004 C 
ATOM     30  C   UNL     1      -1.732   5.859  25.138  0.00  0.00    +0.004 C 
ENDBRANCH  24  27
ENDBRANCH  20  21
ENDBRANCH  17  18
ENDBRANCH  13  17
TORSDOF 7
ENDMDL
MODEL 5
REMARK VINA RESULT:      -7.4      1.332      2.047
REMARK  Name = 
REMARK  7 active torsions:
REMARK  status: ('A' for Active; 'I' for Inactive)
REMARK    1  A    between atoms: O_2  and  C_3
REMARK    2  A    between atoms: C_3  and  C_4
REMARK    3  A    between atoms: N_6  and  C_9
REMARK    4  A    between atoms: C_13  and  O_17
REMARK    5  A    between atoms: O_17  and  C_18
REMARK    6  A    between atoms: N_20  and  C_21
REMARK    7  A    between atoms: C_24  and  C_27
REMARK                            x       y       z     vdW  Elec       q    Type
REMARK                         _______ _______ _______ _____ _____    ______ ____
ROOT
ATOM      9  C   UNL     1       0.404   1.303  23.931  0.00  0.00    +0.166 C 
ATOM     10  C   UNL     1       0.552   1.623  24.677  0.00  0.00    +0.169 C 
ATOM     11  O   UNL     1      -0.071   2.131  24.863  0.00  0.00    -0.348 OA
ATOM     12  C   UNL     1      -0.603   2.125  24.234  0.00  0.00    +0.187 C 
ATOM     13  C   UNL     1      -1.316   2.435  23.958  0.00  0.00    +0.229 C 
ATOM     14  C   UNL     1      -1.464   2.115  23.213  0.00  0.00    +0.188 C 
ATOM     15  O   UNL     1      -0.841   1.607  23.027  0.00  0.00    -0.348 OA
ATOM     16  C   UNL     1      -0.309   1.613  23.657  0.00  0.00    +0.171 C 
ENDROOT
BRANCH   9   6
ATOM      4  C   UNL     1       1.929   0.223  22.898  0.00  0.00    +0.131 A 
ATOM      5  C   UNL     1       1.657   0.907  23.270  0.00  0.00    +0.116 A 
ATOM      6  N   UNL     1       0.886   0.766  23.530  0.00  0.00    -0.227 N 
ATOM      7  N   UNL     1       0.681  -0.004  23.318  0.00  0.00    -0.064 NA
ATOM      8  N   UNL     1       1.326  -0.341  22.927  0.00  0.00    -0.131 NA
BRANCH   4   3
ATOM      3  C   UNL     1       2.673   0.120  22.556  0.00  0.00    +0.191 C 
BRANCH   3   2
ATOM      1  C   UNL     1       4.061   0.453  22.497  0.00  0.00    +0.175 C 
ATOM      2  O   UNL     1       3.303   0.598  22.790  0.00  0.00    -0.345 OA
ENDBRANCH   3   2
ENDBRANCH   4   3
ENDBRANCH   9   6
BRANCH  13  17
ATOM     17  O   UNL     1      -1.798   2.972  24.360  0.00  0.00    -0.432 OA
BRANCH  17  18
ATOM     18  C   UNL     1      -2.607   2.825  24.434  0.00  0.00    +0.425 C 
ATOM     19  O   UNL     1      -3.104   2.917  23.782  0.00  0.00    -0.224 OA
ATOM     20  N   UNL     1      -2.918   2.587  25.159  0.00  0.00    -0.142 NA
BRANCH  20  21
ATOM     21  C   UNL     1      -3.727   2.441  25.233  0.00  0.00    +0.077 A 
ATOM     22  C   UNL     1      -4.022   1.680  25.113  0.00  0.00    +0.016 A 
ATOM     23  C   UNL     1      -4.829   1.534  25.187  0.00  0.00    -0.003 A 
ATOM     24  C   UNL     1      -5.344   2.149  25.381  0.00  0.00    -0.023 A 
ATOM     25  C   UNL     1      -5.050   2.911  25.502  0.00  0.00    -0.003 A 
ATOM     26  C   UNL     1      -4.241   3.056  25.428  0.00  0.00    +0.016 A 
BRANCH  24  27
ATOM     27  C   UNL     1      -6.152   2.004  25.456  0.00  0.00    +0.019 C 
ATOM     28  C   UNL     1      -6.962   1.858  25.530  0.00  0.00    +0.004 C 
ATOM     29  C   UNL     1      -6.163   1.676  24.698  0.00  0.00    +0.004 C 
ATOM     30  C   UNL     1      -6.142   2.331  26.213  0.00  0.00    +0.004 C 
ENDBRANCH  24  27
ENDBRANCH  20  21
ENDBRANCH  17  18
ENDBRANCH  13  17
TORSDOF 7
ENDMDL
MODEL 6
REMARK VINA RESULT:      -7.3      3.173      4.752
REMARK  Name = 
REMARK  7 active torsions:
REMARK  status: ('A' for Active; 'I' for Inactive)
REMARK    1  A    between atoms: O_2  and  C_3
REMARK    2  A    between atoms: C_3  and  C_4
REMARK    3  A    between atoms: N_6  and  C_9
REMARK    4  A    between atoms: C_13  and  O_17
REMARK    5  A    between atoms: O_17  and  C_18
REMARK    6  A    between atoms: N_20  and  C_21
REMARK    7  A    between atoms: C_24  and  C_27
REMARK                            x       y       z     vdW  Elec       q    Type
REMARK                         _______ _______ _______ _____ _____    ______ ____
ROOT
ATOM      9  C   UNL     1      -0.465   2.681  25.375  0.00  0.00    +0.166 C 
ATOM     10  C   UNL     1      -0.540   2.382  26.141  0.00  0.00    +0.169 C 
ATOM     11  O   UNL     1      -0.516   1.559  26.096  0.00  0.00    -0.348 OA
ATOM     12  C   UNL     1      -0.426   1.348  25.305  0.00  0.00    +0.187 C 
ATOM     13  C   UNL     1      -0.355   0.710  24.787  0.00  0.00    +0.229 C 
ATOM     14  C   UNL     1      -0.280   1.008  24.022  0.00  0.00    +0.188 C 
ATOM     15  O   UNL     1      -0.304   1.831  24.066  0.00  0.00    -0.348 OA
ATOM     16  C   UNL     1      -0.394   2.042  24.859  0.00  0.00    +0.171 C 
ENDROOT
BRANCH   9   6
ATOM      4  C   UNL     1      -0.853   4.737  24.950  0.00  0.00    +0.131 A 
ATOM      5  C   UNL     1      -1.101   3.998  25.220  0.00  0.00    +0.116 A 
ATOM      6  N   UNL     1      -0.462   3.478  25.164  0.00  0.00    -0.227 N 
ATOM      7  N   UNL     1       0.181   3.896  24.860  0.00  0.00    -0.064 NA
ATOM      8  N   UNL     1      -0.061   4.675  24.728  0.00  0.00    -0.131 NA
BRANCH   4   3
ATOM      3  C   UNL     1      -1.316   5.419  24.910  0.00  0.00    +0.191 C 
BRANCH   3   2
ATOM      1  C   UNL     1      -2.522   6.115  25.230  0.00  0.00    +0.175 C 
ATOM      2  O   UNL     1      -2.043   5.446  25.298  0.00  0.00    -0.345 OA
ENDBRANCH   3   2
ENDBRANCH   4   3
ENDBRANCH   9   6
BRANCH  13  17
ATOM     17  O   UNL     1      -0.358  -0.088  24.998  0.00  0.00    -0.432 OA
BRANCH  17  18
ATOM     18  C   UNL     1      -0.953  -0.586  24.719  0.00  0.00    +0.425 C 
ATOM     19  O   UNL     1      -0.912  -0.889  23.953  0.00  0.00    -0.224 OA
ATOM     20  N   UNL     1      -1.590  -0.782  25.205  0.00  0.00    -0.142 NA
BRANCH  20  21
ATOM     21  C   UNL     1      -2.185  -1.281  24.926  0.00  0.00    +0.077 A 
ATOM     22  C   UNL     1      -2.040  -2.088  24.838  0.00  0.00    +0.016 A 
ATOM     23  C   UNL     1      -2.635  -2.586  24.559  0.00  0.00    -0.003 A 
ATOM     24  C   UNL     1      -3.376  -2.277  24.367  0.00  0.00    -0.023 A 
ATOM     25  C   UNL     1      -3.521  -1.469  24.454  0.00  0.00    -0.003 A 
ATOM     26  C   UNL     1      -2.925  -0.971  24.734  0.00  0.00    +0.016 A 
BRANCH  24  27
ATOM     27  C   UNL     1      -3.971  -2.774  24.088  0.00  0.00    +0.019 C 
ATOM     28  C   UNL     1      -4.567  -3.273  23.809  0.00  0.00    +0.004 C 
ATOM     29  C   UNL     1      -4.345  -2.129  23.735  0.00  0.00    +0.004 C 
ATOM     30  C   UNL     1      -3.597  -3.419  24.441  0.00  0.00    +0.004 C 
ENDBRANCH  24  27
ENDBRANCH  20  21
ENDBRANCH  17  18
ENDBRANCH  13  17
TORSDOF 7
ENDMDL
MODEL 7
REMARK VINA RESULT:      -7.2      1.370      6.820
REMARK  Name = 
REMARK  7 active torsions:
REMARK  status: ('A' for Active; 'I' for Inactive)
REMARK    1  A    between atoms: O_2  and  C_3
REMARK    2  A    between atoms: C_3  and  C_4
REMARK    3  A    between atoms: N_6  and  C_9
REMARK    4  A    between atoms: C_13  and  O_17
REMARK    5  A    between atoms: O_17  and  C_18
REMARK    6  A    between atoms: N_20  and  C_21
REMARK    7  A    between atoms: C_24  and  C_27
REMARK                            x       y       z     vdW  Elec       q    Type
REMARK                         _______ _______ _______ _____ _____    ______ ____
ROOT
ATOM      9  C   UNL     1      -2.104   2.088  23.862  0.00  0.00    +0.166 C 
ATOM     10  C   UNL     1      -2.197   1.959  23.053  0.00  0.00    +0.169 C 
ATOM     11  O   UNL     1      -1.584   1.468  22.802  0.00  0.00    -0.348 OA
ATOM     12  C   UNL     1      -1.112   1.293  23.455  0.00  0.00    +0.187 C 
ATOM     13  C   UNL     1      -0.442   0.882  23.705  0.00  0.00    +0.229 C 
ATOM     14  C   UNL     1      -0.349   1.011  24.514  0.00  0.00    +0.188 C 
ATOM     15  O   UNL     1      -0.963   1.502  24.765  0.00  0.00    -0.348 OA
ATOM     16  C   UNL     1      -1.434   1.677  24.111  0.00  0.00    +0.171 C 
ENDROOT
BRANCH   9   6
ATOM      4  C   UNL     1      -3.619   2.942  25.101  0.00  0.00    +0.131 A 
ATOM      5  C   UNL     1      -3.316   2.311  24.665  0.00  0.00    +0.116 A 
ATOM      6  N   UNL     1      -2.596   2.548  24.339  0.00  0.00    -0.227 N 
ATOM      7  N   UNL     1      -2.453   3.326  24.575  0.00  0.00    -0.064 NA
ATOM      8  N   UNL     1      -3.086   3.570  25.046  0.00  0.00    -0.131 NA
BRANCH   4   3
ATOM      3  C   UNL     1      -4.331   2.945  25.520  0.00  0.00    +0.191 C 
BRANCH   3   2
ATOM      1  C   UNL     1      -5.690   3.367  25.642  0.00  0.00    +0.175 C 
ATOM      2  O   UNL     1      -4.963   3.403  25.253  0.00  0.00    -0.345 OA
ENDBRANCH   3   2
ENDBRANCH   4   3
ENDBRANCH   9   6
BRANCH  13  17
ATOM     17  O   UNL     1       0.050   0.422  23.228  0.00  0.00    -0.432 OA
BRANCH  17  18
ATOM     18  C   UNL     1       0.868   0.447  23.332  0.00  0.00    +0.425 C 
ATOM     19  O   UNL     1       1.187   0.812  24.000  0.00  0.00    -0.224 OA
ATOM     20  N   UNL     1       1.366   0.107  22.771  0.00  0.00    -0.142 NA
BRANCH  20  21
ATOM     21  C   UNL     1       2.184   0.133  22.875  0.00  0.00    +0.077 A 
ATOM     22  C   UNL     1       2.592  -0.546  23.104  0.00  0.00    +0.016 A 
ATOM     23  C   UNL     1       3.410  -0.521  23.208  0.00  0.00    -0.003 A 
ATOM     24  C   UNL     1       3.820   0.184  23.084  0.00  0.00    -0.023 A 
ATOM     25  C   UNL     1       3.412   0.864  22.856  0.00  0.00    -0.003 A 
ATOM     26  C   UNL     1       2.594   0.838  22.751  0.00  0.00    +0.016 A 
BRANCH  24  27
ATOM     27  C   UNL     1       4.637   0.210  23.189  0.00  0.00    +0.019 C 
ATOM     28  C   UNL     1       5.456   0.236  23.293  0.00  0.00    +0.004 C 
ATOM     29  C   UNL     1       4.605  -0.490  23.624  0.00  0.00    +0.004 C 
ATOM     30  C   UNL     1       4.671   0.910  22.754  0.00  0.00    +0.004 C 
ENDBRANCH  24  27
ENDBRANCH  20  21
ENDBRANCH  17  18
ENDBRANCH  13  17
TORSDOF 7
ENDMDL
MODEL 8
REMARK VINA RESULT:      -6.8     14.982     16.945
REMARK  Name = 
REMARK  7 active torsions:
REMARK  status: ('A' for Active; 'I' for Inactive)
REMARK    1  A    between atoms: O_2  and  C_3
REMARK    2  A    between atoms: C_3  and  C_4
REMARK    3  A    between atoms: N_6  and  C_9
REMARK    4  A    between atoms: C_13  and  O_17
REMARK    5  A    between atoms: O_17  and  C_18
REMARK    6  A    between atoms: N_20  and  C_21
REMARK    7  A    between atoms: C_24  and  C_27
REMARK                            x       y       z     vdW  Elec       q    Type
REMARK                         _______ _______ _______ _____ _____    ______ ____
ROOT
ATOM      9  C   UNL     1      -6.009 -10.062  16.107  0.00  0.00    +0.166 C 
ATOM     10  C   UNL     1      -5.227  -9.937  16.339  0.00  0.00    +0.169 C 
ATOM     11  O   UNL     1      -4.742 -10.085  15.689  0.00  0.00    -0.348 OA
ATOM     12  C   UNL     1      -5.222 -10.301  15.055  0.00  0.00    +0.187 C 
ATOM     13  C   UNL     1      -5.221 -10.526  14.262  0.00  0.00    +0.229 C 
ATOM     14  C   UNL     1      -6.002 -10.650  14.029  0.00  0.00    +0.188 C 
ATOM     15  O   UNL     1      -6.487 -10.503  14.679  0.00  0.00    -0.348 OA
ATOM     16  C   UNL     1      -6.006 -10.286  15.314  0.00  0.00    +0.171 C 
ENDROOT
BRANCH   9   6
ATOM      4  C   UNL     1      -7.743  -9.454  17.195  0.00  0.00    +0.131 A 
ATOM      5  C   UNL     1      -7.133  -9.293  16.663  0.00  0.00    +0.116 A 
ATOM      6  N   UNL     1      -6.676  -9.977  16.585  0.00  0.00    -0.227 N 
ATOM      7  N   UNL     1      -7.004 -10.559  17.068  0.00  0.00    -0.064 NA
ATOM      8  N   UNL     1      -7.664 -10.237  17.445  0.00  0.00    -0.131 NA
BRANCH   4   3
ATOM      3  C   UNL     1      -8.329  -8.925  17.434  0.00  0.00    +0.191 C 
BRANCH   3   2
ATOM      1  C   UNL     1      -9.646  -8.394  17.274  0.00  0.00    +0.175 C 
ATOM      2  O   UNL     1      -9.090  -8.986  17.123  0.00  0.00    -0.345 OA
ENDBRANCH   3   2
ENDBRANCH   4   3
ENDBRANCH   9   6
BRANCH  13  17
ATOM     17  O   UNL     1      -4.553 -10.611  13.784  0.00  0.00    -0.432 OA
BRANCH  17  18
ATOM     18  C   UNL     1      -4.612 -10.499  12.968  0.00  0.00    +0.425 C 
ATOM     19  O   UNL     1      -5.271 -10.781  12.560  0.00  0.00    -0.224 OA
ATOM     20  N   UNL     1      -4.013 -10.105  12.561  0.00  0.00    -0.142 NA
BRANCH  20  21
ATOM     21  C   UNL     1      -4.072  -9.993  11.746  0.00  0.00    +0.077 A 
ATOM     22  C   UNL     1      -3.637 -10.469  11.232  0.00  0.00    +0.016 A 
ATOM     23  C   UNL     1      -3.696 -10.357  10.417  0.00  0.00    -0.003 A 
ATOM     24  C   UNL     1      -4.190  -9.769  10.116  0.00  0.00    -0.023 A 
ATOM     25  C   UNL     1      -4.625  -9.292  10.630  0.00  0.00    -0.003 A 
ATOM     26  C   UNL     1      -4.566  -9.405  11.445  0.00  0.00    +0.016 A 
BRANCH  24  27
ATOM     27  C   UNL     1      -4.250  -9.656   9.302  0.00  0.00    +0.019 C 
ATOM     28  C   UNL     1      -4.309  -9.543   8.485  0.00  0.00    +0.004 C 
ATOM     29  C   UNL     1      -4.594 -10.402   9.223  0.00  0.00    +0.004 C 
ATOM     30  C   UNL     1      -3.905  -8.911   9.379  0.00  0.00    +0.004 C 
ENDBRANCH  24  27
ENDBRANCH  20  21
ENDBRANCH  17  18
ENDBRANCH  13  17
TORSDOF 7
ENDMDL
MODEL 9
REMARK VINA RESULT:      -6.0     17.300     18.147
REMARK  Name = 
REMARK  7 active torsions:
REMARK  status: ('A' for Active; 'I' for Inactive)
REMARK    1  A    between atoms: O_2  and  C_3
REMARK    2  A    between atoms: C_3  and  C_4
REMARK    3  A    between atoms: N_6  and  C_9
REMARK    4  A    between atoms: C_13  and  O_17
REMARK    5  A    between atoms: O_17  and  C_18
REMARK    6  A    between atoms: N_20  and  C_21
REMARK    7  A    between atoms: C_24  and  C_27
REMARK                            x       y       z     vdW  Elec       q    Type
REMARK                         _______ _______ _______ _____ _____    ______ ____
ROOT
ATOM      9  C   UNL     1      -5.033  -9.950  10.320  0.00  0.00    +0.166 C 
ATOM     10  C   UNL     1      -5.442 -10.557   9.939  0.00  0.00    +0.169 C 
ATOM     11  O   UNL     1      -6.003 -10.212   9.442  0.00  0.00    -0.348 OA
ATOM     12  C   UNL     1      -5.942  -9.394   9.516  0.00  0.00    +0.187 C 
ATOM     13  C   UNL     1      -6.250  -8.674   9.256  0.00  0.00    +0.229 C 
ATOM     14  C   UNL     1      -5.842  -8.068   9.638  0.00  0.00    +0.188 C 
ATOM     15  O   UNL     1      -5.281  -8.412  10.135  0.00  0.00    -0.348 OA
ATOM     16  C   UNL     1      -5.342  -9.232  10.060  0.00  0.00    +0.171 C 
ENDROOT
BRANCH   9   6
ATOM      4  C   UNL     1      -3.208 -10.197  11.401  0.00  0.00    +0.131 A 
ATOM      5  C   UNL     1      -3.619 -10.108  10.691  0.00  0.00    +0.116 A 
ATOM      6  N   UNL     1      -4.423 -10.046  10.867  0.00  0.00    -0.227 N 
ATOM      7  N   UNL     1      -4.509 -10.096  11.686  0.00  0.00    -0.064 NA
ATOM      8  N   UNL     1      -3.758 -10.190  12.016  0.00  0.00    -0.131 NA
BRANCH   4   3
ATOM      3  C   UNL     1      -2.391 -10.279  11.481  0.00  0.00    +0.191 C 
BRANCH   3   2
ATOM      1  C   UNL     1      -1.114  -9.639  11.501  0.00  0.00    +0.175 C 
ATOM      2  O   UNL     1      -1.890  -9.678  11.221  0.00  0.00    -0.345 OA
ENDBRANCH   3   2
ENDBRANCH   4   3
ENDBRANCH   9   6
BRANCH  13  17
ATOM     17  O   UNL     1      -6.861  -8.578   8.709  0.00  0.00    -0.432 OA
BRANCH  17  18
ATOM     18  C   UNL     1      -7.341  -7.908   8.740  0.00  0.00    +0.425 C 
ATOM     19  O   UNL     1      -7.035  -7.193   9.016  0.00  0.00    -0.224 OA
ATOM     20  N   UNL     1      -8.127  -7.952   8.495  0.00  0.00    -0.142 NA
BRANCH  20  21
ATOM     21  C   UNL     1      -8.608  -7.282   8.526  0.00  0.00    +0.077 A 
ATOM     22  C   UNL     1      -8.365  -6.583   8.162  0.00  0.00    +0.016 A 
ATOM     23  C   UNL     1      -8.844  -5.913   8.192  0.00  0.00    -0.003 A 
ATOM     24  C   UNL     1      -9.569  -5.942   8.587  0.00  0.00    -0.023 A 
ATOM     25  C   UNL     1      -9.812  -6.641   8.951  0.00  0.00    -0.003 A 
ATOM     26  C   UNL     1      -9.331  -7.311   8.920  0.00  0.00    +0.016 A 
BRANCH  24  27
ATOM     27  C   UNL     1     -10.049  -5.273   8.618  0.00  0.00    +0.019 C 
ATOM     28  C   UNL     1     -10.530  -4.602   8.649  0.00  0.00    +0.004 C 
ATOM     29  C   UNL     1     -10.720  -5.753   8.614  0.00  0.00    +0.004 C 
ATOM     30  C   UNL     1      -9.379  -4.792   8.622  0.00  0.00    +0.004 C 
ENDBRANCH  24  27
ENDBRANCH  20  21
ENDBRANCH  17  18
ENDBRANCH  13  17
TORSDOF 7
ENDMDL
MODEL 10
REMARK VINA RESULT:      -5.6     16.894     17.848
REMARK  Name = 
REMARK  7 active torsions:
REMARK  status: ('A' for Active; 'I' for Inactive)
REMARK    1  A    between atoms: O_2  and  C_3
REMARK    2  A    between atoms: C_3  and  C_4
REMARK    3  A    between atoms: N_6  and  C_9
REMARK    4  A    between atoms: C_13  and  O_17
REMARK    5  A    between atoms: O_17  and  C_18
REMARK    6  A    between atoms: N_20  and  C_21
REMARK    7  A    between atoms: C_24  and  C_27
REMARK                            x       y       z     vdW  Elec       q    Type
REMARK                         _______ _______ _______ _____ _____    ______ ____
ROOT
ATOM      9  C   UNL     1      -3.056 -10.076  10.762  0.00  0.00    +0.166 C 
ATOM     10  C   UNL     1      -3.218 -10.781  10.366  0.00  0.00    +0.169 C 
ATOM     11  O   UNL     1      -3.826 -10.637   9.828  0.00  0.00    -0.348 OA
ATOM     12  C   UNL     1      -4.040  -9.843   9.891  0.00  0.00    +0.187 C 
ATOM     13  C   UNL     1      -4.548  -9.263   9.598  0.00  0.00    +0.229 C 
ATOM     14  C   UNL     1      -4.385  -8.558   9.993  0.00  0.00    +0.188 C 
ATOM     15  O   UNL     1      -3.777  -8.702  10.531  0.00  0.00    -0.348 OA
ATOM     16  C   UNL     1      -3.564  -9.496  10.468  0.00  0.00    +0.171 C 
ENDROOT
BRANCH   9   6
ATOM      4  C   UNL     1      -1.881  -9.921  12.538  0.00  0.00    +0.131 A 
ATOM      5  C   UNL     1      -2.592 -10.095  12.157  0.00  0.00    +0.116 A 
ATOM      6  N   UNL     1      -2.485  -9.969  11.348  0.00  0.00    -0.227 N 
ATOM      7  N   UNL     1      -1.709  -9.718  11.229  0.00  0.00    -0.064 NA
ATOM      8  N   UNL     1      -1.335  -9.688  11.964  0.00  0.00    -0.131 NA
BRANCH   4   3
ATOM      3  C   UNL     1      -1.740  -9.972  13.350  0.00  0.00    +0.191 C 
BRANCH   3   2
ATOM      1  C   UNL     1      -1.779 -10.781  14.526  0.00  0.00    +0.175 C 
ATOM      2  O   UNL     1      -1.675 -10.711  13.710  0.00  0.00    -0.345 OA
ENDBRANCH   3   2
ENDBRANCH   4   3
ENDBRANCH   9   6
BRANCH  13  17
ATOM     17  O   UNL     1      -5.118  -9.370   9.011  0.00  0.00    -0.432 OA
BRANCH  17  18
ATOM     18  C   UNL     1      -5.878  -9.064   9.113  0.00  0.00    +0.425 C 
ATOM     19  O   UNL     1      -6.221  -9.055   9.863  0.00  0.00    -0.224 OA
ATOM     20  N   UNL     1      -6.294  -8.768   8.466  0.00  0.00    -0.142 NA
BRANCH  20  21
ATOM     21  C   UNL     1      -7.054  -8.463   8.568  0.00  0.00    +0.077 A 
ATOM     22  C   UNL     1      -7.706  -8.968   8.568  0.00  0.00    +0.016 A 
ATOM     23  C   UNL     1      -8.464  -8.663   8.670  0.00  0.00    -0.003 A 
ATOM     24  C   UNL     1      -8.573  -7.851   8.773  0.00  0.00    -0.023 A 
ATOM     25  C   UNL     1      -7.921  -7.345   8.774  0.00  0.00    -0.003 A 
ATOM     26  C   UNL     1      -7.162  -7.651   8.671  0.00  0.00    +0.016 A 
BRANCH  24  27
ATOM     27  C   UNL     1      -9.331  -7.545   8.875  0.00  0.00    +0.019 C 
ATOM     28  C   UNL     1     -10.091  -7.238   8.977  0.00  0.00    +0.004 C 
ATOM     29  C   UNL     1      -9.541  -8.211   9.316  0.00  0.00    +0.004 C 
ATOM     30  C   UNL     1      -9.122  -6.880   8.435  0.00  0.00    +0.004 C 
ENDBRANCH  24  27
ENDBRANCH  20  21
ENDBRANCH  17  18
ENDBRANCH  13  17
TORSDOF 7
ENDMDL
