MODEL 1
REMARK VINA RESULT:     -14.5      0.000      0.000
REMARK  Name = 
REMARK  6 active torsions:
REMARK  status: ('A' for Active; 'I' for Inactive)
REMARK    1  A    between atoms: N_2  and  C_3
REMARK    2  A    between atoms: C_3  and  C_4
REMARK    3  A    between atoms: C_6  and  C_8
REMARK    4  A    between atoms: C_8  and  C_9
REMARK    5  A    between atoms: C_14  and  C_16
REMARK    6  A    between atoms: C_27  and  C_29
REMARK                            x       y       z     vdW  Elec       q    Type
REMARK                         _______ _______ _______ _____ _____    ______ ____
ROOT
ATOM      9  C   UNL     1      -3.549   0.092  24.456  0.00  0.00    +0.050 C 
ATOM     10  C   UNL     1      -2.854   0.524  24.563  0.00  0.00    +0.063 A 
ATOM     11  C   UNL     1      -2.134   0.130  24.650  0.00  0.00    +0.023 A 
ATOM     12  C   UNL     1      -2.110  -0.694  24.631  0.00  0.00    +0.034 C 
ATOM     13  C   UNL     1      -2.805  -1.125  24.524  0.00  0.00    +0.010 C 
ATOM     14  C   UNL     1      -2.780  -1.950  24.505  0.00  0.00    +0.059 C 
ATOM     15  C   UNL     1      -1.980  -1.785  24.619  0.00  0.00    +0.005 C 
ATOM     18  C   UNL     1      -3.476  -2.380  24.397  0.00  0.00    +0.154 C 
ATOM     19  O   UNL     1      -3.451  -3.206  24.378  0.00  0.00    -0.223 OA
ATOM     20  C   UNL     1      -4.195  -1.987  24.310  0.00  0.00    +0.033 C 
ATOM     21  C   UNL     1      -4.220  -1.163  24.329  0.00  0.00    +0.003 C 
ATOM     22  C   UNL     1      -3.525  -0.731  24.436  0.00  0.00    +0.006 C 
ATOM     23  C   UNL     1      -4.244  -0.339  24.349  0.00  0.00    +0.000 C 
ATOM     24  S   UNL     1      -1.544   0.698  24.747  0.00  0.00    -0.054 S 
ATOM     25  C   UNL     1      -1.898   1.442  24.719  0.00  0.00    +0.185 A 
ATOM     26  N   UNL     1      -1.511   2.167  24.792  0.00  0.00    -0.151 NA
ATOM     27  C   UNL     1      -1.941   2.870  24.752  0.00  0.00    +0.271 C 
ATOM     28  O   UNL     1      -2.758   2.848  24.640  0.00  0.00    -0.268 OA
ATOM     36  N   UNL     1      -2.708   1.334  24.605  0.00  0.00    -0.227 NA
ENDROOT
BRANCH  27  29
ATOM     29  C   UNL     1      -1.554   3.595  24.825  0.00  0.00    +0.056 A 
ATOM     30  C   UNL     1      -0.784   3.683  24.545  0.00  0.00    +0.007 A 
ATOM     31  C   UNL     1      -0.397   4.408  24.618  0.00  0.00    +0.030 A 
ATOM     32  C   UNL     1      -0.782   5.046  24.972  0.00  0.00    +0.140 A 
ATOM     33  F   UNL     1      -0.396   5.772  25.045  0.00  0.00    -0.204 F 
ATOM     34  C   UNL     1      -1.553   4.959  25.253  0.00  0.00    +0.030 A 
ATOM     35  C   UNL     1      -1.939   4.234  25.179  0.00  0.00    +0.007 A 
ENDBRANCH  27  29
BRANCH  14  16
ATOM     16  C   UNL     1      -2.478  -2.717  24.525  0.00  0.00    +0.184 C 
ATOM     17  O   UNL     1      -1.662  -2.838  24.563  0.00  0.00    -0.220 OA
ENDBRANCH  14  16
BRANCH   9   8
ATOM      8  C   UNL     1      -4.269   0.486  24.368  0.00  0.00    +0.091 C 
BRANCH   8   6
ATOM      1  C   UNL     1      -5.421   1.655  24.201  0.00  0.00    +0.116 C 
ATOM      2  N   UNL     1      -5.242   1.357  24.949  0.00  0.00    -0.266 N 
ATOM      6  C   UNL     1      -4.666   0.772  25.033  0.00  0.00    +0.227 C 
ATOM      7  O   UNL     1      -4.487   0.474  25.780  0.00  0.00    -0.275 OA
BRANCH   2   3
ATOM      3  C   UNL     1      -5.638   1.643  25.614  0.00  0.00    +0.172 C 
BRANCH   3   4
ATOM      4  C   UNL     1      -5.809   2.447  25.678  0.00  0.00    -0.056 C 
ATOM      5  C   UNL     1      -5.979   3.253  25.742  0.00  0.00    -0.012 C 
ENDBRANCH   3   4
ENDBRANCH   2   3
ENDBRANCH   8   6
ENDBRANCH   9   8
TORSDOF 6
ENDMDL
MODEL 2
REMARK VINA RESULT:     -13.9      2.065      5.089
REMARK  Name = 
REMARK  6 active torsions:
REMARK  status: ('A' for Active; 'I' for Inactive)
REMARK    1  A    between atoms: N_2  and  C_3
REMARK    2  A    between atoms: C_3  and  C_4
REMARK    3  A    between atoms: C_6  and  C_8
REMARK    4  A    between atoms: C_8  and  C_9
REMARK    5  A    between atoms: C_14  and  C_16
REMARK    6  A    between atoms: C_27  and  C_29
REMARK                            x       y       z     vdW  Elec       q    Type
REMARK                         _______ _______ _______ _____ _____    ______ ____
ROOT
ATOM      9  C   UNL     1      -2.810   2.806  25.254  0.00  0.00    +0.050 C 
ATOM     10  C   UNL     1      -2.564   2.064  24.988  0.00  0.00    +0.063 A 
ATOM     11  C   UNL     1      -1.813   1.974  24.658  0.00  0.00    +0.023 A 
ATOM     12  C   UNL     1      -1.310   2.623  24.594  0.00  0.00    +0.034 C 
ATOM     13  C   UNL     1      -1.556   3.364  24.860  0.00  0.00    +0.010 C 
ATOM     14  C   UNL     1      -1.051   4.014  24.796  0.00  0.00    +0.059 C 
ATOM     15  C   UNL     1      -0.572   3.428  24.468  0.00  0.00    +0.005 C 
ATOM     18  C   UNL     1      -1.298   4.755  25.063  0.00  0.00    +0.154 C 
ATOM     19  O   UNL     1      -0.794   5.405  24.999  0.00  0.00    -0.223 OA
ATOM     20  C   UNL     1      -2.048   4.846  25.393  0.00  0.00    +0.033 C 
ATOM     21  C   UNL     1      -2.553   4.196  25.457  0.00  0.00    +0.003 C 
ATOM     22  C   UNL     1      -2.307   3.455  25.191  0.00  0.00    +0.006 C 
ATOM     23  C   UNL     1      -3.057   3.546  25.521  0.00  0.00    +0.000 C 
ATOM     24  S   UNL     1      -1.724   1.181  24.445  0.00  0.00    -0.054 S 
ATOM     25  C   UNL     1      -2.418   0.783  24.643  0.00  0.00    +0.185 A 
ATOM     26  N   UNL     1      -2.567  -0.020  24.527  0.00  0.00    -0.151 NA
ATOM     27  C   UNL     1      -3.291  -0.342  24.754  0.00  0.00    +0.271 C 
ATOM     28  O   UNL     1      -3.867   0.138  25.098  0.00  0.00    -0.268 OA
ATOM     36  N   UNL     1      -2.938   1.329  24.979  0.00  0.00    -0.227 NA
ENDROOT
BRANCH  27  29
ATOM     29  C   UNL     1      -3.441  -1.146  24.637  0.00  0.00    +0.056 A 
ATOM     30  C   UNL     1      -3.086  -1.707  25.126  0.00  0.00    +0.007 A 
ATOM     31  C   UNL     1      -3.235  -2.510  25.009  0.00  0.00    +0.030 A 
ATOM     32  C   UNL     1      -3.740  -2.751  24.403  0.00  0.00    +0.140 A 
ATOM     33  F   UNL     1      -3.891  -3.554  24.286  0.00  0.00    -0.204 F 
ATOM     34  C   UNL     1      -4.096  -2.189  23.914  0.00  0.00    +0.030 A 
ATOM     35  C   UNL     1      -3.946  -1.387  24.031  0.00  0.00    +0.007 A 
ENDBRANCH  27  29
BRANCH  14  16
ATOM     16  C   UNL     1      -0.381   4.460  24.619  0.00  0.00    +0.184 C 
ATOM     17  O   UNL     1       0.146   4.199  24.039  0.00  0.00    -0.220 OA
ENDBRANCH  14  16
BRANCH   9   8
ATOM      8  C   UNL     1      -3.561   2.896  25.584  0.00  0.00    +0.091 C 
BRANCH   8   6
ATOM      1  C   UNL     1      -5.071   2.719  26.225  0.00  0.00    +0.116 C 
ATOM      2  N   UNL     1      -4.979   2.848  25.416  0.00  0.00    -0.266 N 
ATOM      6  C   UNL     1      -4.224   2.936  25.095  0.00  0.00    +0.227 C 
ATOM      7  O   UNL     1      -4.133   3.065  24.286  0.00  0.00    -0.275 OA
BRANCH   2   3
ATOM      3  C   UNL     1      -5.643   2.888  24.926  0.00  0.00    +0.172 C 
BRANCH   3   4
ATOM      4  C   UNL     1      -6.217   2.297  24.961  0.00  0.00    -0.056 C 
ATOM      5  C   UNL     1      -6.792   1.706  24.997  0.00  0.00    -0.012 C 
ENDBRANCH   3   4
ENDBRANCH   2   3
ENDBRANCH   8   6
ENDBRANCH   9   8
TORSDOF 6
ENDMDL
MODEL 3
REMARK VINA RESULT:     -13.3      2.175      4.197
REMARK  Name = 
REMARK  6 active torsions:
REMARK  status: ('A' for Active; 'I' for Inactive)
REMARK    1  A    between atoms: N_2  and  C_3
REMARK    2  A    between atoms: C_3  and  C_4
REMARK    3  A    between atoms: C_6  and  C_8
REMARK    4  A    between atoms: C_8  and  C_9
REMARK    5  A    between atoms: C_14  and  C_16
REMARK    6  A    between atoms: C_27  and  C_29
REMARK                            x       y       z     vdW  Elec       q    Type
REMARK                         _______ _______ _______ _____ _____    ______ ____
ROOT
ATOM      9  C   UNL     1      -3.767   1.045  24.549  0.00  0.00    +0.050 C 
ATOM     10  C   UNL     1      -3.000   1.335  24.458  0.00  0.00    +0.063 A 
ATOM     11  C   UNL     1      -2.832   2.121  24.644  0.00  0.00    +0.023 A 
ATOM     12  C   UNL     1      -3.430   2.616  24.921  0.00  0.00    +0.034 C 
ATOM     13  C   UNL     1      -4.196   2.327  25.013  0.00  0.00    +0.010 C 
ATOM     14  C   UNL     1      -4.795   2.822  25.290  0.00  0.00    +0.059 C 
ATOM     15  C   UNL     1      -4.160   3.348  25.296  0.00  0.00    +0.005 C 
ATOM     18  C   UNL     1      -5.562   2.531  25.381  0.00  0.00    +0.154 C 
ATOM     19  O   UNL     1      -6.161   3.027  25.659  0.00  0.00    -0.223 OA
ATOM     20  C   UNL     1      -5.730   1.746  25.196  0.00  0.00    +0.033 C 
ATOM     21  C   UNL     1      -5.132   1.250  24.918  0.00  0.00    +0.003 C 
ATOM     22  C   UNL     1      -4.365   1.540  24.826  0.00  0.00    +0.006 C 
ATOM     23  C   UNL     1      -4.533   0.755  24.641  0.00  0.00    +0.000 C 
ATOM     24  S   UNL     1      -2.030   2.251  24.498  0.00  0.00    -0.054 S 
ATOM     25  C   UNL     1      -1.703   1.546  24.223  0.00  0.00    +0.185 A 
ATOM     26  N   UNL     1      -0.915   1.427  24.010  0.00  0.00    -0.151 NA
ATOM     27  C   UNL     1      -0.666   0.688  23.742  0.00  0.00    +0.271 C 
ATOM     28  O   UNL     1      -1.206   0.066  23.688  0.00  0.00    -0.268 OA
ATOM     36  N   UNL     1      -2.303   0.979  24.198  0.00  0.00    -0.227 NA
ENDROOT
BRANCH  27  29
ATOM     29  C   UNL     1       0.122   0.568  23.529  0.00  0.00    +0.056 A 
ATOM     30  C   UNL     1       0.696   1.119  23.746  0.00  0.00    +0.007 A 
ATOM     31  C   UNL     1       1.484   0.999  23.533  0.00  0.00    +0.030 A 
ATOM     32  C   UNL     1       1.697   0.329  23.102  0.00  0.00    +0.140 A 
ATOM     33  F   UNL     1       2.485   0.209  22.888  0.00  0.00    -0.204 F 
ATOM     34  C   UNL     1       1.123  -0.222  22.885  0.00  0.00    +0.030 A 
ATOM     35  C   UNL     1       0.335  -0.102  23.098  0.00  0.00    +0.007 A 
ENDBRANCH  27  29
BRANCH  14  16
ATOM     16  C   UNL     1      -5.172   3.500  25.569  0.00  0.00    +0.184 C 
ATOM     17  O   UNL     1      -4.797   4.233  25.516  0.00  0.00    -0.220 OA
ENDBRANCH  14  16
BRANCH   9   8
ATOM      8  C   UNL     1      -3.935   0.259  24.363  0.00  0.00    +0.091 C 
BRANCH   8   6
ATOM      1  C   UNL     1      -4.059  -1.323  23.910  0.00  0.00    +0.116 C 
ATOM      2  N   UNL     1      -3.815  -1.130  24.674  0.00  0.00    -0.266 N 
ATOM      6  C   UNL     1      -3.753  -0.340  24.901  0.00  0.00    +0.227 C 
ATOM      7  O   UNL     1      -3.510  -0.148  25.665  0.00  0.00    -0.275 OA
BRANCH   2   3
ATOM      3  C   UNL     1      -3.633  -1.729  25.213  0.00  0.00    +0.172 C 
BRANCH   3   4
ATOM      4  C   UNL     1      -3.468  -2.491  24.941  0.00  0.00    -0.056 C 
ATOM      5  C   UNL     1      -3.302  -3.253  24.670  0.00  0.00    -0.012 C 
ENDBRANCH   3   4
ENDBRANCH   2   3
ENDBRANCH   8   6
ENDBRANCH   9   8
TORSDOF 6
ENDMDL
MODEL 4
REMARK VINA RESULT:     -12.7      1.492      3.334
REMARK  Name = 
REMARK  6 active torsions:
REMARK  status: ('A' for Active; 'I' for Inactive)
REMARK    1  A    between atoms: N_2  and  C_3
REMARK    2  A    between atoms: C_3  and  C_4
REMARK    3  A    between atoms: C_6  and  C_8
REMARK    4  A    between atoms: C_8  and  C_9
REMARK    5  A    between atoms: C_14  and  C_16
REMARK    6  A    between atoms: C_27  and  C_29
REMARK                            x       y       z     vdW  Elec       q    Type
REMARK                         _______ _______ _______ _____ _____    ______ ____
ROOT
ATOM      9  C   UNL     1      -2.414  -0.168  24.984  0.00  0.00    +0.050 C 
ATOM     10  C   UNL     1      -3.162   0.179  24.948  0.00  0.00    +0.063 A 
ATOM     11  C   UNL     1      -3.817  -0.276  24.739  0.00  0.00    +0.023 A 
ATOM     12  C   UNL     1      -3.725  -1.077  24.565  0.00  0.00    +0.034 C 
ATOM     13  C   UNL     1      -2.977  -1.423  24.601  0.00  0.00    +0.010 C 
ATOM     14  C   UNL     1      -2.885  -2.225  24.427  0.00  0.00    +0.059 C 
ATOM     15  C   UNL     1      -3.699  -2.147  24.318  0.00  0.00    +0.005 C 
ATOM     18  C   UNL     1      -2.137  -2.570  24.463  0.00  0.00    +0.154 C 
ATOM     19  O   UNL     1      -2.044  -3.373  24.289  0.00  0.00    -0.223 OA
ATOM     20  C   UNL     1      -1.482  -2.116  24.673  0.00  0.00    +0.033 C 
ATOM     21  C   UNL     1      -1.574  -1.315  24.846  0.00  0.00    +0.003 C 
ATOM     22  C   UNL     1      -2.321  -0.968  24.811  0.00  0.00    +0.006 C 
ATOM     23  C   UNL     1      -1.666  -0.514  25.020  0.00  0.00    +0.000 C 
ATOM     24  S   UNL     1      -4.481   0.214  24.750  0.00  0.00    -0.054 S 
ATOM     25  C   UNL     1      -4.236   0.971  24.966  0.00  0.00    +0.185 A 
ATOM     26  N   UNL     1      -4.721   1.634  25.045  0.00  0.00    -0.151 NA
ATOM     27  C   UNL     1      -4.396   2.359  25.267  0.00  0.00    +0.271 C 
ATOM     28  O   UNL     1      -3.586   2.421  25.408  0.00  0.00    -0.268 OA
ATOM     36  N   UNL     1      -3.420   0.950  25.089  0.00  0.00    -0.227 NA
ENDROOT
BRANCH  27  29
ATOM     29  C   UNL     1      -4.881   3.022  25.346  0.00  0.00    +0.056 A 
ATOM     30  C   UNL     1      -5.629   2.948  25.685  0.00  0.00    +0.007 A 
ATOM     31  C   UNL     1      -6.114   3.611  25.765  0.00  0.00    +0.030 A 
ATOM     32  C   UNL     1      -5.849   4.348  25.505  0.00  0.00    +0.140 A 
ATOM     33  F   UNL     1      -6.333   5.012  25.584  0.00  0.00    -0.204 F 
ATOM     34  C   UNL     1      -5.100   4.422  25.166  0.00  0.00    +0.030 A 
ATOM     35  C   UNL     1      -4.617   3.759  25.087  0.00  0.00    +0.007 A 
ENDBRANCH  27  29
BRANCH  14  16
ATOM     16  C   UNL     1      -3.075  -2.999  24.215  0.00  0.00    +0.184 C 
ATOM     17  O   UNL     1      -3.865  -3.238  24.194  0.00  0.00    -0.220 OA
ENDBRANCH  14  16
BRANCH   9   8
ATOM      8  C   UNL     1      -1.759   0.288  25.194  0.00  0.00    +0.091 C 
BRANCH   8   6
ATOM      1  C   UNL     1      -0.665   1.427  25.673  0.00  0.00    +0.116 C 
ATOM      2  N   UNL     1      -0.855   1.347  24.874  0.00  0.00    -0.266 N 
ATOM      6  C   UNL     1      -1.401   0.777  24.634  0.00  0.00    +0.227 C 
ATOM      7  O   UNL     1      -1.590   0.698  23.836  0.00  0.00    -0.275 OA
BRANCH   2   3
ATOM      3  C   UNL     1      -0.497   1.837  24.314  0.00  0.00    +0.172 C 
BRANCH   3   4
ATOM      4  C   UNL     1      -0.377   2.635  24.482  0.00  0.00    -0.056 C 
ATOM      5  C   UNL     1      -0.256   3.435  24.650  0.00  0.00    -0.012 C 
ENDBRANCH   3   4
ENDBRANCH   2   3
ENDBRANCH   8   6
ENDBRANCH   9   8
TORSDOF 6
ENDMDL
MODEL 5
REMARK VINA RESULT:     -12.4      1.730      3.394
REMARK  Name = 
REMARK  6 active torsions:
REMARK  status: ('A' for Active; 'I' for Inactive)
REMARK    1  A    between atoms: N_2  and  C_3
REMARK    2  A    between atoms: C_3  and  C_4
REMARK    3  A    between atoms: C_6  and  C_8
REMARK    4  A    between atoms: C_8  and  C_9
REMARK    5  A    between atoms: C_14  and  C_16
REMARK    6  A    between atoms: C_27  and  C_29
REMARK                            x       y       z     vdW  Elec       q    Type
REMARK                         _______ _______ _______ _____ _____    ______ ____
ROOT
ATOM      9  C   UNL     1      -1.500  -0.428  24.527  0.00  0.00    +0.050 C 
ATOM     10  C   UNL     1      -1.889   0.288  24.659  0.00  0.00    +0.063 A 
ATOM     11  C   UNL     1      -2.707   0.299  24.764  0.00  0.00    +0.023 A 
ATOM     12  C   UNL     1      -3.136  -0.404  24.737  0.00  0.00    +0.034 C 
ATOM     13  C   UNL     1      -2.749  -1.119  24.605  0.00  0.00    +0.010 C 
ATOM     14  C   UNL     1      -3.178  -1.823  24.577  0.00  0.00    +0.059 C 
ATOM     15  C   UNL     1      -3.789  -1.288  24.717  0.00  0.00    +0.005 C 
ATOM     18  C   UNL     1      -2.789  -2.539  24.445  0.00  0.00    +0.154 C 
ATOM     19  O   UNL     1      -3.219  -3.243  24.418  0.00  0.00    -0.223 OA
ATOM     20  C   UNL     1      -1.971  -2.551  24.340  0.00  0.00    +0.033 C 
ATOM     21  C   UNL     1      -1.542  -1.847  24.367  0.00  0.00    +0.003 C 
ATOM     22  C   UNL     1      -1.930  -1.131  24.500  0.00  0.00    +0.006 C 
ATOM     23  C   UNL     1      -1.112  -1.143  24.395  0.00  0.00    +0.000 C 
ATOM     24  S   UNL     1      -2.937   1.083  24.884  0.00  0.00    -0.054 S 
ATOM     25  C   UNL     1      -2.262   1.555  24.854  0.00  0.00    +0.185 A 
ATOM     26  N   UNL     1      -2.237   2.375  24.946  0.00  0.00    -0.151 NA
ATOM     27  C   UNL     1      -1.517   2.774  24.901  0.00  0.00    +0.271 C 
ATOM     28  O   UNL     1      -0.821   2.354  24.764  0.00  0.00    -0.268 OA
ATOM     36  N   UNL     1      -1.613   1.064  24.715  0.00  0.00    -0.227 NA
ENDROOT
BRANCH  27  29
ATOM     29  C   UNL     1      -1.493   3.594  24.993  0.00  0.00    +0.056 A 
ATOM     30  C   UNL     1      -2.123   3.988  25.350  0.00  0.00    +0.007 A 
ATOM     31  C   UNL     1      -2.098   4.808  25.442  0.00  0.00    +0.030 A 
ATOM     32  C   UNL     1      -1.443   5.233  25.177  0.00  0.00    +0.140 A 
ATOM     33  F   UNL     1      -1.417   6.052  25.268  0.00  0.00    -0.204 F 
ATOM     34  C   UNL     1      -0.812   4.838  24.819  0.00  0.00    +0.030 A 
ATOM     35  C   UNL     1      -0.838   4.018  24.728  0.00  0.00    +0.007 A 
ENDBRANCH  27  29
BRANCH  14  16
ATOM     16  C   UNL     1      -3.820  -2.341  24.598  0.00  0.00    +0.184 C 
ATOM     17  O   UNL     1      -4.541  -2.117  24.265  0.00  0.00    -0.220 OA
ENDBRANCH  14  16
BRANCH   9   8
ATOM      8  C   UNL     1      -0.682  -0.440  24.422  0.00  0.00    +0.091 C 
BRANCH   8   6
ATOM      1  C   UNL     1       0.955  -0.332  24.247  0.00  0.00    +0.116 C 
ATOM      2  N   UNL     1       0.460  -0.186  23.603  0.00  0.00    -0.266 N 
ATOM      6  C   UNL     1      -0.358  -0.240  23.690  0.00  0.00    +0.227 C 
ATOM      7  O   UNL     1      -0.852  -0.094  23.046  0.00  0.00    -0.275 OA
BRANCH   2   3
ATOM      3  C   UNL     1       0.785   0.014  22.870  0.00  0.00    +0.172 C 
BRANCH   3   4
ATOM      4  C   UNL     1       1.604   0.054  22.780  0.00  0.00    -0.056 C 
ATOM      5  C   UNL     1       2.423   0.094  22.689  0.00  0.00    -0.012 C 
ENDBRANCH   3   4
ENDBRANCH   2   3
ENDBRANCH   8   6
ENDBRANCH   9   8
TORSDOF 6
ENDMDL
MODEL 6
REMARK VINA RESULT:     -12.4      2.369      5.889
REMARK  Name = 
REMARK  6 active torsions:
REMARK  status: ('A' for Active; 'I' for Inactive)
REMARK    1  A    between atoms: N_2  and  C_3
REMARK    2  A    between atoms: C_3  and  C_4
REMARK    3  A    between atoms: C_6  and  C_8
REMARK    4  A    between atoms: C_8  and  C_9
REMARK    5  A    between atoms: C_14  and  C_16
REMARK    6  A    between atoms: C_27  and  C_29
REMARK                            x       y       z     vdW  Elec       q    Type
REMARK                         _______ _______ _______ _____ _____    ______ ____
ROOT
ATOM      9  C   UNL     1      -1.417   2.127  24.867  0.00  0.00    +0.050 C 
ATOM     10  C   UNL     1      -2.100   1.663  24.860  0.00  0.00    +0.063 A 
ATOM     11  C   UNL     1      -2.835   2.009  25.003  0.00  0.00    +0.023 A 
ATOM     12  C   UNL     1      -2.888   2.818  25.151  0.00  0.00    +0.034 C 
ATOM     13  C   UNL     1      -2.206   3.282  25.158  0.00  0.00    +0.010 C 
ATOM     14  C   UNL     1      -2.260   4.092  25.307  0.00  0.00    +0.059 C 
ATOM     15  C   UNL     1      -3.056   3.884  25.359  0.00  0.00    +0.005 C 
ATOM     18  C   UNL     1      -1.577   4.555  25.314  0.00  0.00    +0.154 C 
ATOM     19  O   UNL     1      -1.630   5.366  25.463  0.00  0.00    -0.223 OA
ATOM     20  C   UNL     1      -0.842   4.210  25.171  0.00  0.00    +0.033 C 
ATOM     21  C   UNL     1      -0.789   3.401  25.022  0.00  0.00    +0.003 C 
ATOM     22  C   UNL     1      -1.470   2.936  25.015  0.00  0.00    +0.006 C 
ATOM     23  C   UNL     1      -0.736   2.591  24.873  0.00  0.00    +0.000 C 
ATOM     24  S   UNL     1      -3.407   1.416  24.961  0.00  0.00    -0.054 S 
ATOM     25  C   UNL     1      -3.026   0.704  24.793  0.00  0.00    +0.185 A 
ATOM     26  N   UNL     1      -3.389  -0.032  24.703  0.00  0.00    -0.151 NA
ATOM     27  C   UNL     1      -2.934  -0.698  24.535  0.00  0.00    +0.271 C 
ATOM     28  O   UNL     1      -2.115  -0.630  24.456  0.00  0.00    -0.268 OA
ATOM     36  N   UNL     1      -2.217   0.857  24.730  0.00  0.00    -0.227 NA
ENDROOT
BRANCH  27  29
ATOM     29  C   UNL     1      -3.296  -1.434  24.445  0.00  0.00    +0.056 A 
ATOM     30  C   UNL     1      -3.934  -1.520  23.929  0.00  0.00    +0.007 A 
ATOM     31  C   UNL     1      -4.296  -2.256  23.839  0.00  0.00    +0.030 A 
ATOM     32  C   UNL     1      -4.020  -2.906  24.266  0.00  0.00    +0.140 A 
ATOM     33  F   UNL     1      -4.382  -3.642  24.177  0.00  0.00    -0.204 F 
ATOM     34  C   UNL     1      -3.382  -2.820  24.782  0.00  0.00    +0.030 A 
ATOM     35  C   UNL     1      -3.020  -2.084  24.871  0.00  0.00    +0.007 A 
ENDBRANCH  27  29
BRANCH  14  16
ATOM     16  C   UNL     1      -2.590   4.829  25.474  0.00  0.00    +0.184 C 
ATOM     17  O   UNL     1      -3.317   4.877  25.860  0.00  0.00    -0.220 OA
ENDBRANCH  14  16
BRANCH   9   8
ATOM      8  C   UNL     1      -0.682   1.781  24.724  0.00  0.00    +0.091 C 
BRANCH   8   6
ATOM      1  C   UNL     1       0.612   0.791  24.463  0.00  0.00    +0.116 C 
ATOM      2  N   UNL     1       0.185   1.090  23.823  0.00  0.00    -0.266 N 
ATOM      6  C   UNL     1      -0.462   1.584  23.953  0.00  0.00    +0.227 C 
ATOM      7  O   UNL     1      -0.888   1.882  23.314  0.00  0.00    -0.275 OA
BRANCH   2   3
ATOM      3  C   UNL     1       0.405   0.893  23.052  0.00  0.00    +0.172 C 
BRANCH   3   4
ATOM      4  C   UNL     1       0.943   0.281  22.921  0.00  0.00    -0.056 C 
ATOM      5  C   UNL     1       1.482  -0.331  22.789  0.00  0.00    -0.012 C 
ENDBRANCH   3   4
ENDBRANCH   2   3
ENDBRANCH   8   6
ENDBRANCH   9   8
TORSDOF 6
ENDMDL
MODEL 7
REMARK VINA RESULT:     -12.0      2.409      5.652
REMARK  Name = 
REMARK  6 active torsions:
REMARK  status: ('A' for Active; 'I' for Inactive)
REMARK    1  A    between atoms: N_2  and  C_3
REMARK    2  A    between atoms: C_3  and  C_4
REMARK    3  A    between atoms: C_6  and  C_8
REMARK    4  A    between atoms: C_8  and  C_9
REMARK    5  A    between atoms: C_14  and  C_16
REMARK    6  A    between atoms: C_27  and  C_29
REMARK                            x       y       z     vdW  Elec       q    Type
REMARK                         _______ _______ _______ _____ _____    ______ ____
ROOT
ATOM      9  C   UNL     1      -3.569   2.314  24.509  0.00  0.00    +0.050 C 
ATOM     10  C   UNL     1      -3.937   1.592  24.665  0.00  0.00    +0.063 A 
ATOM     11  C   UNL     1      -4.671   1.576  25.040  0.00  0.00    +0.023 A 
ATOM     12  C   UNL     1      -5.038   2.281  25.259  0.00  0.00    +0.034 C 
ATOM     13  C   UNL     1      -4.670   3.003  25.103  0.00  0.00    +0.010 C 
ATOM     14  C   UNL     1      -5.037   3.709  25.322  0.00  0.00    +0.059 C 
ATOM     15  C   UNL     1      -5.600   3.168  25.586  0.00  0.00    +0.005 C 
ATOM     18  C   UNL     1      -4.668   4.431  25.166  0.00  0.00    +0.154 C 
ATOM     19  O   UNL     1      -5.036   5.137  25.385  0.00  0.00    -0.223 OA
ATOM     20  C   UNL     1      -3.934   4.447  24.791  0.00  0.00    +0.033 C 
ATOM     21  C   UNL     1      -3.568   3.741  24.572  0.00  0.00    +0.003 C 
ATOM     22  C   UNL     1      -3.935   3.019  24.728  0.00  0.00    +0.006 C 
ATOM     23  C   UNL     1      -3.201   3.035  24.353  0.00  0.00    +0.000 C 
ATOM     24  S   UNL     1      -4.898   0.787  25.121  0.00  0.00    -0.054 S 
ATOM     25  C   UNL     1      -4.305   0.316  24.797  0.00  0.00    +0.185 A 
ATOM     26  N   UNL     1      -4.305  -0.509  24.760  0.00  0.00    -0.151 NA
ATOM     27  C   UNL     1      -3.670  -0.907  24.417  0.00  0.00    +0.271 C 
ATOM     28  O   UNL     1      -3.034  -0.481  24.110  0.00  0.00    -0.268 OA
ATOM     36  N   UNL     1      -3.710   0.813  24.514  0.00  0.00    -0.227 NA
ENDROOT
BRANCH  27  29
ATOM     29  C   UNL     1      -3.670  -1.731  24.380  0.00  0.00    +0.056 A 
ATOM     30  C   UNL     1      -4.132  -2.120  23.818  0.00  0.00    +0.007 A 
ATOM     31  C   UNL     1      -4.132  -2.944  23.782  0.00  0.00    +0.030 A 
ATOM     32  C   UNL     1      -3.670  -3.380  24.308  0.00  0.00    +0.140 A 
ATOM     33  F   UNL     1      -3.669  -4.204  24.272  0.00  0.00    -0.204 F 
ATOM     34  C   UNL     1      -3.207  -2.991  24.871  0.00  0.00    +0.030 A 
ATOM     35  C   UNL     1      -3.208  -2.167  24.907  0.00  0.00    +0.007 A 
ENDBRANCH  27  29
BRANCH  14  16
ATOM     16  C   UNL     1      -5.599   4.227  25.633  0.00  0.00    +0.184 C 
ATOM     17  O   UNL     1      -6.341   3.943  25.856  0.00  0.00    -0.220 OA
ENDBRANCH  14  16
BRANCH   9   8
ATOM      8  C   UNL     1      -2.835   2.329  24.133  0.00  0.00    +0.091 C 
BRANCH   8   6
ATOM      1  C   UNL     1      -1.402   2.065  23.358  0.00  0.00    +0.116 C 
ATOM      2  N   UNL     1      -1.430   2.072  24.183  0.00  0.00    -0.266 N 
ATOM      6  C   UNL     1      -2.146   2.204  24.571  0.00  0.00    +0.227 C 
ATOM      7  O   UNL     1      -2.173   2.210  25.394  0.00  0.00    -0.275 OA
BRANCH   2   3
ATOM      3  C   UNL     1      -0.741   1.946  24.620  0.00  0.00    +0.172 C 
BRANCH   3   4
ATOM      4  C   UNL     1      -0.107   1.541  24.281  0.00  0.00    -0.056 C 
ATOM      5  C   UNL     1       0.529   1.136  23.943  0.00  0.00    -0.012 C 
ENDBRANCH   3   4
ENDBRANCH   2   3
ENDBRANCH   8   6
ENDBRANCH   9   8
TORSDOF 6
ENDMDL
MODEL 8
REMARK VINA RESULT:     -11.4      2.867      3.802
REMARK  Name = 
REMARK  6 active torsions:
REMARK  status: ('A' for Active; 'I' for Inactive)
REMARK    1  A    between atoms: N_2  and  C_3
REMARK    2  A    between atoms: C_3  and  C_4
REMARK    3  A    between atoms: C_6  and  C_8
REMARK    4  A    between atoms: C_8  and  C_9
REMARK    5  A    between atoms: C_14  and  C_16
REMARK    6  A    between atoms: C_27  and  C_29
REMARK                            x       y       z     vdW  Elec       q    Type
REMARK                         _______ _______ _______ _____ _____    ______ ____
ROOT
ATOM      9  C   UNL     1      -1.758   0.449  24.439  0.00  0.00    +0.050 C 
ATOM     10  C   UNL     1      -1.063   0.061  24.218  0.00  0.00    +0.063 A 
ATOM     11  C   UNL     1      -1.003  -0.757  24.303  0.00  0.00    +0.023 A 
ATOM     12  C   UNL     1      -1.636  -1.187  24.609  0.00  0.00    +0.034 C 
ATOM     13  C   UNL     1      -2.330  -0.800  24.830  0.00  0.00    +0.010 C 
ATOM     14  C   UNL     1      -2.964  -1.231  25.136  0.00  0.00    +0.059 C 
ATOM     15  C   UNL     1      -2.426  -1.842  25.005  0.00  0.00    +0.005 C 
ATOM     18  C   UNL     1      -3.658  -0.843  25.356  0.00  0.00    +0.154 C 
ATOM     19  O   UNL     1      -4.292  -1.274  25.663  0.00  0.00    -0.223 OA
ATOM     20  C   UNL     1      -3.718  -0.025  25.271  0.00  0.00    +0.033 C 
ATOM     21  C   UNL     1      -3.085   0.406  24.966  0.00  0.00    +0.003 C 
ATOM     22  C   UNL     1      -2.391   0.019  24.745  0.00  0.00    +0.006 C 
ATOM     23  C   UNL     1      -2.451   0.836  24.660  0.00  0.00    +0.000 C 
ATOM     24  S   UNL     1      -0.255  -0.986  24.040  0.00  0.00    -0.054 S 
ATOM     25  C   UNL     1       0.146  -0.310  23.793  0.00  0.00    +0.185 A 
ATOM     26  N   UNL     1       0.913  -0.284  23.489  0.00  0.00    -0.151 NA
ATOM     27  C   UNL     1       1.244   0.436  23.263  0.00  0.00    +0.271 C 
ATOM     28  O   UNL     1       0.809   1.132  23.342  0.00  0.00    -0.268 OA
ATOM     36  N   UNL     1      -0.353   0.338  23.903  0.00  0.00    -0.227 NA
ENDROOT
BRANCH  27  29
ATOM     29  C   UNL     1       2.011   0.462  22.959  0.00  0.00    +0.056 A 
ATOM     30  C   UNL     1       2.217  -0.014  22.318  0.00  0.00    +0.007 A 
ATOM     31  C   UNL     1       2.983   0.012  22.013  0.00  0.00    +0.030 A 
ATOM     32  C   UNL     1       3.544   0.514  22.352  0.00  0.00    +0.140 A 
ATOM     33  F   UNL     1       4.311   0.540  22.049  0.00  0.00    -0.204 F 
ATOM     34  C   UNL     1       3.338   0.990  22.994  0.00  0.00    +0.030 A 
ATOM     35  C   UNL     1       2.572   0.963  23.297  0.00  0.00    +0.007 A 
ENDBRANCH  27  29
BRANCH  14  16
ATOM     16  C   UNL     1      -3.411  -1.874  25.396  0.00  0.00    +0.184 C 
ATOM     17  O   UNL     1      -3.196  -2.640  25.178  0.00  0.00    -0.220 OA
ENDBRANCH  14  16
BRANCH   9   8
ATOM      8  C   UNL     1      -1.817   1.267  24.354  0.00  0.00    +0.091 C 
BRANCH   8   6
ATOM      1  C   UNL     1      -1.753   2.895  24.089  0.00  0.00    +0.116 C 
ATOM      2  N   UNL     1      -1.460   2.579  24.793  0.00  0.00    -0.266 N 
ATOM      6  C   UNL     1      -1.492   1.766  24.926  0.00  0.00    +0.227 C 
ATOM      7  O   UNL     1      -1.199   1.451  25.629  0.00  0.00    -0.275 OA
BRANCH   2   3
ATOM      3  C   UNL     1      -1.134   3.078  25.364  0.00  0.00    +0.172 C 
BRANCH   3   4
ATOM      4  C   UNL     1      -1.088   3.890  25.225  0.00  0.00    -0.056 C 
ATOM      5  C   UNL     1      -1.042   4.702  25.086  0.00  0.00    -0.012 C 
ENDBRANCH   3   4
ENDBRANCH   2   3
ENDBRANCH   8   6
ENDBRANCH   9   8
TORSDOF 6
ENDMDL
MODEL 9
REMARK VINA RESULT:     -11.0      2.401      4.406
REMARK  Name = 
REMARK  6 active torsions:
REMARK  status: ('A' for Active; 'I' for Inactive)
REMARK    1  A    between atoms: N_2  and  C_3
REMARK    2  A    between atoms: C_3  and  C_4
REMARK    3  A    between atoms: C_6  and  C_8
REMARK    4  A    between atoms: C_8  and  C_9
REMARK    5  A    between atoms: C_14  and  C_16
REMARK    6  A    between atoms: C_27  and  C_29
REMARK                            x       y       z     vdW  Elec       q    Type
REMARK                         _______ _______ _______ _____ _____    ______ ____
ROOT
ATOM      9  C   UNL     1      -3.466   2.572  25.236  0.00  0.00    +0.050 C 
ATOM     10  C   UNL     1      -3.126   1.935  24.835  0.00  0.00    +0.063 A 
ATOM     11  C   UNL     1      -3.606   1.338  24.529  0.00  0.00    +0.023 A 
ATOM     12  C   UNL     1      -4.423   1.377  24.622  0.00  0.00    +0.034 C 
ATOM     13  C   UNL     1      -4.763   2.014  25.021  0.00  0.00    +0.010 C 
ATOM     14  C   UNL     1      -5.582   2.053  25.114  0.00  0.00    +0.059 C 
ATOM     15  C   UNL     1      -5.520   1.345  24.697  0.00  0.00    +0.005 C 
ATOM     18  C   UNL     1      -5.921   2.691  25.515  0.00  0.00    +0.154 C 
ATOM     19  O   UNL     1      -6.741   2.730  25.608  0.00  0.00    -0.223 OA
ATOM     20  C   UNL     1      -5.442   3.287  25.821  0.00  0.00    +0.033 C 
ATOM     21  C   UNL     1      -4.623   3.248  25.728  0.00  0.00    +0.003 C 
ATOM     22  C   UNL     1      -4.283   2.611  25.328  0.00  0.00    +0.006 C 
ATOM     23  C   UNL     1      -3.805   3.208  25.635  0.00  0.00    +0.000 C 
ATOM     24  S   UNL     1      -3.117   0.782  24.163  0.00  0.00    -0.054 S 
ATOM     25  C   UNL     1      -2.337   1.035  24.244  0.00  0.00    +0.185 A 
ATOM     26  N   UNL     1      -1.667   0.645  23.960  0.00  0.00    -0.151 NA
ATOM     27  C   UNL     1      -0.918   0.966  24.083  0.00  0.00    +0.271 C 
ATOM     28  O   UNL     1      -0.838   1.679  24.491  0.00  0.00    -0.268 OA
ATOM     36  N   UNL     1      -2.342   1.748  24.660  0.00  0.00    -0.227 NA
ENDROOT
BRANCH  27  29
ATOM     29  C   UNL     1      -0.249   0.576  23.799  0.00  0.00    +0.056 A 
ATOM     30  C   UNL     1      -0.193  -0.244  23.858  0.00  0.00    +0.007 A 
ATOM     31  C   UNL     1       0.476  -0.634  23.574  0.00  0.00    +0.030 A 
ATOM     32  C   UNL     1       1.090  -0.203  23.230  0.00  0.00    +0.140 A 
ATOM     33  F   UNL     1       1.759  -0.591  22.945  0.00  0.00    -0.204 F 
ATOM     34  C   UNL     1       1.034   0.619  23.170  0.00  0.00    +0.030 A 
ATOM     35  C   UNL     1       0.364   1.008  23.455  0.00  0.00    +0.007 A 
ENDBRANCH  27  29
BRANCH  14  16
ATOM     16  C   UNL     1      -6.379   1.847  25.062  0.00  0.00    +0.184 C 
ATOM     17  O   UNL     1      -6.610   1.212  24.588  0.00  0.00    -0.220 OA
ENDBRANCH  14  16
BRANCH   9   8
ATOM      8  C   UNL     1      -2.986   3.169  25.542  0.00  0.00    +0.091 C 
BRANCH   8   6
ATOM      1  C   UNL     1      -1.784   4.178  26.050  0.00  0.00    +0.116 C 
ATOM      2  N   UNL     1      -2.127   4.287  25.308  0.00  0.00    -0.266 N 
ATOM      6  C   UNL     1      -2.728   3.782  25.053  0.00  0.00    +0.227 C 
ATOM      7  O   UNL     1      -3.071   3.890  24.312  0.00  0.00    -0.275 OA
BRANCH   2   3
ATOM      3  C   UNL     1      -1.870   4.900  24.819  0.00  0.00    +0.172 C 
BRANCH   3   4
ATOM      4  C   UNL     1      -1.068   5.090  24.784  0.00  0.00    -0.056 C 
ATOM      5  C   UNL     1      -0.265   5.279  24.748  0.00  0.00    -0.012 C 
ENDBRANCH   3   4
ENDBRANCH   2   3
ENDBRANCH   8   6
ENDBRANCH   9   8
TORSDOF 6
ENDMDL
MODEL 10
REMARK VINA RESULT:     -10.6      2.080      3.718
REMARK  Name = 
REMARK  6 active torsions:
REMARK  status: ('A' for Active; 'I' for Inactive)
REMARK    1  A    between atoms: N_2  and  C_3
REMARK    2  A    between atoms: C_3  and  C_4
REMARK    3  A    between atoms: C_6  and  C_8
REMARK    4  A    between atoms: C_8  and  C_9
REMARK    5  A    between atoms: C_14  and  C_16
REMARK    6  A    between atoms: C_27  and  C_29
REMARK                            x       y       z     vdW  Elec       q    Type
REMARK                         _______ _______ _______ _____ _____    ______ ____
ROOT
ATOM      9  C   UNL     1      -1.784   0.212  24.585  0.00  0.00    +0.050 C 
ATOM     10  C   UNL     1      -2.049   0.994  24.579  0.00  0.00    +0.063 A 
ATOM     11  C   UNL     1      -1.553   1.594  24.306  0.00  0.00    +0.023 A 
ATOM     12  C   UNL     1      -0.795   1.414  24.040  0.00  0.00    +0.034 C 
ATOM     13  C   UNL     1      -0.529   0.633  24.047  0.00  0.00    +0.010 C 
ATOM     14  C   UNL     1       0.230   0.452  23.781  0.00  0.00    +0.059 C 
ATOM     15  C   UNL     1       0.230   1.269  23.668  0.00  0.00    +0.005 C 
ATOM     18  C   UNL     1       0.494  -0.329  23.788  0.00  0.00    +0.154 C 
ATOM     19  O   UNL     1       1.255  -0.510  23.521  0.00  0.00    -0.223 OA
ATOM     20  C   UNL     1      -0.000  -0.930  24.060  0.00  0.00    +0.033 C 
ATOM     21  C   UNL     1      -0.760  -0.749  24.326  0.00  0.00    +0.003 C 
ATOM     22  C   UNL     1      -1.025   0.032  24.320  0.00  0.00    +0.006 C 
ATOM     23  C   UNL     1      -1.520  -0.569  24.592  0.00  0.00    +0.000 C 
ATOM     24  S   UNL     1      -1.964   2.308  24.364  0.00  0.00    -0.054 S 
ATOM     25  C   UNL     1      -2.711   2.149  24.672  0.00  0.00    +0.185 A 
ATOM     26  N   UNL     1      -3.303   2.704  24.822  0.00  0.00    -0.151 NA
ATOM     27  C   UNL     1      -4.027   2.462  25.133  0.00  0.00    +0.271 C 
ATOM     28  O   UNL     1      -4.160   1.664  25.295  0.00  0.00    -0.268 OA
ATOM     36  N   UNL     1      -2.765   1.336  24.805  0.00  0.00    -0.227 NA
ENDROOT
BRANCH  27  29
ATOM     29  C   UNL     1      -4.619   3.017  25.283  0.00  0.00    +0.056 A 
ATOM     30  C   UNL     1      -4.453   3.823  25.231  0.00  0.00    +0.007 A 
ATOM     31  C   UNL     1      -5.045   4.378  25.381  0.00  0.00    +0.030 A 
ATOM     32  C   UNL     1      -5.804   4.126  25.583  0.00  0.00    +0.140 A 
ATOM     33  F   UNL     1      -6.396   4.680  25.733  0.00  0.00    -0.204 F 
ATOM     34  C   UNL     1      -5.971   3.319  25.635  0.00  0.00    +0.030 A 
ATOM     35  C   UNL     1      -5.378   2.765  25.485  0.00  0.00    +0.007 A 
ENDBRANCH  27  29
BRANCH  14  16
ATOM     16  C   UNL     1       0.990   0.556  23.476  0.00  0.00    +0.184 C 
ATOM     17  O   UNL     1       1.365   1.288  23.542  0.00  0.00    -0.220 OA
ENDBRANCH  14  16
BRANCH   9   8
ATOM      8  C   UNL     1      -2.280  -0.388  24.858  0.00  0.00    +0.091 C 
BRANCH   8   6
ATOM      1  C   UNL     1      -3.361  -1.487  25.446  0.00  0.00    +0.116 C 
ATOM      2  N   UNL     1      -3.407  -1.244  24.659  0.00  0.00    -0.266 N 
ATOM      6  C   UNL     1      -2.867  -0.694  24.365  0.00  0.00    +0.227 C 
ATOM      7  O   UNL     1      -2.913  -0.451  23.579  0.00  0.00    -0.275 OA
BRANCH   2   3
ATOM      3  C   UNL     1      -3.994  -1.549  24.166  0.00  0.00    +0.172 C 
BRANCH   3   4
ATOM      4  C   UNL     1      -4.097  -2.366  24.106  0.00  0.00    -0.056 C 
ATOM      5  C   UNL     1      -4.201  -3.183  24.046  0.00  0.00    -0.012 C 
ENDBRANCH   3   4
ENDBRANCH   2   3
ENDBRANCH   8   6
ENDBRANCH   9   8
TORSDOF 6
ENDMDL
