MODEL 1
REMARK VINA RESULT:      -8.5      0.000      0.000
REMARK  Name = 
REMARK  1 active torsions:
REMARK  status: ('A' for Active; 'I' for Inactive)
REMARK    1  A    between atoms: C_2  and  N_4
REMARK                            x       y       z     vdW  Elec       q    Type
REMARK                         _______ _______ _______ _____ _____    ______ ____
ROOT
ATOM      4  N   UNL     1      -4.218  -0.598  24.713  0.00  0.00    -0.190 NA
ATOM      5  C   UNL     1      -3.740   0.043  24.509  0.00  0.00    +0.323 C 
ATOM      6  O   UNL     1      -3.009  -0.085  24.150  0.00  0.00    -0.251 OA
ATOM      7  N   UNL     1      -3.994   0.813  24.665  0.00  0.00    -0.259 N 
ATOM      8  C   UNL     1      -3.517   1.454  24.461  0.00  0.00    +0.117 C 
ATOM      9  C   UNL     1      -3.771   2.223  24.617  0.00  0.00    +0.117 C 
ATOM     10  N   UNL     1      -4.502   2.351  24.977  0.00  0.00    -0.259 N 
ATOM     11  C   UNL     1      -4.979   1.710  25.181  0.00  0.00    +0.118 C 
ATOM     12  C   UNL     1      -5.667   2.004  25.527  0.00  0.00    +0.138 C 
ATOM     13  N   UNL     1      -5.616   2.827  25.538  0.00  0.00    -0.187 NA
ATOM     14  C   UNL     1      -4.896   3.041  25.198  0.00  0.00    +0.323 C 
ATOM     15  O   UNL     1      -4.617   3.812  25.095  0.00  0.00    -0.251 OA
ATOM     16  C   UNL     1      -4.725   0.940  25.025  0.00  0.00    +0.117 C 
ENDROOT
BRANCH   4   2
ATOM      1  C   UNL     1      -4.194  -1.744  23.861  0.00  0.00    +0.023 C 
ATOM      2  C   UNL     1      -3.964  -1.367  24.558  0.00  0.00    +0.097 C 
ATOM      3  C   UNL     1      -3.480  -1.760  25.098  0.00  0.00    +0.023 C 
ENDBRANCH   4   2
TORSDOF 1
ENDMDL
MODEL 2
REMARK VINA RESULT:      -8.1      2.327      3.595
REMARK  Name = 
REMARK  1 active torsions:
REMARK  status: ('A' for Active; 'I' for Inactive)
REMARK    1  A    between atoms: C_2  and  N_4
REMARK                            x       y       z     vdW  Elec       q    Type
REMARK                         _______ _______ _______ _____ _____    ______ ____
ROOT
ATOM      4  N   UNL     1      -2.216   3.960  25.285  0.00  0.00    -0.190 NA
ATOM      5  C   UNL     1      -2.466   3.381  24.753  0.00  0.00    +0.323 C 
ATOM      6  O   UNL     1      -1.949   3.100  24.175  0.00  0.00    -0.251 OA
ATOM      7  N   UNL     1      -3.235   3.082  24.799  0.00  0.00    -0.259 N 
ATOM      8  C   UNL     1      -3.484   2.502  24.267  0.00  0.00    +0.117 C 
ATOM      9  C   UNL     1      -4.251   2.204  24.313  0.00  0.00    +0.117 C 
ATOM     10  N   UNL     1      -4.770   2.484  24.891  0.00  0.00    -0.259 N 
ATOM     11  C   UNL     1      -4.520   3.063  25.423  0.00  0.00    +0.118 C 
ATOM     12  C   UNL     1      -5.148   3.232  25.930  0.00  0.00    +0.138 C 
ATOM     13  N   UNL     1      -5.786   2.758  25.712  0.00  0.00    -0.187 NA
ATOM     14  C   UNL     1      -5.552   2.296  25.070  0.00  0.00    +0.323 C 
ATOM     15  O   UNL     1      -6.019   1.741  24.675  0.00  0.00    -0.251 OA
ATOM     16  C   UNL     1      -3.752   3.362  25.377  0.00  0.00    +0.117 C 
ENDROOT
BRANCH   4   2
ATOM      1  C   UNL     1      -1.324   5.037  24.998  0.00  0.00    +0.023 C 
ATOM      2  C   UNL     1      -1.449   4.258  25.239  0.00  0.00    +0.097 C 
ATOM      3  C   UNL     1      -0.807   3.778  25.433  0.00  0.00    +0.023 C 
ENDBRANCH   4   2
TORSDOF 1
ENDMDL
MODEL 3
REMARK VINA RESULT:      -7.7      1.273      3.796
REMARK  Name = 
REMARK  1 active torsions:
REMARK  status: ('A' for Active; 'I' for Inactive)
REMARK    1  A    between atoms: C_2  and  N_4
REMARK                            x       y       z     vdW  Elec       q    Type
REMARK                         _______ _______ _______ _____ _____    ______ ____
ROOT
ATOM      4  N   UNL     1      -4.165   1.543  24.371  0.00  0.00    -0.190 NA
ATOM      5  C   UNL     1      -3.472   1.213  24.673  0.00  0.00    +0.323 C 
ATOM      6  O   UNL     1      -2.893   1.698  25.004  0.00  0.00    -0.251 OA
ATOM      7  N   UNL     1      -3.357   0.395  24.644  0.00  0.00    -0.259 N 
ATOM      8  C   UNL     1      -2.664   0.065  24.946  0.00  0.00    +0.117 C 
ATOM      9  C   UNL     1      -2.550  -0.751  24.917  0.00  0.00    +0.117 C 
ATOM     10  N   UNL     1      -3.128  -1.238  24.586  0.00  0.00    -0.259 N 
ATOM     11  C   UNL     1      -3.821  -0.907  24.284  0.00  0.00    +0.118 C 
ATOM     12  C   UNL     1      -4.290  -1.520  23.994  0.00  0.00    +0.138 C 
ATOM     13  N   UNL     1      -3.887  -2.229  24.116  0.00  0.00    -0.187 NA
ATOM     14  C   UNL     1      -3.169  -2.054  24.482  0.00  0.00    +0.323 C 
ATOM     15  O   UNL     1      -2.593  -2.601  24.704  0.00  0.00    -0.251 OA
ATOM     16  C   UNL     1      -3.936  -0.090  24.313  0.00  0.00    +0.117 C 
ENDROOT
BRANCH   4   2
ATOM      1  C   UNL     1      -4.720   2.692  25.013  0.00  0.00    +0.023 C 
ATOM      2  C   UNL     1      -4.279   2.359  24.400  0.00  0.00    +0.097 C 
ATOM      3  C   UNL     1      -3.953   2.843  23.817  0.00  0.00    +0.023 C 
ENDBRANCH   4   2
TORSDOF 1
ENDMDL
MODEL 4
REMARK VINA RESULT:      -7.5      2.102      2.827
REMARK  Name = 
REMARK  1 active torsions:
REMARK  status: ('A' for Active; 'I' for Inactive)
REMARK    1  A    between atoms: C_2  and  N_4
REMARK                            x       y       z     vdW  Elec       q    Type
REMARK                         _______ _______ _______ _____ _____    ______ ____
ROOT
ATOM      4  N   UNL     1      -3.250   0.921  24.785  0.00  0.00    -0.190 NA
ATOM      5  C   UNL     1      -3.571   1.677  24.715  0.00  0.00    +0.323 C 
ATOM      6  O   UNL     1      -4.367   1.772  24.521  0.00  0.00    -0.251 OA
ATOM      7  N   UNL     1      -3.096   2.341  24.840  0.00  0.00    -0.259 N 
ATOM      8  C   UNL     1      -3.417   3.098  24.771  0.00  0.00    +0.117 C 
ATOM      9  C   UNL     1      -2.943   3.760  24.895  0.00  0.00    +0.117 C 
ATOM     10  N   UNL     1      -2.146   3.667  25.089  0.00  0.00    -0.259 N 
ATOM     11  C   UNL     1      -1.825   2.910  25.159  0.00  0.00    +0.118 C 
ATOM     12  C   UNL     1      -1.028   2.989  25.355  0.00  0.00    +0.138 C 
ATOM     13  N   UNL     1      -0.856   3.793  25.407  0.00  0.00    -0.187 NA
ATOM     14  C   UNL     1      -1.547   4.212  25.243  0.00  0.00    +0.323 C 
ATOM     15  O   UNL     1      -1.626   5.034  25.233  0.00  0.00    -0.251 OA
ATOM     16  C   UNL     1      -2.300   2.247  25.034  0.00  0.00    +0.117 C 
ENDROOT
BRANCH   4   2
ATOM      1  C   UNL     1      -4.155  -0.064  25.286  0.00  0.00    +0.023 C 
ATOM      2  C   UNL     1      -3.725   0.258  24.660  0.00  0.00    +0.097 C 
ATOM      3  C   UNL     1      -3.770  -0.082  23.910  0.00  0.00    +0.023 C 
ENDBRANCH   4   2
TORSDOF 1
ENDMDL
MODEL 5
REMARK VINA RESULT:      -7.4      1.892      3.627
REMARK  Name = 
REMARK  1 active torsions:
REMARK  status: ('A' for Active; 'I' for Inactive)
REMARK    1  A    between atoms: C_2  and  N_4
REMARK                            x       y       z     vdW  Elec       q    Type
REMARK                         _______ _______ _______ _____ _____    ______ ____
ROOT
ATOM      4  N   UNL     1      -4.380   2.004  25.082  0.00  0.00    -0.190 NA
ATOM      5  C   UNL     1      -3.951   2.184  24.401  0.00  0.00    +0.323 C 
ATOM      6  O   UNL     1      -4.266   2.698  23.838  0.00  0.00    -0.251 OA
ATOM      7  N   UNL     1      -3.206   1.849  24.281  0.00  0.00    -0.259 N 
ATOM      8  C   UNL     1      -2.777   2.029  23.600  0.00  0.00    +0.117 C 
ATOM      9  C   UNL     1      -2.033   1.694  23.481  0.00  0.00    +0.117 C 
ATOM     10  N   UNL     1      -1.717   1.179  24.044  0.00  0.00    -0.259 N 
ATOM     11  C   UNL     1      -2.146   1.000  24.725  0.00  0.00    +0.118 C 
ATOM     12  C   UNL     1      -1.697   0.478  25.179  0.00  0.00    +0.138 C 
ATOM     13  N   UNL     1      -0.990   0.335  24.779  0.00  0.00    -0.187 NA
ATOM     14  C   UNL     1      -1.003   0.769  24.077  0.00  0.00    +0.323 C 
ATOM     15  O   UNL     1      -0.405   0.788  23.508  0.00  0.00    -0.251 OA
ATOM     16  C   UNL     1      -2.891   1.335  24.844  0.00  0.00    +0.117 C 
ENDROOT
BRANCH   4   2
ATOM      1  C   UNL     1      -5.191   3.076  25.565  0.00  0.00    +0.023 C 
ATOM      2  C   UNL     1      -5.124   2.339  25.201  0.00  0.00    +0.097 C 
ATOM      3  C   UNL     1      -5.802   1.938  24.955  0.00  0.00    +0.023 C 
ENDBRANCH   4   2
TORSDOF 1
ENDMDL
MODEL 6
REMARK VINA RESULT:      -7.3      1.395      3.908
REMARK  Name = 
REMARK  1 active torsions:
REMARK  status: ('A' for Active; 'I' for Inactive)
REMARK    1  A    between atoms: C_2  and  N_4
REMARK                            x       y       z     vdW  Elec       q    Type
REMARK                         _______ _______ _______ _____ _____    ______ ____
ROOT
ATOM      4  N   UNL     1      -3.507   1.861  24.588  0.00  0.00    -0.190 NA
ATOM      5  C   UNL     1      -4.039   1.230  24.586  0.00  0.00    +0.323 C 
ATOM      6  O   UNL     1      -4.850   1.373  24.547  0.00  0.00    -0.251 OA
ATOM      7  N   UNL     1      -3.759   0.454  24.623  0.00  0.00    -0.259 N 
ATOM      8  C   UNL     1      -4.290  -0.177  24.621  0.00  0.00    +0.117 C 
ATOM      9  C   UNL     1      -4.010  -0.952  24.657  0.00  0.00    +0.117 C 
ATOM     10  N   UNL     1      -3.199  -1.097  24.696  0.00  0.00    -0.259 N 
ATOM     11  C   UNL     1      -2.667  -0.466  24.698  0.00  0.00    +0.118 C 
ATOM     12  C   UNL     1      -1.904  -0.775  24.740  0.00  0.00    +0.138 C 
ATOM     13  N   UNL     1      -1.963  -1.597  24.764  0.00  0.00    -0.187 NA
ATOM     14  C   UNL     1      -2.763  -1.795  24.737  0.00  0.00    +0.323 C 
ATOM     15  O   UNL     1      -3.074  -2.560  24.748  0.00  0.00    -0.251 OA
ATOM     16  C   UNL     1      -2.947   0.310  24.661  0.00  0.00    +0.117 C 
ENDROOT
BRANCH   4   2
ATOM      1  C   UNL     1      -3.868   3.010  23.821  0.00  0.00    +0.023 C 
ATOM      2  C   UNL     1      -3.787   2.635  24.551  0.00  0.00    +0.097 C 
ATOM      3  C   UNL     1      -3.987   3.036  25.245  0.00  0.00    +0.023 C 
ENDBRANCH   4   2
TORSDOF 1
ENDMDL
MODEL 7
REMARK VINA RESULT:      -7.3      2.733      3.527
REMARK  Name = 
REMARK  1 active torsions:
REMARK  status: ('A' for Active; 'I' for Inactive)
REMARK    1  A    between atoms: C_2  and  N_4
REMARK                            x       y       z     vdW  Elec       q    Type
REMARK                         _______ _______ _______ _____ _____    ______ ____
ROOT
ATOM      4  N   UNL     1      -2.863  -0.269  25.154  0.00  0.00    -0.190 NA
ATOM      5  C   UNL     1      -2.146  -0.452  24.789  0.00  0.00    +0.323 C 
ATOM      6  O   UNL     1      -2.021  -1.206  24.478  0.00  0.00    -0.251 OA
ATOM      7  N   UNL     1      -1.553   0.120  24.733  0.00  0.00    -0.259 N 
ATOM      8  C   UNL     1      -0.837  -0.062  24.367  0.00  0.00    +0.117 C 
ATOM      9  C   UNL     1      -0.245   0.509  24.312  0.00  0.00    +0.117 C 
ATOM     10  N   UNL     1      -0.369   1.264  24.622  0.00  0.00    -0.259 N 
ATOM     11  C   UNL     1      -1.086   1.446  24.987  0.00  0.00    +0.118 C 
ATOM     12  C   UNL     1      -1.051   2.230  25.240  0.00  0.00    +0.138 C 
ATOM     13  N   UNL     1      -0.313   2.533  25.031  0.00  0.00    -0.187 NA
ATOM     14  C   UNL     1       0.108   1.935  24.649  0.00  0.00    +0.323 C 
ATOM     15  O   UNL     1       0.874   1.998  24.346  0.00  0.00    -0.251 OA
ATOM     16  C   UNL     1      -1.678   0.874  25.043  0.00  0.00    +0.117 C 
ENDROOT
BRANCH   4   2
ATOM      1  C   UNL     1      -3.486  -1.339  25.867  0.00  0.00    +0.023 C 
ATOM      2  C   UNL     1      -3.454  -0.841  25.210  0.00  0.00    +0.097 C 
ATOM      3  C   UNL     1      -4.015  -0.916  24.608  0.00  0.00    +0.023 C 
ENDBRANCH   4   2
TORSDOF 1
ENDMDL
MODEL 8
REMARK VINA RESULT:      -7.2      1.642      3.941
REMARK  Name = 
REMARK  1 active torsions:
REMARK  status: ('A' for Active; 'I' for Inactive)
REMARK    1  A    between atoms: C_2  and  N_4
REMARK                            x       y       z     vdW  Elec       q    Type
REMARK                         _______ _______ _______ _____ _____    ______ ____
ROOT
ATOM      4  N   UNL     1      -2.300   3.042  25.333  0.00  0.00    -0.190 NA
ATOM      5  C   UNL     1      -2.962   2.828  24.891  0.00  0.00    +0.323 C 
ATOM      6  O   UNL     1      -3.485   3.407  24.623  0.00  0.00    -0.251 OA
ATOM      7  N   UNL     1      -3.103   2.033  24.715  0.00  0.00    -0.259 N 
ATOM      8  C   UNL     1      -3.766   1.819  24.273  0.00  0.00    +0.117 C 
ATOM      9  C   UNL     1      -3.906   1.025  24.098  0.00  0.00    +0.117 C 
ATOM     10  N   UNL     1      -3.383   0.445  24.365  0.00  0.00    -0.259 N 
ATOM     11  C   UNL     1      -2.720   0.659  24.807  0.00  0.00    +0.118 C 
ATOM     12  C   UNL     1      -2.306  -0.028  24.995  0.00  0.00    +0.138 C 
ATOM     13  N   UNL     1      -2.712  -0.668  24.668  0.00  0.00    -0.187 NA
ATOM     14  C   UNL     1      -3.377  -0.375  24.280  0.00  0.00    +0.323 C 
ATOM     15  O   UNL     1      -3.940  -0.824  23.875  0.00  0.00    -0.251 OA
ATOM     16  C   UNL     1      -2.580   1.454  24.983  0.00  0.00    +0.117 C 
ENDROOT
BRANCH   4   2
ATOM      1  C   UNL     1      -2.615   4.218  26.079  0.00  0.00    +0.023 C 
ATOM      2  C   UNL     1      -2.160   3.835  25.508  0.00  0.00    +0.097 C 
ATOM      3  C   UNL     1      -1.564   4.247  25.112  0.00  0.00    +0.023 C 
ENDBRANCH   4   2
TORSDOF 1
ENDMDL
MODEL 9
REMARK VINA RESULT:      -7.1      2.082      2.285
REMARK  Name = 
REMARK  1 active torsions:
REMARK  status: ('A' for Active; 'I' for Inactive)
REMARK    1  A    between atoms: C_2  and  N_4
REMARK                            x       y       z     vdW  Elec       q    Type
REMARK                         _______ _______ _______ _____ _____    ______ ____
ROOT
ATOM      4  N   UNL     1      -2.243   1.414  24.590  0.00  0.00    -0.190 NA
ATOM      5  C   UNL     1      -2.348   2.183  24.870  0.00  0.00    +0.323 C 
ATOM      6  O   UNL     1      -1.695   2.673  24.989  0.00  0.00    -0.251 OA
ATOM      7  N   UNL     1      -3.108   2.463  25.032  0.00  0.00    -0.259 N 
ATOM      8  C   UNL     1      -3.214   3.231  25.313  0.00  0.00    +0.117 C 
ATOM      9  C   UNL     1      -3.973   3.510  25.474  0.00  0.00    +0.117 C 
ATOM     10  N   UNL     1      -4.627   3.021  25.355  0.00  0.00    -0.259 N 
ATOM     11  C   UNL     1      -4.521   2.253  25.075  0.00  0.00    +0.118 C 
ATOM     12  C   UNL     1      -5.263   1.900  25.012  0.00  0.00    +0.138 C 
ATOM     13  N   UNL     1      -5.829   2.450  25.253  0.00  0.00    -0.187 NA
ATOM     14  C   UNL     1      -5.435   3.142  25.465  0.00  0.00    +0.323 C 
ATOM     15  O   UNL     1      -5.787   3.836  25.740  0.00  0.00    -0.251 OA
ATOM     16  C   UNL     1      -3.761   1.973  24.913  0.00  0.00    +0.117 C 
ENDROOT
BRANCH   4   2
ATOM      1  C   UNL     1      -1.148   1.261  23.685  0.00  0.00    +0.023 C 
ATOM      2  C   UNL     1      -1.484   1.136  24.428  0.00  0.00    +0.097 C 
ATOM      3  C   UNL     1      -1.060   0.731  25.009  0.00  0.00    +0.023 C 
ENDBRANCH   4   2
TORSDOF 1
ENDMDL
MODEL 10
REMARK VINA RESULT:      -7.1      3.263      4.709
REMARK  Name = 
REMARK  1 active torsions:
REMARK  status: ('A' for Active; 'I' for Inactive)
REMARK    1  A    between atoms: C_2  and  N_4
REMARK                            x       y       z     vdW  Elec       q    Type
REMARK                         _______ _______ _______ _____ _____    ______ ____
ROOT
ATOM      4  N   UNL     1      -0.960   1.668  25.615  0.00  0.00    -0.190 NA
ATOM      5  C   UNL     1      -0.569   1.137  25.119  0.00  0.00    +0.323 C 
ATOM      6  O   UNL     1       0.135   1.358  24.751  0.00  0.00    -0.251 OA
ATOM      7  N   UNL     1      -0.881   0.383  24.992  0.00  0.00    -0.259 N 
ATOM      8  C   UNL     1      -0.490  -0.148  24.497  0.00  0.00    +0.117 C 
ATOM      9  C   UNL     1      -0.802  -0.900  24.370  0.00  0.00    +0.117 C 
ATOM     10  N   UNL     1      -1.506  -1.123  24.738  0.00  0.00    -0.259 N 
ATOM     11  C   UNL     1      -1.898  -0.592  25.233  0.00  0.00    +0.118 C 
ATOM     12  C   UNL     1      -2.577  -0.962  25.519  0.00  0.00    +0.138 C 
ATOM     13  N   UNL     1      -2.605  -1.723  25.200  0.00  0.00    -0.187 NA
ATOM     14  C   UNL     1      -1.944  -1.821  24.718  0.00  0.00    +0.323 C 
ATOM     15  O   UNL     1      -1.752  -2.500  24.290  0.00  0.00    -0.251 OA
ATOM     16  C   UNL     1      -1.585   0.162  25.361  0.00  0.00    +0.117 C 
ENDROOT
BRANCH   4   2
ATOM      1  C   UNL     1      -0.063   2.533  26.313  0.00  0.00    +0.023 C 
ATOM      2  C   UNL     1      -0.648   2.420  25.741  0.00  0.00    +0.097 C 
ATOM      3  C   UNL     1      -0.919   3.061  25.298  0.00  0.00    +0.023 C 
ENDBRANCH   4   2
TORSDOF 1
ENDMDL
