MODEL 1
REMARK VINA RESULT:     -12.9      0.000      0.000
REMARK  Name = 
REMARK  2 active torsions:
REMARK  status: ('A' for Active; 'I' for Inactive)
REMARK    1  A    between atoms: N_6  and  C_7
REMARK    2  A    between atoms: C_7  and  C_8
REMARK                            x       y       z     vdW  Elec       q    Type
REMARK                         _______ _______ _______ _____ _____    ______ ____
ROOT
ATOM      1  O   UNL     1      -3.526   4.027  25.697  0.00  0.00    -0.252 OA
ATOM      2  C   UNL     1      -3.296   3.371  25.253  0.00  0.00    +0.312 C 
ATOM      3  N   UNL     1      -3.752   2.698  25.108  0.00  0.00    -0.261 N 
ATOM      4  C   UNL     1      -4.515   2.489  25.341  0.00  0.00    +0.112 C 
ATOM      5  C   UNL     1      -4.833   1.764  25.106  0.00  0.00    +0.094 C 
ATOM      6  N   UNL     1      -4.388   1.250  24.640  0.00  0.00    -0.266 NA
ATOM     18  C   UNL     1      -3.625   1.460  24.407  0.00  0.00    +0.094 C 
ATOM     19  C   UNL     1      -3.307   2.184  24.641  0.00  0.00    +0.113 C 
ATOM     20  C   UNL     1      -2.575   2.538  24.498  0.00  0.00    +0.122 C 
ATOM     21  N   UNL     1      -2.569   3.272  24.876  0.00  0.00    -0.226 N 
ATOM     22  C   UNL     1      -1.944   3.811  24.877  0.00  0.00    +0.139 A 
ATOM     23  N   UNL     1      -1.247   3.635  24.473  0.00  0.00    -0.229 NA
ATOM     24  C   UNL     1      -0.623   4.174  24.474  0.00  0.00    +0.100 A 
ATOM     25  C   UNL     1      -0.696   4.890  24.879  0.00  0.00    +0.021 A 
ATOM     26  C   UNL     1      -1.394   5.065  25.282  0.00  0.00    +0.004 A 
ATOM     27  C   UNL     1      -2.018   4.526  25.281  0.00  0.00    +0.035 A 
ENDROOT
BRANCH   6   7
ATOM      7  C   UNL     1      -4.706   0.526  24.406  0.00  0.00    +0.099 C 
BRANCH   7   8
ATOM      8  C   UNL     1      -4.366  -0.179  24.668  0.00  0.00    -0.003 A 
ATOM      9  C   UNL     1      -4.177  -0.273  25.466  0.00  0.00    +0.000 A 
ATOM     10  C   UNL     1      -3.837  -0.977  25.729  0.00  0.00    +0.040 A 
ATOM     11  C   UNL     1      -3.686  -1.588  25.194  0.00  0.00    +0.172 A 
ATOM     12  O   UNL     1      -3.347  -2.292  25.457  0.00  0.00    -0.468 OA
ATOM     13  C   UNL     1      -3.196  -2.902  24.922  0.00  0.00    +0.253 C 
ATOM     14  C   UNL     1      -3.384  -2.807  24.124  0.00  0.00    +0.253 C 
ATOM     15  O   UNL     1      -3.724  -2.103  23.862  0.00  0.00    -0.468 OA
ATOM     16  C   UNL     1      -3.875  -1.493  24.396  0.00  0.00    +0.172 A 
ATOM     17  C   UNL     1      -4.215  -0.788  24.134  0.00  0.00    +0.037 A 
ENDBRANCH   7   8
ENDBRANCH   6   7
TORSDOF 2
ENDMDL
MODEL 2
REMARK VINA RESULT:     -12.5      1.900      2.559
REMARK  Name = 
REMARK  2 active torsions:
REMARK  status: ('A' for Active; 'I' for Inactive)
REMARK    1  A    between atoms: N_6  and  C_7
REMARK    2  A    between atoms: C_7  and  C_8
REMARK                            x       y       z     vdW  Elec       q    Type
REMARK                         _______ _______ _______ _____ _____    ______ ____
ROOT
ATOM      1  O   UNL     1       0.041   2.609  24.107  0.00  0.00    -0.252 OA
ATOM      2  C   UNL     1      -0.506   2.294  24.638  0.00  0.00    +0.312 C 
ATOM      3  N   UNL     1      -0.605   1.494  24.816  0.00  0.00    -0.261 N 
ATOM      4  C   UNL     1      -0.220   0.817  24.544  0.00  0.00    +0.112 C 
ATOM      5  C   UNL     1      -0.442   0.075  24.828  0.00  0.00    +0.094 C 
ATOM      6  N   UNL     1      -1.048   0.010  25.384  0.00  0.00    -0.266 NA
ATOM     18  C   UNL     1      -1.432   0.688  25.656  0.00  0.00    +0.094 C 
ATOM     19  C   UNL     1      -1.210   1.430  25.372  0.00  0.00    +0.113 C 
ATOM     20  C   UNL     1      -1.487   2.190  25.538  0.00  0.00    +0.122 C 
ATOM     21  N   UNL     1      -1.051   2.724  25.084  0.00  0.00    -0.226 N 
ATOM     22  C   UNL     1      -1.145   3.543  25.077  0.00  0.00    +0.139 A 
ATOM     23  N   UNL     1      -1.717   3.897  25.555  0.00  0.00    -0.229 NA
ATOM     24  C   UNL     1      -1.811   4.716  25.549  0.00  0.00    +0.100 A 
ATOM     25  C   UNL     1      -1.333   5.183  25.063  0.00  0.00    +0.021 A 
ATOM     26  C   UNL     1      -0.761   4.828  24.585  0.00  0.00    +0.004 A 
ATOM     27  C   UNL     1      -0.668   4.009  24.592  0.00  0.00    +0.035 A 
ENDROOT
BRANCH   6   7
ATOM      7  C   UNL     1      -1.270  -0.732  25.668  0.00  0.00    +0.099 C 
BRANCH   7   8
ATOM      8  C   UNL     1      -1.775  -1.210  25.224  0.00  0.00    -0.003 A 
ATOM      9  C   UNL     1      -1.486  -1.893  24.864  0.00  0.00    +0.000 A 
ATOM     10  C   UNL     1      -1.991  -2.371  24.421  0.00  0.00    +0.040 A 
ATOM     11  C   UNL     1      -2.786  -2.166  24.338  0.00  0.00    +0.172 A 
ATOM     12  O   UNL     1      -3.291  -2.645  23.894  0.00  0.00    -0.468 OA
ATOM     13  C   UNL     1      -4.086  -2.439  23.812  0.00  0.00    +0.253 C 
ATOM     14  C   UNL     1      -4.376  -1.756  24.172  0.00  0.00    +0.253 C 
ATOM     15  O   UNL     1      -3.870  -1.278  24.615  0.00  0.00    -0.468 OA
ATOM     16  C   UNL     1      -3.076  -1.483  24.698  0.00  0.00    +0.172 A 
ATOM     17  C   UNL     1      -2.570  -1.005  25.142  0.00  0.00    +0.037 A 
ENDBRANCH   7   8
ENDBRANCH   6   7
TORSDOF 2
ENDMDL
MODEL 3
REMARK VINA RESULT:     -11.9      2.186      5.788
REMARK  Name = 
REMARK  2 active torsions:
REMARK  status: ('A' for Active; 'I' for Inactive)
REMARK    1  A    between atoms: N_6  and  C_7
REMARK    2  A    between atoms: C_7  and  C_8
REMARK                            x       y       z     vdW  Elec       q    Type
REMARK                         _______ _______ _______ _____ _____    ______ ____
ROOT
ATOM      1  O   UNL     1      -1.004  -1.222  23.823  0.00  0.00    -0.252 OA
ATOM      2  C   UNL     1      -1.245  -0.742  24.449  0.00  0.00    +0.312 C 
ATOM      3  N   UNL     1      -0.887  -0.037  24.686  0.00  0.00    -0.261 N 
ATOM      4  C   UNL     1      -0.233   0.374  24.396  0.00  0.00    +0.112 C 
ATOM      5  C   UNL     1       0.001   1.081  24.753  0.00  0.00    +0.094 C 
ATOM      6  N   UNL     1      -0.419   1.376  25.399  0.00  0.00    -0.266 NA
ATOM     18  C   UNL     1      -1.074   0.964  25.687  0.00  0.00    +0.094 C 
ATOM     19  C   UNL     1      -1.308   0.259  25.331  0.00  0.00    +0.113 C 
ATOM     20  C   UNL     1      -1.925  -0.264  25.494  0.00  0.00    +0.122 C 
ATOM     21  N   UNL     1      -1.886  -0.882  24.949  0.00  0.00    -0.226 N 
ATOM     22  C   UNL     1      -2.399  -1.527  24.910  0.00  0.00    +0.139 A 
ATOM     23  N   UNL     1      -3.020  -1.594  25.450  0.00  0.00    -0.229 NA
ATOM     24  C   UNL     1      -3.532  -2.239  25.411  0.00  0.00    +0.100 A 
ATOM     25  C   UNL     1      -3.425  -2.818  24.832  0.00  0.00    +0.021 A 
ATOM     26  C   UNL     1      -2.804  -2.750  24.293  0.00  0.00    +0.004 A 
ATOM     27  C   UNL     1      -2.292  -2.105  24.332  0.00  0.00    +0.035 A 
ENDROOT
BRANCH   6   7
ATOM      7  C   UNL     1      -0.185   2.082  25.755  0.00  0.00    +0.099 C 
BRANCH   7   8
ATOM      8  C   UNL     1      -0.559   2.790  25.554  0.00  0.00    -0.003 A 
ATOM      9  C   UNL     1      -0.232   3.279  24.977  0.00  0.00    +0.000 A 
ATOM     10  C   UNL     1      -0.605   3.987  24.776  0.00  0.00    +0.040 A 
ATOM     11  C   UNL     1      -1.306   4.205  25.153  0.00  0.00    +0.172 A 
ATOM     12  O   UNL     1      -1.679   4.913  24.952  0.00  0.00    -0.468 OA
ATOM     13  C   UNL     1      -2.380   5.131  25.329  0.00  0.00    +0.253 C 
ATOM     14  C   UNL     1      -2.708   4.641  25.906  0.00  0.00    +0.253 C 
ATOM     15  O   UNL     1      -2.334   3.933  26.107  0.00  0.00    -0.468 OA
ATOM     16  C   UNL     1      -1.634   3.715  25.730  0.00  0.00    +0.172 A 
ATOM     17  C   UNL     1      -1.260   3.008  25.931  0.00  0.00    +0.037 A 
ENDBRANCH   7   8
ENDBRANCH   6   7
TORSDOF 2
ENDMDL
MODEL 4
REMARK VINA RESULT:     -11.9      1.282      5.181
REMARK  Name = 
REMARK  2 active torsions:
REMARK  status: ('A' for Active; 'I' for Inactive)
REMARK    1  A    between atoms: N_6  and  C_7
REMARK    2  A    between atoms: C_7  and  C_8
REMARK                            x       y       z     vdW  Elec       q    Type
REMARK                         _______ _______ _______ _____ _____    ______ ____
ROOT
ATOM      1  O   UNL     1      -4.609  -0.859  25.336  0.00  0.00    -0.252 OA
ATOM      2  C   UNL     1      -4.069  -0.412  24.900  0.00  0.00    +0.312 C 
ATOM      3  N   UNL     1      -4.132   0.393  24.729  0.00  0.00    -0.261 N 
ATOM      4  C   UNL     1      -4.704   0.955  24.924  0.00  0.00    +0.112 C 
ATOM      5  C   UNL     1      -4.616   1.736  24.670  0.00  0.00    +0.094 C 
ATOM      6  N   UNL     1      -3.958   1.954  24.224  0.00  0.00    -0.266 NA
ATOM     18  C   UNL     1      -3.387   1.391  24.030  0.00  0.00    +0.094 C 
ATOM     19  C   UNL     1      -3.474   0.611  24.283  0.00  0.00    +0.113 C 
ATOM     20  C   UNL     1      -3.004  -0.060  24.177  0.00  0.00    +0.122 C 
ATOM     21  N   UNL     1      -3.373  -0.692  24.559  0.00  0.00    -0.226 N 
ATOM     22  C   UNL     1      -3.093  -1.467  24.593  0.00  0.00    +0.139 A 
ATOM     23  N   UNL     1      -2.383  -1.666  24.222  0.00  0.00    -0.229 NA
ATOM     24  C   UNL     1      -2.103  -2.441  24.256  0.00  0.00    +0.100 A 
ATOM     25  C   UNL     1      -2.534  -3.018  24.661  0.00  0.00    +0.021 A 
ATOM     26  C   UNL     1      -3.244  -2.818  25.031  0.00  0.00    +0.004 A 
ATOM     27  C   UNL     1      -3.523  -2.043  24.997  0.00  0.00    +0.035 A 
ENDROOT
BRANCH   6   7
ATOM      7  C   UNL     1      -3.871   2.734  23.971  0.00  0.00    +0.099 C 
BRANCH   7   8
ATOM      8  C   UNL     1      -3.369   3.247  24.378  0.00  0.00    -0.003 A 
ATOM      9  C   UNL     1      -3.664   3.708  24.995  0.00  0.00    +0.000 A 
ATOM     10  C   UNL     1      -3.164   4.222  25.403  0.00  0.00    +0.040 A 
ATOM     11  C   UNL     1      -2.367   4.273  25.193  0.00  0.00    +0.172 A 
ATOM     12  O   UNL     1      -1.866   4.786  25.601  0.00  0.00    -0.468 OA
ATOM     13  C   UNL     1      -1.069   4.838  25.391  0.00  0.00    +0.253 C 
ATOM     14  C   UNL     1      -0.774   4.376  24.774  0.00  0.00    +0.253 C 
ATOM     15  O   UNL     1      -1.276   3.863  24.367  0.00  0.00    -0.468 OA
ATOM     16  C   UNL     1      -2.072   3.811  24.576  0.00  0.00    +0.172 A 
ATOM     17  C   UNL     1      -2.574   3.298  24.169  0.00  0.00    +0.037 A 
ENDBRANCH   7   8
ENDBRANCH   6   7
TORSDOF 2
ENDMDL
MODEL 5
REMARK VINA RESULT:     -10.9      2.216      4.677
REMARK  Name = 
REMARK  2 active torsions:
REMARK  status: ('A' for Active; 'I' for Inactive)
REMARK    1  A    between atoms: N_6  and  C_7
REMARK    2  A    between atoms: C_7  and  C_8
REMARK                            x       y       z     vdW  Elec       q    Type
REMARK                         _______ _______ _______ _____ _____    ______ ____
ROOT
ATOM      1  O   UNL     1      -0.207   0.479  24.664  0.00  0.00    -0.252 OA
ATOM      2  C   UNL     1      -1.013   0.451  24.487  0.00  0.00    +0.312 C 
ATOM      3  N   UNL     1      -1.487   1.094  24.279  0.00  0.00    -0.261 N 
ATOM      4  C   UNL     1      -1.319   1.897  24.191  0.00  0.00    +0.112 C 
ATOM      5  C   UNL     1      -1.918   2.421  23.974  0.00  0.00    +0.094 C 
ATOM      6  N   UNL     1      -2.684   2.142  23.844  0.00  0.00    -0.266 NA
ATOM     18  C   UNL     1      -2.850   1.339  23.932  0.00  0.00    +0.094 C 
ATOM     19  C   UNL     1      -2.252   0.815  24.149  0.00  0.00    +0.113 C 
ATOM     20  C   UNL     1      -2.251  -0.001  24.277  0.00  0.00    +0.122 C 
ATOM     21  N   UNL     1      -1.485  -0.225  24.485  0.00  0.00    -0.226 N 
ATOM     22  C   UNL     1      -1.235  -0.992  24.661  0.00  0.00    +0.139 A 
ATOM     23  N   UNL     1      -1.774  -1.616  24.637  0.00  0.00    -0.229 NA
ATOM     24  C   UNL     1      -1.525  -2.383  24.813  0.00  0.00    +0.100 A 
ATOM     25  C   UNL     1      -0.737  -2.525  25.014  0.00  0.00    +0.021 A 
ATOM     26  C   UNL     1      -0.199  -1.900  25.038  0.00  0.00    +0.004 A 
ATOM     27  C   UNL     1      -0.448  -1.133  24.862  0.00  0.00    +0.035 A 
ENDROOT
BRANCH   6   7
ATOM      7  C   UNL     1      -3.282   2.666  23.627  0.00  0.00    +0.099 C 
BRANCH   7   8
ATOM      8  C   UNL     1      -3.856   2.889  24.177  0.00  0.00    -0.003 A 
ATOM      9  C   UNL     1      -3.779   3.600  24.588  0.00  0.00    +0.000 A 
ATOM     10  C   UNL     1      -4.352   3.824  25.137  0.00  0.00    +0.040 A 
ATOM     11  C   UNL     1      -5.003   3.335  25.276  0.00  0.00    +0.172 A 
ATOM     12  O   UNL     1      -5.576   3.559  25.825  0.00  0.00    -0.468 OA
ATOM     13  C   UNL     1      -6.228   3.071  25.963  0.00  0.00    +0.253 C 
ATOM     14  C   UNL     1      -6.305   2.360  25.552  0.00  0.00    +0.253 C 
ATOM     15  O   UNL     1      -5.731   2.137  25.003  0.00  0.00    -0.468 OA
ATOM     16  C   UNL     1      -5.081   2.624  24.864  0.00  0.00    +0.172 A 
ATOM     17  C   UNL     1      -4.506   2.402  24.315  0.00  0.00    +0.037 A 
ENDBRANCH   7   8
ENDBRANCH   6   7
TORSDOF 2
ENDMDL
MODEL 6
REMARK VINA RESULT:      -9.9      2.339      4.308
REMARK  Name = 
REMARK  2 active torsions:
REMARK  status: ('A' for Active; 'I' for Inactive)
REMARK    1  A    between atoms: N_6  and  C_7
REMARK    2  A    between atoms: C_7  and  C_8
REMARK                            x       y       z     vdW  Elec       q    Type
REMARK                         _______ _______ _______ _____ _____    ______ ____
ROOT
ATOM      1  O   UNL     1      -1.492  -1.185  25.297  0.00  0.00    -0.252 OA
ATOM      2  C   UNL     1      -1.855  -0.616  24.822  0.00  0.00    +0.312 C 
ATOM      3  N   UNL     1      -2.649  -0.395  24.849  0.00  0.00    -0.261 N 
ATOM      4  C   UNL     1      -3.277  -0.651  25.319  0.00  0.00    +0.112 C 
ATOM      5  C   UNL     1      -4.028  -0.322  25.220  0.00  0.00    +0.094 C 
ATOM      6  N   UNL     1      -4.150   0.263  24.651  0.00  0.00    -0.266 NA
ATOM     18  C   UNL     1      -3.521   0.518  24.181  0.00  0.00    +0.094 C 
ATOM     19  C   UNL     1      -2.772   0.190  24.280  0.00  0.00    +0.113 C 
ATOM     20  C   UNL     1      -2.052   0.331  23.901  0.00  0.00    +0.122 C 
ATOM     21  N   UNL     1      -1.486  -0.168  24.236  0.00  0.00    -0.226 N 
ATOM     22  C   UNL     1      -0.690  -0.210  24.022  0.00  0.00    +0.139 A 
ATOM     23  N   UNL     1      -0.399   0.276  23.422  0.00  0.00    -0.229 NA
ATOM     24  C   UNL     1       0.397   0.234  23.208  0.00  0.00    +0.100 A 
ATOM     25  C   UNL     1       0.901  -0.294  23.594  0.00  0.00    +0.021 A 
ATOM     26  C   UNL     1       0.609  -0.779  24.193  0.00  0.00    +0.004 A 
ATOM     27  C   UNL     1      -0.187  -0.737  24.407  0.00  0.00    +0.035 A 
ENDROOT
BRANCH   6   7
ATOM      7  C   UNL     1      -4.899   0.591  24.552  0.00  0.00    +0.099 C 
BRANCH   7   8
ATOM      8  C   UNL     1      -5.093   1.300  24.928  0.00  0.00    -0.003 A 
ATOM      9  C   UNL     1      -5.602   1.295  25.578  0.00  0.00    +0.000 A 
ATOM     10  C   UNL     1      -5.796   2.003  25.955  0.00  0.00    +0.040 A 
ATOM     11  C   UNL     1      -5.482   2.716  25.681  0.00  0.00    +0.172 A 
ATOM     12  O   UNL     1      -5.676   3.423  26.058  0.00  0.00    -0.468 OA
ATOM     13  C   UNL     1      -5.361   4.136  25.784  0.00  0.00    +0.253 C 
ATOM     14  C   UNL     1      -4.853   4.140  25.134  0.00  0.00    +0.253 C 
ATOM     15  O   UNL     1      -4.659   3.432  24.758  0.00  0.00    -0.468 OA
ATOM     16  C   UNL     1      -4.973   2.720  25.031  0.00  0.00    +0.172 A 
ATOM     17  C   UNL     1      -4.779   2.011  24.655  0.00  0.00    +0.037 A 
ENDBRANCH   7   8
ENDBRANCH   6   7
TORSDOF 2
ENDMDL
MODEL 7
REMARK VINA RESULT:      -9.6      1.714      2.620
REMARK  Name = 
REMARK  2 active torsions:
REMARK  status: ('A' for Active; 'I' for Inactive)
REMARK    1  A    between atoms: N_6  and  C_7
REMARK    2  A    between atoms: C_7  and  C_8
REMARK                            x       y       z     vdW  Elec       q    Type
REMARK                         _______ _______ _______ _____ _____    ______ ____
ROOT
ATOM      1  O   UNL     1      -2.112   3.143  23.884  0.00  0.00    -0.252 OA
ATOM      2  C   UNL     1      -2.334   2.545  24.409  0.00  0.00    +0.312 C 
ATOM      3  N   UNL     1      -1.922   1.843  24.547  0.00  0.00    -0.261 N 
ATOM      4  C   UNL     1      -1.221   1.544  24.231  0.00  0.00    +0.112 C 
ATOM      5  C   UNL     1      -0.938   0.809  24.480  0.00  0.00    +0.094 C 
ATOM      6  N   UNL     1      -1.356   0.375  25.044  0.00  0.00    -0.266 NA
ATOM     18  C   UNL     1      -2.057   0.676  25.359  0.00  0.00    +0.094 C 
ATOM     19  C   UNL     1      -2.340   1.410  25.111  0.00  0.00    +0.113 C 
ATOM     20  C   UNL     1      -3.009   1.844  25.322  0.00  0.00    +0.122 C 
ATOM     21  N   UNL     1      -3.005   2.546  24.888  0.00  0.00    -0.226 N 
ATOM     22  C   UNL     1      -3.573   3.143  24.927  0.00  0.00    +0.139 A 
ATOM     23  N   UNL     1      -4.219   3.065  25.435  0.00  0.00    -0.229 NA
ATOM     24  C   UNL     1      -4.787   3.662  25.473  0.00  0.00    +0.100 A 
ATOM     25  C   UNL     1      -4.709   4.337  25.004  0.00  0.00    +0.021 A 
ATOM     26  C   UNL     1      -4.063   4.413  24.496  0.00  0.00    +0.004 A 
ATOM     27  C   UNL     1      -3.495   3.816  24.458  0.00  0.00    +0.035 A 
ENDROOT
BRANCH   6   7
ATOM      7  C   UNL     1      -1.073  -0.358  25.293  0.00  0.00    +0.099 C 
BRANCH   7   8
ATOM      8  C   UNL     1      -1.417  -1.052  25.009  0.00  0.00    -0.003 A 
ATOM      9  C   UNL     1      -1.008  -1.525  24.471  0.00  0.00    +0.000 A 
ATOM     10  C   UNL     1      -1.351  -2.219  24.186  0.00  0.00    +0.040 A 
ATOM     11  C   UNL     1      -2.105  -2.440  24.440  0.00  0.00    +0.172 A 
ATOM     12  O   UNL     1      -2.449  -3.133  24.155  0.00  0.00    -0.468 OA
ATOM     13  C   UNL     1      -3.203  -3.354  24.409  0.00  0.00    +0.253 C 
ATOM     14  C   UNL     1      -3.612  -2.881  24.947  0.00  0.00    +0.253 C 
ATOM     15  O   UNL     1      -3.268  -2.187  25.231  0.00  0.00    -0.468 OA
ATOM     16  C   UNL     1      -2.515  -1.966  24.978  0.00  0.00    +0.172 A 
ATOM     17  C   UNL     1      -2.170  -1.273  25.262  0.00  0.00    +0.037 A 
ENDBRANCH   7   8
ENDBRANCH   6   7
TORSDOF 2
ENDMDL
MODEL 8
REMARK VINA RESULT:      -9.5      2.398      4.114
REMARK  Name = 
REMARK  2 active torsions:
REMARK  status: ('A' for Active; 'I' for Inactive)
REMARK    1  A    between atoms: N_6  and  C_7
REMARK    2  A    between atoms: C_7  and  C_8
REMARK                            x       y       z     vdW  Elec       q    Type
REMARK                         _______ _______ _______ _____ _____    ______ ____
ROOT
ATOM      1  O   UNL     1      -4.027   3.919  25.172  0.00  0.00    -0.252 OA
ATOM      2  C   UNL     1      -3.637   3.197  25.259  0.00  0.00    +0.312 C 
ATOM      3  N   UNL     1      -2.822   3.091  25.332  0.00  0.00    -0.261 N 
ATOM      4  C   UNL     1      -2.195   3.627  25.342  0.00  0.00    +0.112 C 
ATOM      5  C   UNL     1      -1.420   3.354  25.425  0.00  0.00    +0.094 C 
ATOM      6  N   UNL     1      -1.273   2.545  25.498  0.00  0.00    -0.266 NA
ATOM     18  C   UNL     1      -1.901   2.010  25.488  0.00  0.00    +0.094 C 
ATOM     19  C   UNL     1      -2.675   2.283  25.405  0.00  0.00    +0.113 C 
ATOM     20  C   UNL     1      -3.399   1.888  25.377  0.00  0.00    +0.122 C 
ATOM     21  N   UNL     1      -3.994   2.454  25.286  0.00  0.00    -0.226 N 
ATOM     22  C   UNL     1      -4.803   2.302  25.233  0.00  0.00    +0.139 A 
ATOM     23  N   UNL     1      -5.080   1.525  25.270  0.00  0.00    -0.229 NA
ATOM     24  C   UNL     1      -5.889   1.374  25.216  0.00  0.00    +0.100 A 
ATOM     25  C   UNL     1      -6.421   1.998  25.126  0.00  0.00    +0.021 A 
ATOM     26  C   UNL     1      -6.143   2.774  25.090  0.00  0.00    +0.004 A 
ATOM     27  C   UNL     1      -5.334   2.926  25.143  0.00  0.00    +0.035 A 
ENDROOT
BRANCH   6   7
ATOM      7  C   UNL     1      -0.500   2.273  25.580  0.00  0.00    +0.099 C 
BRANCH   7   8
ATOM      8  C   UNL     1      -0.146   1.841  24.973  0.00  0.00    -0.003 A 
ATOM      9  C   UNL     1       0.349   2.220  24.432  0.00  0.00    +0.000 A 
ATOM     10  C   UNL     1       0.703   1.789  23.824  0.00  0.00    +0.040 A 
ATOM     11  C   UNL     1       0.561   0.979  23.757  0.00  0.00    +0.172 A 
ATOM     12  O   UNL     1       0.915   0.548  23.148  0.00  0.00    -0.468 OA
ATOM     13  C   UNL     1       0.773  -0.263  23.081  0.00  0.00    +0.253 C 
ATOM     14  C   UNL     1       0.278  -0.641  23.621  0.00  0.00    +0.253 C 
ATOM     15  O   UNL     1      -0.076  -0.209  24.229  0.00  0.00    -0.468 OA
ATOM     16  C   UNL     1       0.066   0.600  24.297  0.00  0.00    +0.172 A 
ATOM     17  C   UNL     1      -0.288   1.032  24.905  0.00  0.00    +0.037 A 
ENDBRANCH   7   8
ENDBRANCH   6   7
TORSDOF 2
ENDMDL
MODEL 9
REMARK VINA RESULT:      -9.4      5.097      6.664
REMARK  Name = 
REMARK  2 active torsions:
REMARK  status: ('A' for Active; 'I' for Inactive)
REMARK    1  A    between atoms: N_6  and  C_7
REMARK    2  A    between atoms: C_7  and  C_8
REMARK                            x       y       z     vdW  Elec       q    Type
REMARK                         _______ _______ _______ _____ _____    ______ ____
ROOT
ATOM      1  O   UNL     1      -0.782   0.899  24.938  0.00  0.00    -0.252 OA
ATOM      2  C   UNL     1      -0.465   0.313  24.450  0.00  0.00    +0.312 C 
ATOM      3  N   UNL     1       0.200   0.390  23.968  0.00  0.00    -0.261 N 
ATOM      4  C   UNL     1       0.714   1.022  23.834  0.00  0.00    +0.112 C 
ATOM      5  C   UNL     1       1.346   0.935  23.310  0.00  0.00    +0.094 C 
ATOM      6  N   UNL     1       1.463   0.217  22.921  0.00  0.00    -0.266 NA
ATOM     18  C   UNL     1       0.949  -0.414  23.056  0.00  0.00    +0.094 C 
ATOM     19  C   UNL     1       0.318  -0.328  23.579  0.00  0.00    +0.113 C 
ATOM     20  C   UNL     1      -0.275  -0.849  23.820  0.00  0.00    +0.122 C 
ATOM     21  N   UNL     1      -0.759  -0.452  24.359  0.00  0.00    -0.226 N 
ATOM     22  C   UNL     1      -1.420  -0.767  24.739  0.00  0.00    +0.139 A 
ATOM     23  N   UNL     1      -1.649  -1.546  24.592  0.00  0.00    -0.229 NA
ATOM     24  C   UNL     1      -2.310  -1.861  24.972  0.00  0.00    +0.100 A 
ATOM     25  C   UNL     1      -2.743  -1.396  25.499  0.00  0.00    +0.021 A 
ATOM     26  C   UNL     1      -2.514  -0.617  25.646  0.00  0.00    +0.004 A 
ATOM     27  C   UNL     1      -1.852  -0.303  25.266  0.00  0.00    +0.035 A 
ENDROOT
BRANCH   6   7
ATOM      7  C   UNL     1       2.094   0.131  22.398  0.00  0.00    +0.099 C 
BRANCH   7   8
ATOM      8  C   UNL     1       2.869   0.224  22.665  0.00  0.00    -0.003 A 
ATOM      9  C   UNL     1       3.254   0.947  22.568  0.00  0.00    +0.000 A 
ATOM     10  C   UNL     1       4.029   1.042  22.835  0.00  0.00    +0.040 A 
ATOM     11  C   UNL     1       4.419   0.412  23.200  0.00  0.00    +0.172 A 
ATOM     12  O   UNL     1       5.193   0.507  23.468  0.00  0.00    -0.468 OA
ATOM     13  C   UNL     1       5.583  -0.122  23.833  0.00  0.00    +0.253 C 
ATOM     14  C   UNL     1       5.198  -0.846  23.930  0.00  0.00    +0.253 C 
ATOM     15  O   UNL     1       4.423  -0.939  23.662  0.00  0.00    -0.468 OA
ATOM     16  C   UNL     1       4.034  -0.311  23.298  0.00  0.00    +0.172 A 
ATOM     17  C   UNL     1       3.259  -0.404  23.030  0.00  0.00    +0.037 A 
ENDBRANCH   7   8
ENDBRANCH   6   7
TORSDOF 2
ENDMDL
MODEL 10
REMARK VINA RESULT:      -9.3     15.060     17.417
REMARK  Name = 
REMARK  2 active torsions:
REMARK  status: ('A' for Active; 'I' for Inactive)
REMARK    1  A    between atoms: N_6  and  C_7
REMARK    2  A    between atoms: C_7  and  C_8
REMARK                            x       y       z     vdW  Elec       q    Type
REMARK                         _______ _______ _______ _____ _____    ______ ____
ROOT
ATOM      1  O   UNL     1      -1.370 -10.355  14.211  0.00  0.00    -0.252 OA
ATOM      2  C   UNL     1      -2.107 -10.498  13.867  0.00  0.00    +0.312 C 
ATOM      3  N   UNL     1      -2.265 -10.537  13.058  0.00  0.00    -0.261 N 
ATOM      4  C   UNL     1      -1.780 -10.453  12.396  0.00  0.00    +0.112 C 
ATOM      5  C   UNL     1      -2.100 -10.523  11.638  0.00  0.00    +0.094 C 
ATOM      6  N   UNL     1      -2.905 -10.676  11.543  0.00  0.00    -0.266 NA
ATOM     18  C   UNL     1      -3.390 -10.760  12.206  0.00  0.00    +0.094 C 
ATOM     19  C   UNL     1      -3.070 -10.691  12.962  0.00  0.00    +0.113 C 
ATOM     20  C   UNL     1      -3.410 -10.746  13.713  0.00  0.00    +0.122 C 
ATOM     21  N   UNL     1      -2.814 -10.627  14.272  0.00  0.00    -0.226 N 
ATOM     22  C   UNL     1      -2.909 -10.636  15.091  0.00  0.00    +0.139 A 
ATOM     23  N   UNL     1      -3.654 -10.773  15.418  0.00  0.00    -0.229 NA
ATOM     24  C   UNL     1      -3.750 -10.781  16.237  0.00  0.00    +0.100 A 
ATOM     25  C   UNL     1      -3.100 -10.653  16.730  0.00  0.00    +0.021 A 
ATOM     26  C   UNL     1      -2.355 -10.516  16.402  0.00  0.00    +0.004 A 
ATOM     27  C   UNL     1      -2.260 -10.507  15.583  0.00  0.00    +0.035 A 
ENDROOT
BRANCH   6   7
ATOM      7  C   UNL     1      -3.225 -10.745  10.786  0.00  0.00    +0.099 C 
BRANCH   7   8
ATOM      8  C   UNL     1      -3.645 -10.117  10.456  0.00  0.00    -0.003 A 
ATOM      9  C   UNL     1      -3.241  -9.497  10.091  0.00  0.00    +0.000 A 
ATOM     10  C   UNL     1      -3.660  -8.868   9.761  0.00  0.00    +0.040 A 
ATOM     11  C   UNL     1      -4.485  -8.859   9.795  0.00  0.00    +0.172 A 
ATOM     12  O   UNL     1      -4.904  -8.231   9.465  0.00  0.00    -0.468 OA
ATOM     13  C   UNL     1      -5.729  -8.222   9.500  0.00  0.00    +0.253 C 
ATOM     14  C   UNL     1      -6.133  -8.841   9.864  0.00  0.00    +0.253 C 
ATOM     15  O   UNL     1      -5.713  -9.470  10.195  0.00  0.00    -0.468 OA
ATOM     16  C   UNL     1      -4.889  -9.479  10.160  0.00  0.00    +0.172 A 
ATOM     17  C   UNL     1      -4.469 -10.108  10.491  0.00  0.00    +0.037 A 
ENDBRANCH   7   8
ENDBRANCH   6   7
TORSDOF 2
ENDMDL
