MODEL 1
REMARK VINA RESULT:      -9.3      0.000      0.000
REMARK  Name = 
REMARK  5 active torsions:
REMARK  status: ('A' for Active; 'I' for Inactive)
REMARK    1  A    between atoms: N_2  and  C_4
REMARK    2  A    between atoms: C_7  and  C_10
REMARK    3  A    between atoms: C_13  and  C_15
REMARK    4  A    between atoms: N_18  and  C_20
REMARK    5  A    between atoms: C_23  and  C_26
REMARK                            x       y       z     vdW  Elec       q    Type
REMARK                         _______ _______ _______ _____ _____    ______ ____
ROOT
ATOM     10  C   UNL     1      -4.386   0.138  24.929  0.00  0.00    +0.250 A 
ATOM     11  N   UNL     1      -5.165   0.366  25.081  0.00  0.00    -0.107 NA
ATOM     12  N   UNL     1      -5.175   1.185  25.180  0.00  0.00    -0.111 NA
ATOM     13  C   UNL     1      -4.404   1.463  25.088  0.00  0.00    +0.228 A 
ATOM     14  O   UNL     1      -3.916   0.815  24.933  0.00  0.00    -0.419 OA
ENDROOT
BRANCH  10   7
ATOM      4  C   UNL     1      -3.601  -2.175  24.530  0.00  0.00    +0.048 A 
ATOM      5  C   UNL     1      -3.455  -1.809  25.255  0.00  0.00    +0.015 A 
ATOM      6  C   UNL     1      -3.717  -1.038  25.388  0.00  0.00    +0.006 A 
ATOM      7  C   UNL     1      -4.125  -0.633  24.796  0.00  0.00    +0.055 A 
ATOM      8  C   UNL     1      -4.271  -0.999  24.072  0.00  0.00    +0.006 A 
ATOM      9  C   UNL     1      -4.009  -1.770  23.938  0.00  0.00    +0.015 A 
BRANCH   4   2
ATOM      1  C   UNL     1      -3.885  -3.551  24.269  0.00  0.00    +0.112 C 
ATOM      2  N   UNL     1      -3.339  -2.947  24.397  0.00  0.00    -0.304 N 
ATOM      3  C   UNL     1      -2.531  -3.112  24.392  0.00  0.00    +0.112 C 
ENDBRANCH   4   2
ENDBRANCH  10   7
BRANCH  13  15
ATOM     15  C   UNL     1      -4.162   2.249  25.142  0.00  0.00    +0.100 C 
ATOM     16  C   UNL     1      -4.645   2.894  25.321  0.00  0.00    +0.032 C 
ATOM     17  C   UNL     1      -4.177   3.573  25.316  0.00  0.00    +0.093 C 
ATOM     18  N   UNL     1      -3.403   3.348  25.134  0.00  0.00    -0.293 N 
ATOM     19  C   UNL     1      -3.395   2.530  25.027  0.00  0.00    +0.101 C 
BRANCH  18  20
ATOM     20  C   UNL     1      -2.753   3.853  25.071  0.00  0.00    +0.132 A 
ATOM     21  C   UNL     1      -2.756   4.579  25.462  0.00  0.00    +0.035 A 
ATOM     22  C   UNL     1      -2.106   5.084  25.399  0.00  0.00    +0.015 A 
ATOM     23  C   UNL     1      -1.454   4.862  24.945  0.00  0.00    +0.088 A 
ATOM     24  C   UNL     1      -1.452   4.135  24.555  0.00  0.00    +0.111 A 
ATOM     25  N   UNL     1      -2.101   3.631  24.617  0.00  0.00    -0.228 NA
BRANCH  23  26
ATOM     26  C   UNL     1      -0.805   5.366  24.882  0.00  0.00    +0.102 C 
ATOM     27  N   UNL     1      -0.155   5.871  24.819  0.00  0.00    -0.191 NA
ENDBRANCH  23  26
ENDBRANCH  18  20
ENDBRANCH  13  15
TORSDOF 5
ENDMDL
MODEL 2
REMARK VINA RESULT:      -8.4      0.857      5.909
REMARK  Name = 
REMARK  5 active torsions:
REMARK  status: ('A' for Active; 'I' for Inactive)
REMARK    1  A    between atoms: N_2  and  C_4
REMARK    2  A    between atoms: C_7  and  C_10
REMARK    3  A    between atoms: C_13  and  C_15
REMARK    4  A    between atoms: N_18  and  C_20
REMARK    5  A    between atoms: C_23  and  C_26
REMARK                            x       y       z     vdW  Elec       q    Type
REMARK                         _______ _______ _______ _____ _____    ______ ____
ROOT
ATOM     10  C   UNL     1      -3.640   3.251  25.180  0.00  0.00    +0.250 A 
ATOM     11  N   UNL     1      -4.417   3.451  25.374  0.00  0.00    -0.107 NA
ATOM     12  N   UNL     1      -4.868   2.761  25.362  0.00  0.00    -0.111 NA
ATOM     13  C   UNL     1      -4.370   2.134  25.161  0.00  0.00    +0.228 A 
ATOM     14  O   UNL     1      -3.611   2.438  25.048  0.00  0.00    -0.419 OA
ENDROOT
BRANCH  10   7
ATOM      4  C   UNL     1      -1.732   4.819  25.020  0.00  0.00    +0.048 A 
ATOM      5  C   UNL     1      -2.001   4.571  25.760  0.00  0.00    +0.015 A 
ATOM      6  C   UNL     1      -2.637   4.048  25.813  0.00  0.00    +0.006 A 
ATOM      7  C   UNL     1      -3.004   3.774  25.127  0.00  0.00    +0.055 A 
ATOM      8  C   UNL     1      -2.735   4.023  24.388  0.00  0.00    +0.006 A 
ATOM      9  C   UNL     1      -2.099   4.546  24.335  0.00  0.00    +0.015 A 
BRANCH   4   2
ATOM      1  C   UNL     1      -0.329   5.052  24.878  0.00  0.00    +0.112 C 
ATOM      2  N   UNL     1      -1.096   5.343  24.967  0.00  0.00    -0.304 N 
ATOM      3  C   UNL     1      -1.227   6.157  25.003  0.00  0.00    +0.112 C 
ENDBRANCH   4   2
ENDBRANCH  10   7
BRANCH  13  15
ATOM     15  C   UNL     1      -4.592   1.343  25.085  0.00  0.00    +0.100 C 
ATOM     16  C   UNL     1      -5.359   1.047  25.147  0.00  0.00    +0.032 C 
ATOM     17  C   UNL     1      -5.327   0.230  25.035  0.00  0.00    +0.093 C 
ATOM     18  N   UNL     1      -4.539   0.022  24.904  0.00  0.00    -0.293 N 
ATOM     19  C   UNL     1      -4.085   0.710  24.935  0.00  0.00    +0.101 C 
BRANCH  18  20
ATOM     20  C   UNL     1      -4.256  -0.741  24.766  0.00  0.00    +0.132 A 
ATOM     21  C   UNL     1      -4.392  -1.106  24.038  0.00  0.00    +0.035 A 
ATOM     22  C   UNL     1      -4.109  -1.868  23.900  0.00  0.00    +0.015 A 
ATOM     23  C   UNL     1      -3.689  -2.266  24.489  0.00  0.00    +0.088 A 
ATOM     24  C   UNL     1      -3.554  -1.900  25.216  0.00  0.00    +0.111 A 
ATOM     25  N   UNL     1      -3.837  -1.138  25.355  0.00  0.00    -0.228 NA
BRANCH  23  26
ATOM     26  C   UNL     1      -3.406  -3.027  24.351  0.00  0.00    +0.102 C 
ATOM     27  N   UNL     1      -3.123  -3.790  24.212  0.00  0.00    -0.191 NA
ENDBRANCH  23  26
ENDBRANCH  18  20
ENDBRANCH  13  15
TORSDOF 5
ENDMDL
MODEL 3
REMARK VINA RESULT:      -8.3      3.203      4.358
REMARK  Name = 
REMARK  5 active torsions:
REMARK  status: ('A' for Active; 'I' for Inactive)
REMARK    1  A    between atoms: N_2  and  C_4
REMARK    2  A    between atoms: C_7  and  C_10
REMARK    3  A    between atoms: C_13  and  C_15
REMARK    4  A    between atoms: N_18  and  C_20
REMARK    5  A    between atoms: C_23  and  C_26
REMARK                            x       y       z     vdW  Elec       q    Type
REMARK                         _______ _______ _______ _____ _____    ______ ____
ROOT
ATOM     10  C   UNL     1      -0.834  -0.008  24.304  0.00  0.00    +0.250 A 
ATOM     11  N   UNL     1      -0.974  -0.475  24.969  0.00  0.00    -0.107 NA
ATOM     12  N   UNL     1      -1.755  -0.350  25.207  0.00  0.00    -0.111 NA
ATOM     13  C   UNL     1      -2.095   0.194  24.689  0.00  0.00    +0.228 A 
ATOM     14  O   UNL     1      -1.525   0.406  24.131  0.00  0.00    -0.419 OA
ENDROOT
BRANCH  10   7
ATOM      4  C   UNL     1       1.294   0.128  23.048  0.00  0.00    +0.048 A 
ATOM      5  C   UNL     1       0.873  -0.581  23.069  0.00  0.00    +0.015 A 
ATOM      6  C   UNL     1       0.163  -0.626  23.487  0.00  0.00    +0.006 A 
ATOM      7  C   UNL     1      -0.125   0.037  23.885  0.00  0.00    +0.055 A 
ATOM      8  C   UNL     1       0.298   0.746  23.864  0.00  0.00    +0.006 A 
ATOM      9  C   UNL     1       1.007   0.791  23.445  0.00  0.00    +0.015 A 
BRANCH   4   2
ATOM      1  C   UNL     1       2.064  -0.168  21.881  0.00  0.00    +0.112 C 
ATOM      2  N   UNL     1       2.005   0.174  22.629  0.00  0.00    -0.304 N 
ATOM      3  C   UNL     1       2.654   0.561  22.959  0.00  0.00    +0.112 C 
ENDBRANCH   4   2
ENDBRANCH  10   7
BRANCH  13  15
ATOM     15  C   UNL     1      -2.869   0.478  24.723  0.00  0.00    +0.100 C 
ATOM     16  C   UNL     1      -3.551   0.048  24.544  0.00  0.00    +0.032 C 
ATOM     17  C   UNL     1      -4.201   0.545  24.652  0.00  0.00    +0.093 C 
ATOM     18  N   UNL     1      -3.921   1.281  24.899  0.00  0.00    -0.293 N 
ATOM     19  C   UNL     1      -3.097   1.239  24.943  0.00  0.00    +0.101 C 
BRANCH  18  20
ATOM     20  C   UNL     1      -4.383   1.943  25.071  0.00  0.00    +0.132 A 
ATOM     21  C   UNL     1      -5.166   1.848  25.311  0.00  0.00    +0.035 A 
ATOM     22  C   UNL     1      -5.628   2.510  25.483  0.00  0.00    +0.015 A 
ATOM     23  C   UNL     1      -5.306   3.266  25.416  0.00  0.00    +0.088 A 
ATOM     24  C   UNL     1      -4.522   3.361  25.176  0.00  0.00    +0.111 A 
ATOM     25  N   UNL     1      -4.061   2.700  25.003  0.00  0.00    -0.228 NA
BRANCH  23  26
ATOM     26  C   UNL     1      -5.768   3.927  25.588  0.00  0.00    +0.102 C 
ATOM     27  N   UNL     1      -6.230   4.589  25.760  0.00  0.00    -0.191 NA
ENDBRANCH  23  26
ENDBRANCH  18  20
ENDBRANCH  13  15
TORSDOF 5
ENDMDL
MODEL 4
REMARK VINA RESULT:      -8.2      1.873      2.467
REMARK  Name = 
REMARK  5 active torsions:
REMARK  status: ('A' for Active; 'I' for Inactive)
REMARK    1  A    between atoms: N_2  and  C_4
REMARK    2  A    between atoms: C_7  and  C_10
REMARK    3  A    between atoms: C_13  and  C_15
REMARK    4  A    between atoms: N_18  and  C_20
REMARK    5  A    between atoms: C_23  and  C_26
REMARK                            x       y       z     vdW  Elec       q    Type
REMARK                         _______ _______ _______ _____ _____    ______ ____
ROOT
ATOM     10  C   UNL     1      -1.803  -0.640  25.383  0.00  0.00    +0.250 A 
ATOM     11  N   UNL     1      -1.287  -0.765  26.015  0.00  0.00    -0.107 NA
ATOM     12  N   UNL     1      -0.867  -0.065  26.141  0.00  0.00    -0.111 NA
ATOM     13  C   UNL     1      -1.124   0.490  25.587  0.00  0.00    +0.228 A 
ATOM     14  O   UNL     1      -1.703   0.134  25.119  0.00  0.00    -0.419 OA
ENDROOT
BRANCH  10   7
ATOM      4  C   UNL     1      -3.378  -2.304  24.446  0.00  0.00    +0.048 A 
ATOM      5  C   UNL     1      -2.564  -2.422  24.376  0.00  0.00    +0.015 A 
ATOM      6  C   UNL     1      -2.039  -1.867  24.688  0.00  0.00    +0.006 A 
ATOM      7  C   UNL     1      -2.328  -1.195  25.071  0.00  0.00    +0.055 A 
ATOM      8  C   UNL     1      -3.142  -1.078  25.140  0.00  0.00    +0.006 A 
ATOM      9  C   UNL     1      -3.666  -1.633  24.827  0.00  0.00    +0.015 A 
BRANCH   4   2
ATOM      1  C   UNL     1      -4.514  -2.614  23.636  0.00  0.00    +0.112 C 
ATOM      2  N   UNL     1      -3.903  -2.859  24.133  0.00  0.00    -0.304 N 
ATOM      3  C   UNL     1      -3.816  -3.659  24.318  0.00  0.00    +0.112 C 
ENDBRANCH   4   2
ENDBRANCH  10   7
BRANCH  13  15
ATOM     15  C   UNL     1      -0.851   1.264  25.515  0.00  0.00    +0.100 C 
ATOM     16  C   UNL     1      -0.060   1.500  25.493  0.00  0.00    +0.032 C 
ATOM     17  C   UNL     1      -0.040   2.320  25.416  0.00  0.00    +0.093 C 
ATOM     18  N   UNL     1      -0.819   2.593  25.389  0.00  0.00    -0.293 N 
ATOM     19  C   UNL     1      -1.320   1.940  25.450  0.00  0.00    +0.101 C 
BRANCH  18  20
ATOM     20  C   UNL     1      -1.055   3.381  25.315  0.00  0.00    +0.132 A 
ATOM     21  C   UNL     1      -0.569   3.921  24.925  0.00  0.00    +0.035 A 
ATOM     22  C   UNL     1      -0.805   4.709  24.850  0.00  0.00    +0.015 A 
ATOM     23  C   UNL     1      -1.527   4.954  25.166  0.00  0.00    +0.088 A 
ATOM     24  C   UNL     1      -2.012   4.413  25.556  0.00  0.00    +0.111 A 
ATOM     25  N   UNL     1      -1.776   3.626  25.631  0.00  0.00    -0.228 NA
BRANCH  23  26
ATOM     26  C   UNL     1      -1.762   5.741  25.091  0.00  0.00    +0.102 C 
ATOM     27  N   UNL     1      -1.998   6.528  25.016  0.00  0.00    -0.191 NA
ENDBRANCH  23  26
ENDBRANCH  18  20
ENDBRANCH  13  15
TORSDOF 5
ENDMDL
MODEL 5
REMARK VINA RESULT:      -8.1      1.868      6.379
REMARK  Name = 
REMARK  5 active torsions:
REMARK  status: ('A' for Active; 'I' for Inactive)
REMARK    1  A    between atoms: N_2  and  C_4
REMARK    2  A    between atoms: C_7  and  C_10
REMARK    3  A    between atoms: C_13  and  C_15
REMARK    4  A    between atoms: N_18  and  C_20
REMARK    5  A    between atoms: C_23  and  C_26
REMARK                            x       y       z     vdW  Elec       q    Type
REMARK                         _______ _______ _______ _____ _____    ______ ____
ROOT
ATOM     10  C   UNL     1      -0.836   2.209  25.381  0.00  0.00    +0.250 A 
ATOM     11  N   UNL     1      -0.091   1.871  25.485  0.00  0.00    -0.107 NA
ATOM     12  N   UNL     1      -0.189   1.052  25.533  0.00  0.00    -0.111 NA
ATOM     13  C   UNL     1      -0.994   0.887  25.459  0.00  0.00    +0.228 A 
ATOM     14  O   UNL     1      -1.394   1.603  25.365  0.00  0.00    -0.419 OA
ENDROOT
BRANCH  10   7
ATOM      4  C   UNL     1      -1.313   4.628  25.156  0.00  0.00    +0.048 A 
ATOM      5  C   UNL     1      -1.770   4.163  25.662  0.00  0.00    +0.015 A 
ATOM      6  C   UNL     1      -1.611   3.357  25.737  0.00  0.00    +0.006 A 
ATOM      7  C   UNL     1      -0.995   3.016  25.306  0.00  0.00    +0.055 A 
ATOM      8  C   UNL     1      -0.539   3.481  24.801  0.00  0.00    +0.006 A 
ATOM      9  C   UNL     1      -0.698   4.287  24.726  0.00  0.00    +0.015 A 
BRANCH   4   2
ATOM      1  C   UNL     1      -0.893   5.943  24.789  0.00  0.00    +0.112 C 
ATOM      2  N   UNL     1      -1.472   5.435  25.081  0.00  0.00    -0.304 N 
ATOM      3  C   UNL     1      -2.211   5.731  25.299  0.00  0.00    +0.112 C 
ENDBRANCH   4   2
ENDBRANCH  10   7
BRANCH  13  15
ATOM     15  C   UNL     1      -1.338   0.138  25.476  0.00  0.00    +0.100 C 
ATOM     16  C   UNL     1      -1.143  -0.474  25.993  0.00  0.00    +0.032 C 
ATOM     17  C   UNL     1      -1.622  -1.122  25.816  0.00  0.00    +0.093 C 
ATOM     18  N   UNL     1      -2.115  -0.910  25.189  0.00  0.00    -0.293 N 
ATOM     19  C   UNL     1      -1.939  -0.131  24.978  0.00  0.00    +0.101 C 
BRANCH  18  20
ATOM     20  C   UNL     1      -2.683  -1.391  24.834  0.00  0.00    +0.132 A 
ATOM     21  C   UNL     1      -3.441  -1.098  24.691  0.00  0.00    +0.035 A 
ATOM     22  C   UNL     1      -4.009  -1.580  24.336  0.00  0.00    +0.015 A 
ATOM     23  C   UNL     1      -3.819  -2.354  24.124  0.00  0.00    +0.088 A 
ATOM     24  C   UNL     1      -3.061  -2.647  24.267  0.00  0.00    +0.111 A 
ATOM     25  N   UNL     1      -2.493  -2.166  24.622  0.00  0.00    -0.228 NA
BRANCH  23  26
ATOM     26  C   UNL     1      -4.387  -2.835  23.769  0.00  0.00    +0.102 C 
ATOM     27  N   UNL     1      -4.956  -3.317  23.415  0.00  0.00    -0.191 NA
ENDBRANCH  23  26
ENDBRANCH  18  20
ENDBRANCH  13  15
TORSDOF 5
ENDMDL
MODEL 6
REMARK VINA RESULT:      -8.0      3.365      4.919
REMARK  Name = 
REMARK  5 active torsions:
REMARK  status: ('A' for Active; 'I' for Inactive)
REMARK    1  A    between atoms: N_2  and  C_4
REMARK    2  A    between atoms: C_7  and  C_10
REMARK    3  A    between atoms: C_13  and  C_15
REMARK    4  A    between atoms: N_18  and  C_20
REMARK    5  A    between atoms: C_23  and  C_26
REMARK                            x       y       z     vdW  Elec       q    Type
REMARK                         _______ _______ _______ _____ _____    ______ ____
ROOT
ATOM     10  C   UNL     1      -3.400   0.907  24.464  0.00  0.00    +0.250 A 
ATOM     11  N   UNL     1      -3.607   0.241  24.023  0.00  0.00    -0.107 NA
ATOM     12  N   UNL     1      -2.919  -0.190  23.875  0.00  0.00    -0.111 NA
ATOM     13  C   UNL     1      -2.288   0.211  24.224  0.00  0.00    +0.228 A 
ATOM     14  O   UNL     1      -2.585   0.889  24.588  0.00  0.00    -0.419 OA
ENDROOT
BRANCH  10   7
ATOM      4  C   UNL     1      -4.954   2.656  25.272  0.00  0.00    +0.048 A 
ATOM      5  C   UNL     1      -5.165   1.860  25.327  0.00  0.00    +0.015 A 
ATOM      6  C   UNL     1      -4.647   1.277  25.057  0.00  0.00    +0.006 A 
ATOM      7  C   UNL     1      -3.918   1.490  24.733  0.00  0.00    +0.055 A 
ATOM      8  C   UNL     1      -3.708   2.286  24.679  0.00  0.00    +0.006 A 
ATOM      9  C   UNL     1      -4.227   2.869  24.948  0.00  0.00    +0.015 A 
BRANCH   4   2
ATOM      1  C   UNL     1      -5.259   4.034  25.496  0.00  0.00    +0.112 C 
ATOM      2  N   UNL     1      -5.473   3.239  25.541  0.00  0.00    -0.304 N 
ATOM      3  C   UNL     1      -6.205   3.026  25.856  0.00  0.00    +0.112 C 
ENDBRANCH   4   2
ENDBRANCH  10   7
BRANCH  13  15
ATOM     15  C   UNL     1      -1.497  -0.025  24.211  0.00  0.00    +0.100 C 
ATOM     16  C   UNL     1      -1.172  -0.652  24.639  0.00  0.00    +0.032 C 
ATOM     17  C   UNL     1      -0.367  -0.691  24.462  0.00  0.00    +0.093 C 
ATOM     18  N   UNL     1      -0.195  -0.088  23.924  0.00  0.00    -0.293 N 
ATOM     19  C   UNL     1      -0.894   0.323  23.769  0.00  0.00    +0.101 C 
BRANCH  18  20
ATOM     20  C   UNL     1       0.545   0.075  23.598  0.00  0.00    +0.132 A 
ATOM     21  C   UNL     1       0.956   0.752  23.826  0.00  0.00    +0.035 A 
ATOM     22  C   UNL     1       1.697   0.915  23.500  0.00  0.00    +0.015 A 
ATOM     23  C   UNL     1       2.026   0.400  22.946  0.00  0.00    +0.088 A 
ATOM     24  C   UNL     1       1.614  -0.278  22.718  0.00  0.00    +0.111 A 
ATOM     25  N   UNL     1       0.874  -0.440  23.044  0.00  0.00    -0.228 NA
BRANCH  23  26
ATOM     26  C   UNL     1       2.765   0.563  22.621  0.00  0.00    +0.102 C 
ATOM     27  N   UNL     1       3.506   0.726  22.295  0.00  0.00    -0.191 NA
ENDBRANCH  23  26
ENDBRANCH  18  20
ENDBRANCH  13  15
TORSDOF 5
ENDMDL
MODEL 7
REMARK VINA RESULT:      -7.7      4.784      5.979
REMARK  Name = 
REMARK  5 active torsions:
REMARK  status: ('A' for Active; 'I' for Inactive)
REMARK    1  A    between atoms: N_2  and  C_4
REMARK    2  A    between atoms: C_7  and  C_10
REMARK    3  A    between atoms: C_13  and  C_15
REMARK    4  A    between atoms: N_18  and  C_20
REMARK    5  A    between atoms: C_23  and  C_26
REMARK                            x       y       z     vdW  Elec       q    Type
REMARK                         _______ _______ _______ _____ _____    ______ ____
ROOT
ATOM     10  C   UNL     1      -1.246   0.760  24.030  0.00  0.00    +0.250 A 
ATOM     11  N   UNL     1      -1.124   0.054  24.438  0.00  0.00    -0.107 NA
ATOM     12  N   UNL     1      -0.411  -0.271  24.176  0.00  0.00    -0.111 NA
ATOM     13  C   UNL     1      -0.094   0.236  23.607  0.00  0.00    +0.228 A 
ATOM     14  O   UNL     1      -0.610   0.873  23.517  0.00  0.00    -0.419 OA
ENDROOT
BRANCH  10   7
ATOM      4  C   UNL     1      -3.183   2.277  24.300  0.00  0.00    +0.048 A 
ATOM      5  C   UNL     1      -3.145   1.768  23.652  0.00  0.00    +0.015 A 
ATOM      6  C   UNL     1      -2.500   1.263  23.562  0.00  0.00    +0.006 A 
ATOM      7  C   UNL     1      -1.891   1.266  24.120  0.00  0.00    +0.055 A 
ATOM      8  C   UNL     1      -1.930   1.775  24.768  0.00  0.00    +0.006 A 
ATOM      9  C   UNL     1      -2.576   2.281  24.858  0.00  0.00    +0.015 A 
BRANCH   4   2
ATOM      1  C   UNL     1      -4.566   2.478  24.600  0.00  0.00    +0.112 C 
ATOM      2  N   UNL     1      -3.829   2.783  24.390  0.00  0.00    -0.304 N 
ATOM      3  C   UNL     1      -3.737   3.595  24.270  0.00  0.00    +0.112 C 
ENDBRANCH   4   2
ENDBRANCH  10   7
BRANCH  13  15
ATOM     15  C   UNL     1       0.614   0.125  23.200  0.00  0.00    +0.100 C 
ATOM     16  C   UNL     1       0.689  -0.105  22.411  0.00  0.00    +0.032 C 
ATOM     17  C   UNL     1       1.494  -0.148  22.233  0.00  0.00    +0.093 C 
ATOM     18  N   UNL     1       1.916   0.055  22.912  0.00  0.00    -0.293 N 
ATOM     19  C   UNL     1       1.373   0.224  23.510  0.00  0.00    +0.101 C 
BRANCH  18  20
ATOM     20  C   UNL     1       2.738   0.085  22.982  0.00  0.00    +0.132 A 
ATOM     21  C   UNL     1       3.143   0.780  22.798  0.00  0.00    +0.035 A 
ATOM     22  C   UNL     1       3.965   0.809  22.868  0.00  0.00    +0.015 A 
ATOM     23  C   UNL     1       4.381   0.144  23.121  0.00  0.00    +0.088 A 
ATOM     24  C   UNL     1       3.976  -0.551  23.304  0.00  0.00    +0.111 A 
ATOM     25  N   UNL     1       3.155  -0.581  23.235  0.00  0.00    -0.228 NA
BRANCH  23  26
ATOM     26  C   UNL     1       5.202   0.173  23.190  0.00  0.00    +0.102 C 
ATOM     27  N   UNL     1       6.024   0.203  23.260  0.00  0.00    -0.191 NA
ENDBRANCH  23  26
ENDBRANCH  18  20
ENDBRANCH  13  15
TORSDOF 5
ENDMDL
MODEL 8
REMARK VINA RESULT:      -7.6     14.600     17.165
REMARK  Name = 
REMARK  5 active torsions:
REMARK  status: ('A' for Active; 'I' for Inactive)
REMARK    1  A    between atoms: N_2  and  C_4
REMARK    2  A    between atoms: C_7  and  C_10
REMARK    3  A    between atoms: C_13  and  C_15
REMARK    4  A    between atoms: N_18  and  C_20
REMARK    5  A    between atoms: C_23  and  C_26
REMARK                            x       y       z     vdW  Elec       q    Type
REMARK                         _______ _______ _______ _____ _____    ______ ____
ROOT
ATOM     10  C   UNL     1      -2.541 -10.184  11.766  0.00  0.00    +0.250 A 
ATOM     11  N   UNL     1      -1.748 -10.411  11.771  0.00  0.00    -0.107 NA
ATOM     12  N   UNL     1      -1.534 -10.571  12.552  0.00  0.00    -0.111 NA
ATOM     13  C   UNL     1      -2.195 -10.442  13.029  0.00  0.00    +0.228 A 
ATOM     14  O   UNL     1      -2.818 -10.203  12.542  0.00  0.00    -0.419 OA
ENDROOT
BRANCH  10   7
ATOM      4  C   UNL     1      -3.859  -9.554   9.768  0.00  0.00    +0.048 A 
ATOM      5  C   UNL     1      -4.112 -10.175  10.249  0.00  0.00    +0.015 A 
ATOM      6  C   UNL     1      -3.672 -10.385  10.915  0.00  0.00    +0.006 A 
ATOM      7  C   UNL     1      -2.981  -9.974  11.100  0.00  0.00    +0.055 A 
ATOM      8  C   UNL     1      -2.729  -9.353  10.618  0.00  0.00    +0.006 A 
ATOM      9  C   UNL     1      -3.169  -9.144   9.952  0.00  0.00    +0.015 A 
BRANCH   4   2
ATOM      1  C   UNL     1      -4.603  -8.581   9.032  0.00  0.00    +0.112 C 
ATOM      2  N   UNL     1      -4.299  -9.344   9.101  0.00  0.00    -0.304 N 
ATOM      3  C   UNL     1      -4.434  -9.899   8.506  0.00  0.00    +0.112 C 
ENDBRANCH   4   2
ENDBRANCH  10   7
BRANCH  13  15
ATOM     15  C   UNL     1      -2.229 -10.536  13.847  0.00  0.00    +0.100 C 
ATOM     16  C   UNL     1      -1.584 -10.657  14.348  0.00  0.00    +0.032 C 
ATOM     17  C   UNL     1      -1.869 -10.722  15.120  0.00  0.00    +0.093 C 
ATOM     18  N   UNL     1      -2.690 -10.640  15.096  0.00  0.00    -0.293 N 
ATOM     19  C   UNL     1      -2.912 -10.525  14.310  0.00  0.00    +0.101 C 
BRANCH  18  20
ATOM     20  C   UNL     1      -3.199 -10.668  15.745  0.00  0.00    +0.132 A 
ATOM     21  C   UNL     1      -2.891 -10.675  16.510  0.00  0.00    +0.035 A 
ATOM     22  C   UNL     1      -3.401 -10.703  17.159  0.00  0.00    +0.015 A 
ATOM     23  C   UNL     1      -4.217 -10.724  17.042  0.00  0.00    +0.088 A 
ATOM     24  C   UNL     1      -4.524 -10.716  16.276  0.00  0.00    +0.111 A 
ATOM     25  N   UNL     1      -4.015 -10.688  15.628  0.00  0.00    -0.228 NA
BRANCH  23  26
ATOM     26  C   UNL     1      -4.725 -10.752  17.690  0.00  0.00    +0.102 C 
ATOM     27  N   UNL     1      -5.234 -10.780  18.340  0.00  0.00    -0.191 NA
ENDBRANCH  23  26
ENDBRANCH  18  20
ENDBRANCH  13  15
TORSDOF 5
ENDMDL
MODEL 9
REMARK VINA RESULT:      -7.2     14.108     16.374
REMARK  Name = 
REMARK  5 active torsions:
REMARK  status: ('A' for Active; 'I' for Inactive)
REMARK    1  A    between atoms: N_2  and  C_4
REMARK    2  A    between atoms: C_7  and  C_10
REMARK    3  A    between atoms: C_13  and  C_15
REMARK    4  A    between atoms: N_18  and  C_20
REMARK    5  A    between atoms: C_23  and  C_26
REMARK                            x       y       z     vdW  Elec       q    Type
REMARK                         _______ _______ _______ _____ _____    ______ ____
ROOT
ATOM     10  C   UNL     1      -3.366 -10.621  16.181  0.00  0.00    +0.250 A 
ATOM     11  N   UNL     1      -2.567 -10.724  16.358  0.00  0.00    -0.107 NA
ATOM     12  N   UNL     1      -2.144 -10.695  15.650  0.00  0.00    -0.111 NA
ATOM     13  C   UNL     1      -2.682 -10.573  15.036  0.00  0.00    +0.228 A 
ATOM     14  O   UNL     1      -3.437 -10.527  15.365  0.00  0.00    -0.419 OA
ENDROOT
BRANCH  10   7
ATOM      4  C   UNL     1      -5.224 -10.595  17.815  0.00  0.00    +0.048 A 
ATOM      5  C   UNL     1      -5.373 -10.432  17.020  0.00  0.00    +0.015 A 
ATOM      6  C   UNL     1      -4.753 -10.440  16.475  0.00  0.00    +0.006 A 
ATOM      7  C   UNL     1      -3.985 -10.612  16.726  0.00  0.00    +0.055 A 
ATOM      8  C   UNL     1      -3.838 -10.775  17.521  0.00  0.00    +0.006 A 
ATOM      9  C   UNL     1      -4.458 -10.767  18.065  0.00  0.00    +0.015 A 
BRANCH   4   2
ATOM      1  C   UNL     1      -6.614 -10.433  18.108  0.00  0.00    +0.112 C 
ATOM      2  N   UNL     1      -5.844 -10.587  18.361  0.00  0.00    -0.304 N 
ATOM      3  C   UNL     1      -5.693 -10.733  19.159  0.00  0.00    +0.112 C 
ENDBRANCH   4   2
ENDBRANCH  10   7
BRANCH  13  15
ATOM     15  C   UNL     1      -2.497 -10.508  14.235  0.00  0.00    +0.100 C 
ATOM     16  C   UNL     1      -1.738 -10.501  13.911  0.00  0.00    +0.032 C 
ATOM     17  C   UNL     1      -1.810 -10.428  13.093  0.00  0.00    +0.093 C 
ATOM     18  N   UNL     1      -2.614 -10.389  12.910  0.00  0.00    -0.293 N 
ATOM     19  C   UNL     1      -3.038 -10.439  13.617  0.00  0.00    +0.101 C 
BRANCH  18  20
ATOM     20  C   UNL     1      -2.937 -10.314  12.155  0.00  0.00    +0.132 A 
ATOM     21  C   UNL     1      -2.444 -10.179  11.507  0.00  0.00    +0.035 A 
ATOM     22  C   UNL     1      -2.767 -10.104  10.752  0.00  0.00    +0.015 A 
ATOM     23  C   UNL     1      -3.582 -10.164  10.644  0.00  0.00    +0.088 A 
ATOM     24  C   UNL     1      -4.075 -10.299  11.292  0.00  0.00    +0.111 A 
ATOM     25  N   UNL     1      -3.753 -10.374  12.047  0.00  0.00    -0.228 NA
BRANCH  23  26
ATOM     26  C   UNL     1      -3.904 -10.089   9.889  0.00  0.00    +0.102 C 
ATOM     27  N   UNL     1      -4.227 -10.015   9.133  0.00  0.00    -0.191 NA
ENDBRANCH  23  26
ENDBRANCH  18  20
ENDBRANCH  13  15
TORSDOF 5
ENDMDL
MODEL 10
REMARK VINA RESULT:      -7.1     17.813     19.134
REMARK  Name = 
REMARK  5 active torsions:
REMARK  status: ('A' for Active; 'I' for Inactive)
REMARK    1  A    between atoms: N_2  and  C_4
REMARK    2  A    between atoms: C_7  and  C_10
REMARK    3  A    between atoms: C_13  and  C_15
REMARK    4  A    between atoms: N_18  and  C_20
REMARK    5  A    between atoms: C_23  and  C_26
REMARK                            x       y       z     vdW  Elec       q    Type
REMARK                         _______ _______ _______ _____ _____    ______ ____
ROOT
ATOM     10  C   UNL     1      -4.445  -9.622   9.293  0.00  0.00    +0.250 A 
ATOM     11  N   UNL     1      -4.374  -9.757   8.482  0.00  0.00    -0.107 NA
ATOM     12  N   UNL     1      -5.096  -9.568   8.129  0.00  0.00    -0.111 NA
ATOM     13  C   UNL     1      -5.612  -9.316   8.722  0.00  0.00    +0.228 A 
ATOM     14  O   UNL     1      -5.208  -9.350   9.442  0.00  0.00    -0.419 OA
ENDROOT
BRANCH  10   7
ATOM      4  C   UNL     1      -2.672  -9.974  10.983  0.00  0.00    +0.048 A 
ATOM      5  C   UNL     1      -3.231 -10.564  10.844  0.00  0.00    +0.015 A 
ATOM      6  C   UNL     1      -3.823 -10.447  10.281  0.00  0.00    +0.006 A 
ATOM      7  C   UNL     1      -3.854  -9.740   9.856  0.00  0.00    +0.055 A 
ATOM      8  C   UNL     1      -3.294  -9.150   9.996  0.00  0.00    +0.006 A 
ATOM      9  C   UNL     1      -2.703  -9.268  10.560  0.00  0.00    +0.015 A 
BRANCH   4   2
ATOM      1  C   UNL     1      -1.381  -9.657  11.508  0.00  0.00    +0.112 C 
ATOM      2  N   UNL     1      -2.080 -10.091  11.547  0.00  0.00    -0.304 N 
ATOM      3  C   UNL     1      -2.189 -10.644  12.151  0.00  0.00    +0.112 C 
ENDBRANCH   4   2
ENDBRANCH  10   7
BRANCH  13  15
ATOM     15  C   UNL     1      -6.392  -9.074   8.615  0.00  0.00    +0.100 C 
ATOM     16  C   UNL     1      -7.033  -9.565   8.444  0.00  0.00    +0.032 C 
ATOM     17  C   UNL     1      -7.707  -9.093   8.384  0.00  0.00    +0.093 C 
ATOM     18  N   UNL     1      -7.483  -8.310   8.518  0.00  0.00    -0.293 N 
ATOM     19  C   UNL     1      -6.670  -8.298   8.661  0.00  0.00    +0.101 C 
BRANCH  18  20
ATOM     20  C   UNL     1      -7.983  -7.654   8.510  0.00  0.00    +0.132 A 
ATOM     21  C   UNL     1      -8.719  -7.692   8.881  0.00  0.00    +0.035 A 
ATOM     22  C   UNL     1      -9.220  -7.036   8.874  0.00  0.00    +0.015 A 
ATOM     23  C   UNL     1      -8.984  -6.342   8.495  0.00  0.00    +0.088 A 
ATOM     24  C   UNL     1      -8.248  -6.304   8.124  0.00  0.00    +0.111 A 
ATOM     25  N   UNL     1      -7.748  -6.960   8.131  0.00  0.00    -0.228 NA
BRANCH  23  26
ATOM     26  C   UNL     1      -9.484  -5.687   8.487  0.00  0.00    +0.102 C 
ATOM     27  N   UNL     1      -9.985  -5.030   8.480  0.00  0.00    -0.191 NA
ENDBRANCH  23  26
ENDBRANCH  18  20
ENDBRANCH  13  15
TORSDOF 5
ENDMDL
