MODEL 1
REMARK VINA RESULT:      -9.8      0.000      0.000
REMARK  Name = 
REMARK  8 active torsions:
REMARK  status: ('A' for Active; 'I' for Inactive)
REMARK    1  A    between atoms: O_2  and  C_3
REMARK    2  A    between atoms: C_5  and  N_6
REMARK    3  A    between atoms: C_12  and  C_13
REMARK    4  A    between atoms: C_13  and  C_14
REMARK    5  A    between atoms: C_17  and  C_18
REMARK    6  A    between atoms: C_18  and  C_19
REMARK    7  A    between atoms: C_26  and  O_27
REMARK    8  A    between atoms: C_29  and  O_30
REMARK                            x       y       z     vdW  Elec       q    Type
REMARK                         _______ _______ _______ _____ _____    ______ ____
ROOT
ATOM      6  N   UNL     1      -2.005  -1.123  24.789  0.00  0.00    -0.162 NA
ATOM      7  C   UNL     1      -2.295  -0.351  24.756  0.00  0.00    +0.327 C 
ATOM      8  O   UNL     1      -3.104  -0.210  24.834  0.00  0.00    -0.250 OA
ATOM      9  N   UNL     1      -1.774   0.280  24.643  0.00  0.00    -0.263 N 
ATOM     10  C   UNL     1      -0.966   0.139  24.565  0.00  0.00    +0.095 C 
ATOM     11  C   UNL     1      -0.446   0.769  24.452  0.00  0.00    +0.022 C 
ATOM     12  C   UNL     1      -0.736   1.540  24.419  0.00  0.00    +0.015 C 
ATOM     17  C   UNL     1      -1.544   1.682  24.497  0.00  0.00    +0.026 C 
ATOM     33  C   UNL     1      -2.064   1.052  24.610  0.00  0.00    +0.095 C 
ENDROOT
BRANCH   6   5
ATOM      3  C   UNL     1      -3.411  -2.738  24.364  0.00  0.00    +0.140 A 
ATOM      4  C   UNL     1      -2.891  -2.107  24.252  0.00  0.00    +0.054 A 
ATOM      5  C   UNL     1      -2.526  -1.754  24.902  0.00  0.00    +0.078 A 
ATOM     34  C   UNL     1      -2.680  -2.030  25.663  0.00  0.00    +0.017 A 
ATOM     35  C   UNL     1      -3.200  -2.660  25.775  0.00  0.00    +0.004 A 
ATOM     36  C   UNL     1      -3.566  -3.015  25.126  0.00  0.00    +0.037 A 
BRANCH   3   2
ATOM      1  C   UNL     1      -4.558  -2.901  23.527  0.00  0.00    +0.252 C 
ATOM      2  O   UNL     1      -3.777  -3.091  23.715  0.00  0.00    -0.471 OA
ENDBRANCH   3   2
ENDBRANCH   6   5
BRANCH  12  13
ATOM     13  C   UNL     1      -0.215   2.171  24.306  0.00  0.00    +0.114 C 
BRANCH  13  14
ATOM     14  C   UNL     1       0.569   2.109  24.554  0.00  0.00    +0.365 C 
ATOM     15  O   UNL     1       0.768   2.275  25.337  0.00  0.00    -0.246 OA
ATOM     16  O   UNL     1       1.154   1.880  24.018  0.00  0.00    -0.246 OA
ENDBRANCH  13  14
ENDBRANCH  12  13
BRANCH  17  18
ATOM     18  C   UNL     1      -1.833   2.454  24.464  0.00  0.00    +0.047 C 
BRANCH  18  19
ATOM     19  C   UNL     1      -2.526   2.618  24.046  0.00  0.00    +0.054 C 
ATOM     20  N   UNL     1      -2.599   2.376  23.260  0.00  0.00    -0.274 NA
ATOM     21  C   UNL     1      -3.293   2.540  22.842  0.00  0.00    +0.130 C 
ATOM     22  C   UNL     1      -3.910   2.944  23.211  0.00  0.00    +0.053 C 
ATOM     23  C   UNL     1      -3.837   3.186  23.996  0.00  0.00    -0.016 A 
ATOM     24  C   UNL     1      -3.143   3.022  24.414  0.00  0.00    +0.012 A 
ATOM     25  C   UNL     1      -3.069   3.263  25.199  0.00  0.00    +0.041 A 
ATOM     26  C   UNL     1      -3.686   3.667  25.567  0.00  0.00    +0.172 A 
ATOM     29  C   UNL     1      -4.379   3.830  25.149  0.00  0.00    +0.172 A 
ATOM     32  C   UNL     1      -4.454   3.590  24.364  0.00  0.00    +0.036 A 
BRANCH  26  27
ATOM     27  O   UNL     1      -3.612   3.908  26.353  0.00  0.00    -0.468 OA
ATOM     28  C   UNL     1      -2.908   4.246  26.616  0.00  0.00    +0.253 C 
ENDBRANCH  26  27
BRANCH  29  30
ATOM     30  O   UNL     1      -4.997   4.235  25.517  0.00  0.00    -0.468 OA
ATOM     31  C   UNL     1      -5.766   3.941  25.475  0.00  0.00    +0.253 C 
ENDBRANCH  29  30
ENDBRANCH  18  19
ENDBRANCH  17  18
TORSDOF 8
ENDMDL
MODEL 2
REMARK VINA RESULT:      -9.5      2.249      4.579
REMARK  Name = 
REMARK  8 active torsions:
REMARK  status: ('A' for Active; 'I' for Inactive)
REMARK    1  A    between atoms: O_2  and  C_3
REMARK    2  A    between atoms: C_5  and  N_6
REMARK    3  A    between atoms: C_12  and  C_13
REMARK    4  A    between atoms: C_13  and  C_14
REMARK    5  A    between atoms: C_17  and  C_18
REMARK    6  A    between atoms: C_18  and  C_19
REMARK    7  A    between atoms: C_26  and  O_27
REMARK    8  A    between atoms: C_29  and  O_30
REMARK                            x       y       z     vdW  Elec       q    Type
REMARK                         _______ _______ _______ _____ _____    ______ ____
ROOT
ATOM      6  N   UNL     1       1.383  -0.258  23.151  0.00  0.00    -0.162 NA
ATOM      7  C   UNL     1       0.878   0.316  23.460  0.00  0.00    +0.327 C 
ATOM      8  O   UNL     1       1.062   1.116  23.376  0.00  0.00    -0.250 OA
ATOM      9  N   UNL     1       0.189   0.090  23.854  0.00  0.00    -0.263 N 
ATOM     10  C   UNL     1       0.006  -0.709  23.939  0.00  0.00    +0.095 C 
ATOM     11  C   UNL     1      -0.683  -0.935  24.333  0.00  0.00    +0.022 C 
ATOM     12  C   UNL     1      -1.188  -0.361  24.642  0.00  0.00    +0.015 C 
ATOM     17  C   UNL     1      -1.004   0.438  24.558  0.00  0.00    +0.026 C 
ATOM     33  C   UNL     1      -0.316   0.665  24.164  0.00  0.00    +0.095 C 
ENDROOT
BRANCH   6   5
ATOM      3  C   UNL     1       3.394   0.511  22.787  0.00  0.00    +0.140 A 
ATOM      4  C   UNL     1       2.705   0.285  23.181  0.00  0.00    +0.054 A 
ATOM      5  C   UNL     1       2.072  -0.032  22.756  0.00  0.00    +0.078 A 
ATOM     34  C   UNL     1       2.128  -0.123  21.938  0.00  0.00    +0.017 A 
ATOM     35  C   UNL     1       2.817   0.103  21.545  0.00  0.00    +0.004 A 
ATOM     36  C   UNL     1       3.450   0.420  21.969  0.00  0.00    +0.037 A 
BRANCH   3   2
ATOM      1  C   UNL     1       4.777   0.491  23.144  0.00  0.00    +0.252 C 
ATOM      2  O   UNL     1       4.026   0.827  23.211  0.00  0.00    -0.471 OA
ENDBRANCH   3   2
ENDBRANCH   6   5
BRANCH  12  13
ATOM     13  C   UNL     1      -1.877  -0.587  25.036  0.00  0.00    +0.114 C 
BRANCH  13  14
ATOM     14  C   UNL     1      -2.198  -1.336  24.909  0.00  0.00    +0.365 C 
ATOM     15  O   UNL     1      -1.955  -1.973  25.373  0.00  0.00    -0.246 OA
ATOM     16  O   UNL     1      -2.763  -1.446  24.317  0.00  0.00    -0.246 OA
ENDBRANCH  13  14
ENDBRANCH  12  13
BRANCH  17  18
ATOM     18  C   UNL     1      -1.510   1.013  24.867  0.00  0.00    +0.047 C 
BRANCH  18  19
ATOM     19  C   UNL     1      -1.203   1.634  25.315  0.00  0.00    +0.054 C 
ATOM     20  N   UNL     1      -0.587   1.494  25.846  0.00  0.00    -0.274 NA
ATOM     21  C   UNL     1      -0.280   2.116  26.295  0.00  0.00    +0.130 C 
ATOM     22  C   UNL     1      -0.590   2.876  26.211  0.00  0.00    +0.053 C 
ATOM     23  C   UNL     1      -1.206   3.016  25.681  0.00  0.00    -0.016 A 
ATOM     24  C   UNL     1      -1.513   2.394  25.232  0.00  0.00    +0.012 A 
ATOM     25  C   UNL     1      -2.128   2.534  24.702  0.00  0.00    +0.041 A 
ATOM     26  C   UNL     1      -2.437   3.293  24.619  0.00  0.00    +0.172 A 
ATOM     29  C   UNL     1      -2.130   3.915  25.067  0.00  0.00    +0.172 A 
ATOM     32  C   UNL     1      -1.515   3.776  25.598  0.00  0.00    +0.036 A 
BRANCH  26  27
ATOM     27  O   UNL     1      -3.053   3.433  24.088  0.00  0.00    -0.468 OA
ATOM     28  C   UNL     1      -3.666   2.887  24.012  0.00  0.00    +0.253 C 
ENDBRANCH  26  27
BRANCH  29  30
ATOM     30  O   UNL     1      -2.440   4.676  24.984  0.00  0.00    -0.468 OA
ATOM     31  C   UNL     1      -2.008   5.328  25.242  0.00  0.00    +0.253 C 
ENDBRANCH  29  30
ENDBRANCH  18  19
ENDBRANCH  17  18
TORSDOF 8
ENDMDL
MODEL 3
REMARK VINA RESULT:      -8.8      1.839      4.006
REMARK  Name = 
REMARK  8 active torsions:
REMARK  status: ('A' for Active; 'I' for Inactive)
REMARK    1  A    between atoms: O_2  and  C_3
REMARK    2  A    between atoms: C_5  and  N_6
REMARK    3  A    between atoms: C_12  and  C_13
REMARK    4  A    between atoms: C_13  and  C_14
REMARK    5  A    between atoms: C_17  and  C_18
REMARK    6  A    between atoms: C_18  and  C_19
REMARK    7  A    between atoms: C_26  and  O_27
REMARK    8  A    between atoms: C_29  and  O_30
REMARK                            x       y       z     vdW  Elec       q    Type
REMARK                         _______ _______ _______ _____ _____    ______ ____
ROOT
ATOM      6  N   UNL     1       0.499  -0.307  23.541  0.00  0.00    -0.162 NA
ATOM      7  C   UNL     1      -0.128   0.227  23.583  0.00  0.00    +0.327 C 
ATOM      8  O   UNL     1      -0.106   0.924  23.142  0.00  0.00    -0.250 OA
ATOM      9  N   UNL     1      -0.778   0.063  24.065  0.00  0.00    -0.263 N 
ATOM     10  C   UNL     1      -0.800  -0.633  24.505  0.00  0.00    +0.095 C 
ATOM     11  C   UNL     1      -1.449  -0.797  24.987  0.00  0.00    +0.022 C 
ATOM     12  C   UNL     1      -2.076  -0.263  25.028  0.00  0.00    +0.015 C 
ATOM     17  C   UNL     1      -2.054   0.434  24.588  0.00  0.00    +0.026 C 
ATOM     33  C   UNL     1      -1.405   0.598  24.106  0.00  0.00    +0.095 C 
ENDROOT
BRANCH   6   5
ATOM      3  C   UNL     1       2.432   0.458  22.873  0.00  0.00    +0.140 A 
ATOM      4  C   UNL     1       1.782   0.294  23.356  0.00  0.00    +0.054 A 
ATOM      5  C   UNL     1       1.149  -0.144  23.059  0.00  0.00    +0.078 A 
ATOM     34  C   UNL     1       1.164  -0.418  22.281  0.00  0.00    +0.017 A 
ATOM     35  C   UNL     1       1.813  -0.255  21.800  0.00  0.00    +0.004 A 
ATOM     36  C   UNL     1       2.447   0.183  22.095  0.00  0.00    +0.037 A 
BRANCH   3   2
ATOM      1  C   UNL     1       3.802   0.857  22.800  0.00  0.00    +0.252 C 
ATOM      2  O   UNL     1       3.065   0.895  23.170  0.00  0.00    -0.471 OA
ENDBRANCH   3   2
ENDBRANCH   6   5
BRANCH  12  13
ATOM     13  C   UNL     1      -2.726  -0.426  25.510  0.00  0.00    +0.114 C 
BRANCH  13  14
ATOM     14  C   UNL     1      -2.860  -1.196  25.774  0.00  0.00    +0.365 C 
ATOM     15  O   UNL     1      -2.580  -1.433  26.513  0.00  0.00    -0.246 OA
ATOM     16  O   UNL     1      -3.275  -1.728  25.299  0.00  0.00    -0.246 OA
ENDBRANCH  13  14
ENDBRANCH  12  13
BRANCH  17  18
ATOM     18  C   UNL     1      -2.682   0.968  24.630  0.00  0.00    +0.047 C 
BRANCH  18  19
ATOM     19  C   UNL     1      -2.556   1.732  24.914  0.00  0.00    +0.054 C 
ATOM     20  N   UNL     1      -1.800   1.964  25.151  0.00  0.00    -0.274 NA
ATOM     21  C   UNL     1      -1.673   2.729  25.436  0.00  0.00    +0.130 C 
ATOM     22  C   UNL     1      -2.303   3.260  25.484  0.00  0.00    +0.053 C 
ATOM     23  C   UNL     1      -3.058   3.029  25.246  0.00  0.00    -0.016 A 
ATOM     24  C   UNL     1      -3.185   2.264  24.961  0.00  0.00    +0.012 A 
ATOM     25  C   UNL     1      -3.940   2.032  24.725  0.00  0.00    +0.041 A 
ATOM     26  C   UNL     1      -4.568   2.564  24.772  0.00  0.00    +0.172 A 
ATOM     29  C   UNL     1      -4.442   3.329  25.057  0.00  0.00    +0.172 A 
ATOM     32  C   UNL     1      -3.687   3.560  25.294  0.00  0.00    +0.036 A 
BRANCH  26  27
ATOM     27  O   UNL     1      -5.324   2.332  24.535  0.00  0.00    -0.468 OA
ATOM     28  C   UNL     1      -5.682   1.675  24.881  0.00  0.00    +0.253 C 
ENDBRANCH  26  27
BRANCH  29  30
ATOM     30  O   UNL     1      -5.071   3.860  25.104  0.00  0.00    -0.468 OA
ATOM     31  C   UNL     1      -4.954   4.611  25.424  0.00  0.00    +0.253 C 
ENDBRANCH  29  30
ENDBRANCH  18  19
ENDBRANCH  17  18
TORSDOF 8
ENDMDL
MODEL 4
REMARK VINA RESULT:      -8.7      1.640      3.344
REMARK  Name = 
REMARK  8 active torsions:
REMARK  status: ('A' for Active; 'I' for Inactive)
REMARK    1  A    between atoms: O_2  and  C_3
REMARK    2  A    between atoms: C_5  and  N_6
REMARK    3  A    between atoms: C_12  and  C_13
REMARK    4  A    between atoms: C_13  and  C_14
REMARK    5  A    between atoms: C_17  and  C_18
REMARK    6  A    between atoms: C_18  and  C_19
REMARK    7  A    between atoms: C_26  and  O_27
REMARK    8  A    between atoms: C_29  and  O_30
REMARK                            x       y       z     vdW  Elec       q    Type
REMARK                         _______ _______ _______ _____ _____    ______ ____
ROOT
ATOM      6  N   UNL     1      -4.132  -1.059  24.747  0.00  0.00    -0.162 NA
ATOM      7  C   UNL     1      -3.816  -0.314  24.588  0.00  0.00    +0.327 C 
ATOM      8  O   UNL     1      -3.054  -0.245  24.279  0.00  0.00    -0.250 OA
ATOM      9  N   UNL     1      -4.264   0.364  24.737  0.00  0.00    -0.263 N 
ATOM     10  C   UNL     1      -5.025   0.295  25.046  0.00  0.00    +0.095 C 
ATOM     11  C   UNL     1      -5.472   0.972  25.195  0.00  0.00    +0.022 C 
ATOM     12  C   UNL     1      -5.157   1.717  25.036  0.00  0.00    +0.015 C 
ATOM     17  C   UNL     1      -4.396   1.786  24.727  0.00  0.00    +0.026 C 
ATOM     33  C   UNL     1      -3.948   1.109  24.578  0.00  0.00    +0.095 C 
ENDROOT
BRANCH   6   5
ATOM      3  C   UNL     1      -2.510  -2.518  24.823  0.00  0.00    +0.140 A 
ATOM      4  C   UNL     1      -2.957  -1.841  24.973  0.00  0.00    +0.054 A 
ATOM      5  C   UNL     1      -3.684  -1.737  24.598  0.00  0.00    +0.078 A 
ATOM     34  C   UNL     1      -3.965  -2.309  24.074  0.00  0.00    +0.017 A 
ATOM     35  C   UNL     1      -3.518  -2.985  23.925  0.00  0.00    +0.004 A 
ATOM     36  C   UNL     1      -2.790  -3.091  24.299  0.00  0.00    +0.037 A 
BRANCH   3   2
ATOM      1  C   UNL     1      -1.082  -2.549  24.766  0.00  0.00    +0.252 C 
ATOM      2  O   UNL     1      -1.782  -2.622  25.198  0.00  0.00    -0.471 OA
ENDBRANCH   3   2
ENDBRANCH   6   5
BRANCH  12  13
ATOM     13  C   UNL     1      -5.604   2.395  25.185  0.00  0.00    +0.114 C 
BRANCH  13  14
ATOM     14  C   UNL     1      -6.226   2.368  25.727  0.00  0.00    +0.365 C 
ATOM     15  O   UNL     1      -6.973   2.115  25.485  0.00  0.00    -0.246 OA
ATOM     16  O   UNL     1      -6.100   2.593  26.511  0.00  0.00    -0.246 OA
ENDBRANCH  13  14
ENDBRANCH  12  13
BRANCH  17  18
ATOM     18  C   UNL     1      -4.080   2.532  24.568  0.00  0.00    +0.047 C 
BRANCH  18  19
ATOM     19  C   UNL     1      -3.409   2.603  24.094  0.00  0.00    +0.054 C 
ATOM     20  N   UNL     1      -3.390   2.249  23.349  0.00  0.00    -0.274 NA
ATOM     21  C   UNL     1      -2.718   2.320  22.875  0.00  0.00    +0.130 C 
ATOM     22  C   UNL     1      -2.065   2.746  23.147  0.00  0.00    +0.053 C 
ATOM     23  C   UNL     1      -2.084   3.101  23.892  0.00  0.00    -0.016 A 
ATOM     24  C   UNL     1      -2.756   3.029  24.366  0.00  0.00    +0.012 A 
ATOM     25  C   UNL     1      -2.775   3.383  25.110  0.00  0.00    +0.041 A 
ATOM     26  C   UNL     1      -2.123   3.809  25.381  0.00  0.00    +0.172 A 
ATOM     29  C   UNL     1      -1.451   3.880  24.907  0.00  0.00    +0.172 A 
ATOM     32  C   UNL     1      -1.432   3.526  24.163  0.00  0.00    +0.036 A 
BRANCH  26  27
ATOM     27  O   UNL     1      -2.141   4.163  26.126  0.00  0.00    -0.468 OA
ATOM     28  C   UNL     1      -2.864   4.312  26.495  0.00  0.00    +0.253 C 
ENDBRANCH  26  27
BRANCH  29  30
ATOM     30  O   UNL     1      -0.798   4.306  25.179  0.00  0.00    -0.468 OA
ATOM     31  C   UNL     1      -0.246   4.602  24.643  0.00  0.00    +0.253 C 
ENDBRANCH  29  30
ENDBRANCH  18  19
ENDBRANCH  17  18
TORSDOF 8
ENDMDL
MODEL 5
REMARK VINA RESULT:      -8.6      2.164      5.124
REMARK  Name = 
REMARK  8 active torsions:
REMARK  status: ('A' for Active; 'I' for Inactive)
REMARK    1  A    between atoms: O_2  and  C_3
REMARK    2  A    between atoms: C_5  and  N_6
REMARK    3  A    between atoms: C_12  and  C_13
REMARK    4  A    between atoms: C_13  and  C_14
REMARK    5  A    between atoms: C_17  and  C_18
REMARK    6  A    between atoms: C_18  and  C_19
REMARK    7  A    between atoms: C_26  and  O_27
REMARK    8  A    between atoms: C_29  and  O_30
REMARK                            x       y       z     vdW  Elec       q    Type
REMARK                         _______ _______ _______ _____ _____    ______ ____
ROOT
ATOM      6  N   UNL     1       1.605   1.248  23.515  0.00  0.00    -0.162 NA
ATOM      7  C   UNL     1       0.906   0.845  23.687  0.00  0.00    +0.327 C 
ATOM      8  O   UNL     1       0.800   0.071  23.422  0.00  0.00    -0.250 OA
ATOM      9  N   UNL     1       0.313   1.216  24.124  0.00  0.00    -0.263 N 
ATOM     10  C   UNL     1       0.419   1.989  24.389  0.00  0.00    +0.095 C 
ATOM     11  C   UNL     1      -0.174   2.361  24.826  0.00  0.00    +0.022 C 
ATOM     12  C   UNL     1      -0.872   1.958  24.997  0.00  0.00    +0.015 C 
ATOM     17  C   UNL     1      -0.978   1.185  24.733  0.00  0.00    +0.026 C 
ATOM     33  C   UNL     1      -0.386   0.813  24.296  0.00  0.00    +0.095 C 
ENDROOT
BRANCH   6   5
ATOM      3  C   UNL     1       3.585   0.677  22.791  0.00  0.00    +0.140 A 
ATOM      4  C   UNL     1       2.991   1.049  23.228  0.00  0.00    +0.054 A 
ATOM      5  C   UNL     1       2.199   0.876  23.078  0.00  0.00    +0.078 A 
ATOM     34  C   UNL     1       1.999   0.331  22.491  0.00  0.00    +0.017 A 
ATOM     35  C   UNL     1       2.592  -0.040  22.054  0.00  0.00    +0.004 A 
ATOM     36  C   UNL     1       3.385   0.133  22.204  0.00  0.00    +0.037 A 
BRANCH   3   2
ATOM      1  C   UNL     1       4.893   0.250  23.176  0.00  0.00    +0.252 C 
ATOM      2  O   UNL     1       4.377   0.851  22.941  0.00  0.00    -0.471 OA
ENDBRANCH   3   2
ENDBRANCH   6   5
BRANCH  12  13
ATOM     13  C   UNL     1      -1.466   2.330  25.435  0.00  0.00    +0.114 C 
BRANCH  13  14
ATOM     14  C   UNL     1      -1.439   3.145  25.557  0.00  0.00    +0.365 C 
ATOM     15  O   UNL     1      -1.783   3.656  25.008  0.00  0.00    -0.246 OA
ATOM     16  O   UNL     1      -1.068   3.449  26.229  0.00  0.00    -0.246 OA
ENDBRANCH  13  14
ENDBRANCH  12  13
BRANCH  17  18
ATOM     18  C   UNL     1      -1.678   0.782  24.905  0.00  0.00    +0.047 C 
BRANCH  18  19
ATOM     19  C   UNL     1      -1.651  -0.004  25.154  0.00  0.00    +0.054 C 
ATOM     20  N   UNL     1      -1.013  -0.271  25.604  0.00  0.00    -0.274 NA
ATOM     21  C   UNL     1      -0.986  -1.058  25.854  0.00  0.00    +0.130 C 
ATOM     22  C   UNL     1      -1.597  -1.575  25.654  0.00  0.00    +0.053 C 
ATOM     23  C   UNL     1      -2.235  -1.308  25.204  0.00  0.00    -0.016 A 
ATOM     24  C   UNL     1      -2.262  -0.521  24.954  0.00  0.00    +0.012 A 
ATOM     25  C   UNL     1      -2.899  -0.254  24.504  0.00  0.00    +0.041 A 
ATOM     26  C   UNL     1      -3.509  -0.771  24.304  0.00  0.00    +0.172 A 
ATOM     29  C   UNL     1      -3.482  -1.558  24.554  0.00  0.00    +0.172 A 
ATOM     32  C   UNL     1      -2.845  -1.825  25.004  0.00  0.00    +0.036 A 
BRANCH  26  27
ATOM     27  O   UNL     1      -4.147  -0.503  23.854  0.00  0.00    -0.468 OA
ATOM     28  C   UNL     1      -4.537   0.192  24.064  0.00  0.00    +0.253 C 
ENDBRANCH  26  27
BRANCH  29  30
ATOM     30  O   UNL     1      -4.092  -2.075  24.354  0.00  0.00    -0.468 OA
ATOM     31  C   UNL     1      -3.936  -2.877  24.247  0.00  0.00    +0.253 C 
ENDBRANCH  29  30
ENDBRANCH  18  19
ENDBRANCH  17  18
TORSDOF 8
ENDMDL
MODEL 6
REMARK VINA RESULT:      -8.4      1.323      2.230
REMARK  Name = 
REMARK  8 active torsions:
REMARK  status: ('A' for Active; 'I' for Inactive)
REMARK    1  A    between atoms: O_2  and  C_3
REMARK    2  A    between atoms: C_5  and  N_6
REMARK    3  A    between atoms: C_12  and  C_13
REMARK    4  A    between atoms: C_13  and  C_14
REMARK    5  A    between atoms: C_17  and  C_18
REMARK    6  A    between atoms: C_18  and  C_19
REMARK    7  A    between atoms: C_26  and  O_27
REMARK    8  A    between atoms: C_29  and  O_30
REMARK                            x       y       z     vdW  Elec       q    Type
REMARK                         _______ _______ _______ _____ _____    ______ ____
ROOT
ATOM      6  N   UNL     1      -1.610  -1.574  24.469  0.00  0.00    -0.162 NA
ATOM      7  C   UNL     1      -1.584  -0.752  24.533  0.00  0.00    +0.327 C 
ATOM      8  O   UNL     1      -2.215  -0.344  24.874  0.00  0.00    -0.250 OA
ATOM      9  N   UNL     1      -0.927  -0.338  24.254  0.00  0.00    -0.263 N 
ATOM     10  C   UNL     1      -0.297  -0.745  23.913  0.00  0.00    +0.095 C 
ATOM     11  C   UNL     1       0.360  -0.331  23.635  0.00  0.00    +0.022 C 
ATOM     12  C   UNL     1       0.386   0.491  23.699  0.00  0.00    +0.015 C 
ATOM     17  C   UNL     1      -0.244   0.898  24.040  0.00  0.00    +0.026 C 
ATOM     33  C   UNL     1      -0.901   0.484  24.318  0.00  0.00    +0.095 C 
ENDROOT
BRANCH   6   5
ATOM      3  C   UNL     1      -3.486  -2.691  24.493  0.00  0.00    +0.140 A 
ATOM      4  C   UNL     1      -2.828  -2.277  24.215  0.00  0.00    +0.054 A 
ATOM      5  C   UNL     1      -2.268  -1.989  24.747  0.00  0.00    +0.078 A 
ATOM     34  C   UNL     1      -2.364  -2.114  25.557  0.00  0.00    +0.017 A 
ATOM     35  C   UNL     1      -3.021  -2.528  25.834  0.00  0.00    +0.004 A 
ATOM     36  C   UNL     1      -3.582  -2.817  25.303  0.00  0.00    +0.037 A 
BRANCH   3   2
ATOM      1  C   UNL     1      -4.632  -2.477  23.667  0.00  0.00    +0.252 C 
ATOM      2  O   UNL     1      -4.047  -2.979  23.961  0.00  0.00    -0.471 OA
ENDBRANCH   3   2
ENDBRANCH   6   5
BRANCH  12  13
ATOM     13  C   UNL     1       1.044   0.905  23.421  0.00  0.00    +0.114 C 
BRANCH  13  14
ATOM     14  C   UNL     1       1.627   0.512  22.990  0.00  0.00    +0.365 C 
ATOM     15  O   UNL     1       2.404   0.493  23.270  0.00  0.00    -0.246 OA
ATOM     16  O   UNL     1       1.434   0.138  22.280  0.00  0.00    -0.246 OA
ENDBRANCH  13  14
ENDBRANCH  12  13
BRANCH  17  18
ATOM     18  C   UNL     1      -0.217   1.721  24.104  0.00  0.00    +0.047 C 
BRANCH  18  19
ATOM     19  C   UNL     1      -0.311   2.081  24.840  0.00  0.00    +0.054 C 
ATOM     20  N   UNL     1       0.208   1.900  25.456  0.00  0.00    -0.274 NA
ATOM     21  C   UNL     1       0.114   2.261  26.194  0.00  0.00    +0.130 C 
ATOM     22  C   UNL     1      -0.499   2.801  26.313  0.00  0.00    +0.053 C 
ATOM     23  C   UNL     1      -1.018   2.981  25.697  0.00  0.00    -0.016 A 
ATOM     24  C   UNL     1      -0.924   2.621  24.960  0.00  0.00    +0.012 A 
ATOM     25  C   UNL     1      -1.442   2.801  24.344  0.00  0.00    +0.041 A 
ATOM     26  C   UNL     1      -2.053   3.340  24.464  0.00  0.00    +0.172 A 
ATOM     29  C   UNL     1      -2.147   3.700  25.202  0.00  0.00    +0.172 A 
ATOM     32  C   UNL     1      -1.629   3.521  25.817  0.00  0.00    +0.036 A 
BRANCH  26  27
ATOM     27  O   UNL     1      -2.572   3.520  23.848  0.00  0.00    -0.468 OA
ATOM     28  C   UNL     1      -3.065   2.936  23.540  0.00  0.00    +0.253 C 
ENDBRANCH  26  27
BRANCH  29  30
ATOM     30  O   UNL     1      -2.760   4.240  25.321  0.00  0.00    -0.468 OA
ATOM     31  C   UNL     1      -2.972   4.462  26.086  0.00  0.00    +0.253 C 
ENDBRANCH  29  30
ENDBRANCH  18  19
ENDBRANCH  17  18
TORSDOF 8
ENDMDL
