MODEL 1
REMARK VINA RESULT:     -11.7      0.000      0.000
REMARK  Name = 
REMARK  7 active torsions:
REMARK  status: ('A' for Active; 'I' for Inactive)
REMARK    1  A    between atoms: C_2  and  C_4
REMARK    2  A    between atoms: C_4  and  C_5
REMARK    3  A    between atoms: C_10  and  C_11
REMARK    4  A    between atoms: C_11  and  C_12
REMARK    5  A    between atoms: C_12  and  N_13
REMARK    6  A    between atoms: N_16  and  C_19
REMARK    7  A    between atoms: C_25  and  C_27
REMARK                            x       y       z     vdW  Elec       q    Type
REMARK                         _______ _______ _______ _____ _____    ______ ____
ROOT
ATOM      5  C   UNL     1      -4.083   3.464  25.264  0.00  0.00    +0.015 C 
ATOM      6  C   UNL     1      -3.906   4.267  25.330  0.00  0.00    +0.022 C 
ATOM      7  C   UNL     1      -3.119   4.517  25.345  0.00  0.00    +0.093 C 
ATOM      8  N   UNL     1      -2.510   3.963  25.294  0.00  0.00    -0.280 N 
ATOM      9  C   UNL     1      -2.688   3.160  25.229  0.00  0.00    +0.093 C 
ATOM     10  C   UNL     1      -3.473   2.910  25.213  0.00  0.00    +0.022 C 
ATOM     25  C   UNL     1      -1.724   4.212  25.310  0.00  0.00    +0.225 C 
ATOM     26  O   UNL     1      -1.547   5.015  25.375  0.00  0.00    -0.275 OA
ENDROOT
BRANCH  25  27
ATOM     27  C   UNL     1      -1.115   3.658  25.259  0.00  0.00    +0.077 C 
ATOM     28  C   UNL     1      -0.639   3.367  24.649  0.00  0.00    +0.009 C 
ATOM     29  C   UNL     1      -0.253   2.874  25.187  0.00  0.00    +0.001 C 
ATOM     30  C   UNL     1      -0.728   3.164  25.795  0.00  0.00    +0.009 C 
ENDBRANCH  25  27
BRANCH   5   4
ATOM      4  C   UNL     1      -4.869   3.216  25.249  0.00  0.00    +0.114 C 
BRANCH   4   2
ATOM      1  O   UNL     1      -5.615   3.327  26.462  0.00  0.00    -0.246 OA
ATOM      2  C   UNL     1      -5.434   3.605  25.706  0.00  0.00    +0.365 C 
ATOM      3  O   UNL     1      -5.817   4.272  25.410  0.00  0.00    -0.246 OA
ENDBRANCH   4   2
ENDBRANCH   5   4
BRANCH  10  11
ATOM     11  C   UNL     1      -3.651   2.108  25.147  0.00  0.00    +0.019 C 
BRANCH  11  12
ATOM     12  C   UNL     1      -3.444   1.694  24.464  0.00  0.00    +0.072 C 
BRANCH  12  13
ATOM     13  N   UNL     1      -3.493   0.871  24.450  0.00  0.00    -0.270 NA
ATOM     14  C   UNL     1      -2.824   0.421  24.274  0.00  0.00    +0.094 C 
ATOM     15  C   UNL     1      -2.873  -0.403  24.259  0.00  0.00    +0.108 C 
ATOM     16  N   UNL     1      -3.591  -0.776  24.420  0.00  0.00    -0.305 N 
ATOM     17  C   UNL     1      -4.260  -0.326  24.596  0.00  0.00    +0.108 C 
ATOM     18  C   UNL     1      -4.211   0.497  24.611  0.00  0.00    +0.094 C 
BRANCH  16  19
ATOM     19  C   UNL     1      -3.640  -1.600  24.405  0.00  0.00    +0.048 A 
ATOM     20  C   UNL     1      -4.088  -1.976  23.824  0.00  0.00    +0.015 A 
ATOM     21  C   UNL     1      -4.137  -2.800  23.809  0.00  0.00    +0.001 A 
ATOM     22  C   UNL     1      -3.738  -3.247  24.376  0.00  0.00    +0.000 A 
ATOM     23  C   UNL     1      -3.289  -2.871  24.957  0.00  0.00    +0.001 A 
ATOM     24  C   UNL     1      -3.241  -2.046  24.972  0.00  0.00    +0.015 A 
ENDBRANCH  16  19
ENDBRANCH  12  13
ENDBRANCH  11  12
ENDBRANCH  10  11
TORSDOF 7
ENDMDL
MODEL 2
REMARK VINA RESULT:     -10.6      1.215      2.846
REMARK  Name = 
REMARK  7 active torsions:
REMARK  status: ('A' for Active; 'I' for Inactive)
REMARK    1  A    between atoms: C_2  and  C_4
REMARK    2  A    between atoms: C_4  and  C_5
REMARK    3  A    between atoms: C_10  and  C_11
REMARK    4  A    between atoms: C_11  and  C_12
REMARK    5  A    between atoms: C_12  and  N_13
REMARK    6  A    between atoms: N_16  and  C_19
REMARK    7  A    between atoms: C_25  and  C_27
REMARK                            x       y       z     vdW  Elec       q    Type
REMARK                         _______ _______ _______ _____ _____    ______ ____
ROOT
ATOM      5  C   UNL     1      -0.969   2.559  25.164  0.00  0.00    +0.015 C 
ATOM      6  C   UNL     1      -0.767   3.334  25.359  0.00  0.00    +0.022 C 
ATOM      7  C   UNL     1      -1.359   3.899  25.469  0.00  0.00    +0.093 C 
ATOM      8  N   UNL     1      -2.152   3.688  25.384  0.00  0.00    -0.280 N 
ATOM      9  C   UNL     1      -2.353   2.912  25.189  0.00  0.00    +0.093 C 
ATOM     10  C   UNL     1      -1.762   2.348  25.079  0.00  0.00    +0.022 C 
ATOM     25  C   UNL     1      -2.743   4.252  25.494  0.00  0.00    +0.225 C 
ATOM     26  O   UNL     1      -2.542   5.029  25.689  0.00  0.00    -0.275 OA
ENDROOT
BRANCH  25  27
ATOM     27  C   UNL     1      -3.535   4.041  25.409  0.00  0.00    +0.077 C 
ATOM     28  C   UNL     1      -4.061   3.988  24.774  0.00  0.00    +0.009 C 
ATOM     29  C   UNL     1      -4.657   3.743  25.289  0.00  0.00    +0.001 C 
ATOM     30  C   UNL     1      -4.133   3.795  25.923  0.00  0.00    +0.009 C 
ENDBRANCH  25  27
BRANCH   5   4
ATOM      4  C   UNL     1      -0.377   1.995  25.054  0.00  0.00    +0.114 C 
BRANCH   4   2
ATOM      1  O   UNL     1       0.789   2.348  25.800  0.00  0.00    -0.246 OA
ATOM      2  C   UNL     1       0.415   2.219  25.075  0.00  0.00    +0.365 C 
ATOM      3  O   UNL     1       0.836   2.314  24.373  0.00  0.00    -0.246 OA
ENDBRANCH   4   2
ENDBRANCH   5   4
BRANCH  10  11
ATOM     11  C   UNL     1      -1.963   1.572  24.884  0.00  0.00    +0.019 C 
BRANCH  11  12
ATOM     12  C   UNL     1      -2.450   1.133  25.386  0.00  0.00    +0.072 C 
BRANCH  12  13
ATOM     13  N   UNL     1      -2.730   0.396  25.147  0.00  0.00    -0.270 NA
ATOM     14  C   UNL     1      -2.331  -0.290  25.372  0.00  0.00    +0.094 C 
ATOM     15  C   UNL     1      -2.611  -1.029  25.133  0.00  0.00    +0.108 C 
ATOM     16  N   UNL     1      -3.291  -1.081  24.669  0.00  0.00    -0.305 N 
ATOM     17  C   UNL     1      -3.691  -0.395  24.444  0.00  0.00    +0.108 C 
ATOM     18  C   UNL     1      -3.411   0.342  24.683  0.00  0.00    +0.094 C 
BRANCH  16  19
ATOM     19  C   UNL     1      -3.572  -1.820  24.431  0.00  0.00    +0.048 A 
ATOM     20  C   UNL     1      -4.163  -1.871  23.857  0.00  0.00    +0.015 A 
ATOM     21  C   UNL     1      -4.443  -2.609  23.618  0.00  0.00    +0.001 A 
ATOM     22  C   UNL     1      -4.133  -3.296  23.953  0.00  0.00    +0.000 A 
ATOM     23  C   UNL     1      -3.542  -3.245  24.527  0.00  0.00    +0.001 A 
ATOM     24  C   UNL     1      -3.261  -2.506  24.766  0.00  0.00    +0.015 A 
ENDBRANCH  16  19
ENDBRANCH  12  13
ENDBRANCH  11  12
ENDBRANCH  10  11
TORSDOF 7
ENDMDL
MODEL 3
REMARK VINA RESULT:     -10.6      0.895      2.819
REMARK  Name = 
REMARK  7 active torsions:
REMARK  status: ('A' for Active; 'I' for Inactive)
REMARK    1  A    between atoms: C_2  and  C_4
REMARK    2  A    between atoms: C_4  and  C_5
REMARK    3  A    between atoms: C_10  and  C_11
REMARK    4  A    between atoms: C_11  and  C_12
REMARK    5  A    between atoms: C_12  and  N_13
REMARK    6  A    between atoms: N_16  and  C_19
REMARK    7  A    between atoms: C_25  and  C_27
REMARK                            x       y       z     vdW  Elec       q    Type
REMARK                         _______ _______ _______ _____ _____    ______ ____
ROOT
ATOM      5  C   UNL     1      -2.766   3.480  25.097  0.00  0.00    +0.015 C 
ATOM      6  C   UNL     1      -3.156   4.193  25.237  0.00  0.00    +0.022 C 
ATOM      7  C   UNL     1      -3.969   4.196  25.384  0.00  0.00    +0.093 C 
ATOM      8  N   UNL     1      -4.389   3.487  25.392  0.00  0.00    -0.280 N 
ATOM      9  C   UNL     1      -3.998   2.774  25.252  0.00  0.00    +0.093 C 
ATOM     10  C   UNL     1      -3.186   2.771  25.104  0.00  0.00    +0.022 C 
ATOM     25  C   UNL     1      -5.200   3.490  25.539  0.00  0.00    +0.225 C 
ATOM     26  O   UNL     1      -5.592   4.203  25.679  0.00  0.00    -0.275 OA
ENDROOT
BRANCH  25  27
ATOM     27  C   UNL     1      -5.621   2.780  25.546  0.00  0.00    +0.077 C 
ATOM     28  C   UNL     1      -6.033   2.340  24.982  0.00  0.00    +0.009 C 
ATOM     29  C   UNL     1      -6.216   1.776  25.557  0.00  0.00    +0.001 C 
ATOM     30  C   UNL     1      -5.805   2.216  26.120  0.00  0.00    +0.009 C 
ENDBRANCH  25  27
BRANCH   5   4
ATOM      4  C   UNL     1      -1.954   3.478  24.950  0.00  0.00    +0.114 C 
BRANCH   4   2
ATOM      1  O   UNL     1      -1.316   4.755  24.906  0.00  0.00    -0.246 OA
ATOM      2  C   UNL     1      -1.470   4.045  25.299  0.00  0.00    +0.365 C 
ATOM      3  O   UNL     1      -1.138   3.905  26.041  0.00  0.00    -0.246 OA
ENDBRANCH   4   2
ENDBRANCH   5   4
BRANCH  10  11
ATOM     11  C   UNL     1      -2.796   2.058  24.964  0.00  0.00    +0.019 C 
BRANCH  11  12
ATOM     12  C   UNL     1      -2.962   1.622  24.284  0.00  0.00    +0.072 C 
BRANCH  12  13
ATOM     13  N   UNL     1      -2.981   0.798  24.316  0.00  0.00    -0.270 NA
ATOM     14  C   UNL     1      -2.571   0.400  24.910  0.00  0.00    +0.094 C 
ATOM     15  C   UNL     1      -2.589  -0.425  24.943  0.00  0.00    +0.108 C 
ATOM     16  N   UNL     1      -3.018  -0.850  24.380  0.00  0.00    -0.305 N 
ATOM     17  C   UNL     1      -3.428  -0.451  23.786  0.00  0.00    +0.108 C 
ATOM     18  C   UNL     1      -3.410   0.372  23.754  0.00  0.00    +0.094 C 
BRANCH  16  19
ATOM     19  C   UNL     1      -3.036  -1.675  24.413  0.00  0.00    +0.048 A 
ATOM     20  C   UNL     1      -2.331  -2.102  24.444  0.00  0.00    +0.015 A 
ATOM     21  C   UNL     1      -2.349  -2.926  24.476  0.00  0.00    +0.001 A 
ATOM     22  C   UNL     1      -3.073  -3.323  24.477  0.00  0.00    +0.000 A 
ATOM     23  C   UNL     1      -3.778  -2.896  24.446  0.00  0.00    +0.001 A 
ATOM     24  C   UNL     1      -3.760  -2.071  24.414  0.00  0.00    +0.015 A 
ENDBRANCH  16  19
ENDBRANCH  12  13
ENDBRANCH  11  12
ENDBRANCH  10  11
TORSDOF 7
ENDMDL
MODEL 4
REMARK VINA RESULT:     -10.0      2.820      4.633
REMARK  Name = 
REMARK  7 active torsions:
REMARK  status: ('A' for Active; 'I' for Inactive)
REMARK    1  A    between atoms: C_2  and  C_4
REMARK    2  A    between atoms: C_4  and  C_5
REMARK    3  A    between atoms: C_10  and  C_11
REMARK    4  A    between atoms: C_11  and  C_12
REMARK    5  A    between atoms: C_12  and  N_13
REMARK    6  A    between atoms: N_16  and  C_19
REMARK    7  A    between atoms: C_25  and  C_27
REMARK                            x       y       z     vdW  Elec       q    Type
REMARK                         _______ _______ _______ _____ _____    ______ ____
ROOT
ATOM      5  C   UNL     1      -3.690  -0.347  24.522  0.00  0.00    +0.015 C 
ATOM      6  C   UNL     1      -4.451  -0.253  24.826  0.00  0.00    +0.022 C 
ATOM      7  C   UNL     1      -4.753   0.504  24.954  0.00  0.00    +0.093 C 
ATOM      8  N   UNL     1      -4.294   1.167  24.779  0.00  0.00    -0.280 N 
ATOM      9  C   UNL     1      -3.532   1.072  24.475  0.00  0.00    +0.093 C 
ATOM     10  C   UNL     1      -3.230   0.316  24.346  0.00  0.00    +0.022 C 
ATOM     25  C   UNL     1      -4.595   1.923  24.908  0.00  0.00    +0.225 C 
ATOM     26  O   UNL     1      -5.357   2.018  25.212  0.00  0.00    -0.275 OA
ENDROOT
BRANCH  25  27
ATOM     27  C   UNL     1      -4.136   2.586  24.732  0.00  0.00    +0.077 C 
ATOM     28  C   UNL     1      -3.631   3.077  25.163  0.00  0.00    +0.009 C 
ATOM     29  C   UNL     1      -3.487   3.523  24.484  0.00  0.00    +0.001 C 
ATOM     30  C   UNL     1      -3.991   3.033  24.054  0.00  0.00    +0.009 C 
ENDBRANCH  25  27
BRANCH   5   4
ATOM      4  C   UNL     1      -3.388  -1.104  24.394  0.00  0.00    +0.114 C 
BRANCH   4   2
ATOM      1  O   UNL     1      -4.366  -2.016  23.890  0.00  0.00    -0.246 OA
ATOM      2  C   UNL     1      -3.871  -1.764  24.500  0.00  0.00    +0.365 C 
ATOM      3  O   UNL     1      -3.858  -2.172  25.217  0.00  0.00    -0.246 OA
ENDBRANCH   4   2
ENDBRANCH   5   4
BRANCH  10  11
ATOM     11  C   UNL     1      -2.470   0.221  24.043  0.00  0.00    +0.019 C 
BRANCH  11  12
ATOM     12  C   UNL     1      -1.817   0.479  24.476  0.00  0.00    +0.072 C 
BRANCH  12  13
ATOM     13  N   UNL     1      -1.062   0.444  24.146  0.00  0.00    -0.270 NA
ATOM     14  C   UNL     1      -0.602  -0.234  24.238  0.00  0.00    +0.094 C 
ATOM     15  C   UNL     1       0.154  -0.269  23.907  0.00  0.00    +0.108 C 
ATOM     16  N   UNL     1       0.448   0.376  23.484  0.00  0.00    -0.305 N 
ATOM     17  C   UNL     1      -0.012   1.054  23.392  0.00  0.00    +0.108 C 
ATOM     18  C   UNL     1      -0.767   1.088  23.722  0.00  0.00    +0.094 C 
BRANCH  16  19
ATOM     19  C   UNL     1       1.204   0.341  23.153  0.00  0.00    +0.048 A 
ATOM     20  C   UNL     1       1.801   0.835  23.436  0.00  0.00    +0.015 A 
ATOM     21  C   UNL     1       2.556   0.800  23.106  0.00  0.00    +0.001 A 
ATOM     22  C   UNL     1       2.714   0.271  22.492  0.00  0.00    +0.000 A 
ATOM     23  C   UNL     1       2.116  -0.222  22.209  0.00  0.00    +0.001 A 
ATOM     24  C   UNL     1       1.361  -0.188  22.540  0.00  0.00    +0.015 A 
ENDBRANCH  16  19
ENDBRANCH  12  13
ENDBRANCH  11  12
ENDBRANCH  10  11
TORSDOF 7
ENDMDL
MODEL 5
REMARK VINA RESULT:      -9.8      2.668      5.054
REMARK  Name = 
REMARK  7 active torsions:
REMARK  status: ('A' for Active; 'I' for Inactive)
REMARK    1  A    between atoms: C_2  and  C_4
REMARK    2  A    between atoms: C_4  and  C_5
REMARK    3  A    between atoms: C_10  and  C_11
REMARK    4  A    between atoms: C_11  and  C_12
REMARK    5  A    between atoms: C_12  and  N_13
REMARK    6  A    between atoms: N_16  and  C_19
REMARK    7  A    between atoms: C_25  and  C_27
REMARK                            x       y       z     vdW  Elec       q    Type
REMARK                         _______ _______ _______ _____ _____    ______ ____
ROOT
ATOM      5  C   UNL     1      -2.734  -1.754  24.607  0.00  0.00    +0.015 C 
ATOM      6  C   UNL     1      -2.084  -2.242  24.465  0.00  0.00    +0.022 C 
ATOM      7  C   UNL     1      -1.331  -1.912  24.386  0.00  0.00    +0.093 C 
ATOM      8  N   UNL     1      -1.229  -1.096  24.449  0.00  0.00    -0.280 N 
ATOM      9  C   UNL     1      -1.880  -0.610  24.592  0.00  0.00    +0.093 C 
ATOM     10  C   UNL     1      -2.632  -0.938  24.671  0.00  0.00    +0.022 C 
ATOM     25  C   UNL     1      -0.477  -0.767  24.371  0.00  0.00    +0.225 C 
ATOM     26  O   UNL     1       0.174  -1.254  24.228  0.00  0.00    -0.275 OA
ENDROOT
BRANCH  25  27
ATOM     27  C   UNL     1      -0.376   0.049  24.434  0.00  0.00    +0.077 C 
ATOM     28  C   UNL     1      -0.262   0.667  23.898  0.00  0.00    +0.009 C 
ATOM     29  C   UNL     1      -0.231   1.203  24.524  0.00  0.00    +0.001 C 
ATOM     30  C   UNL     1      -0.345   0.586  25.059  0.00  0.00    +0.009 C 
ENDBRANCH  25  27
BRANCH   5   4
ATOM      4  C   UNL     1      -3.486  -2.084  24.686  0.00  0.00    +0.114 C 
BRANCH   4   2
ATOM      1  O   UNL     1      -3.775  -3.303  24.000  0.00  0.00    -0.246 OA
ATOM      2  C   UNL     1      -3.579  -2.903  24.695  0.00  0.00    +0.365 C 
ATOM      3  O   UNL     1      -3.476  -3.323  25.397  0.00  0.00    -0.246 OA
ENDBRANCH   4   2
ENDBRANCH   5   4
BRANCH  10  11
ATOM     11  C   UNL     1      -3.282  -0.452  24.813  0.00  0.00    +0.019 C 
BRANCH  11  12
ATOM     12  C   UNL     1      -3.528   0.088  24.239  0.00  0.00    +0.072 C 
BRANCH  12  13
ATOM     13  N   UNL     1      -3.891   0.793  24.464  0.00  0.00    -0.270 NA
ATOM     14  C   UNL     1      -3.731   1.489  24.050  0.00  0.00    +0.094 C 
ATOM     15  C   UNL     1      -4.093   2.196  24.275  0.00  0.00    +0.108 C 
ATOM     16  N   UNL     1      -4.616   2.206  24.914  0.00  0.00    -0.305 N 
ATOM     17  C   UNL     1      -4.775   1.510  25.328  0.00  0.00    +0.108 C 
ATOM     18  C   UNL     1      -4.413   0.804  25.103  0.00  0.00    +0.094 C 
BRANCH  16  19
ATOM     19  C   UNL     1      -4.978   2.913  25.139  0.00  0.00    +0.048 A 
ATOM     20  C   UNL     1      -4.565   3.624  25.083  0.00  0.00    +0.015 A 
ATOM     21  C   UNL     1      -4.927   4.331  25.308  0.00  0.00    +0.001 A 
ATOM     22  C   UNL     1      -5.703   4.325  25.588  0.00  0.00    +0.000 A 
ATOM     23  C   UNL     1      -6.117   3.613  25.644  0.00  0.00    +0.001 A 
ATOM     24  C   UNL     1      -5.754   2.906  25.419  0.00  0.00    +0.015 A 
ENDBRANCH  16  19
ENDBRANCH  12  13
ENDBRANCH  11  12
ENDBRANCH  10  11
TORSDOF 7
ENDMDL
MODEL 6
REMARK VINA RESULT:      -9.6      2.748      6.147
REMARK  Name = 
REMARK  7 active torsions:
REMARK  status: ('A' for Active; 'I' for Inactive)
REMARK    1  A    between atoms: C_2  and  C_4
REMARK    2  A    between atoms: C_4  and  C_5
REMARK    3  A    between atoms: C_10  and  C_11
REMARK    4  A    between atoms: C_11  and  C_12
REMARK    5  A    between atoms: C_12  and  N_13
REMARK    6  A    between atoms: N_16  and  C_19
REMARK    7  A    between atoms: C_25  and  C_27
REMARK                            x       y       z     vdW  Elec       q    Type
REMARK                         _______ _______ _______ _____ _____    ______ ____
ROOT
ATOM      5  C   UNL     1      -0.358  -0.594  24.110  0.00  0.00    +0.015 C 
ATOM      6  C   UNL     1      -0.292  -1.416  24.094  0.00  0.00    +0.022 C 
ATOM      7  C   UNL     1      -0.935  -1.885  24.316  0.00  0.00    +0.093 C 
ATOM      8  N   UNL     1      -1.641  -1.531  24.554  0.00  0.00    -0.280 N 
ATOM      9  C   UNL     1      -1.706  -0.709  24.569  0.00  0.00    +0.093 C 
ATOM     10  C   UNL     1      -1.064  -0.240  24.347  0.00  0.00    +0.022 C 
ATOM     25  C   UNL     1      -2.282  -2.000  24.775  0.00  0.00    +0.225 C 
ATOM     26  O   UNL     1      -2.218  -2.822  24.760  0.00  0.00    -0.275 OA
ENDROOT
BRANCH  25  27
ATOM     27  C   UNL     1      -2.989  -1.646  25.013  0.00  0.00    +0.077 C 
ATOM     28  C   UNL     1      -3.676  -1.398  24.627  0.00  0.00    +0.009 C 
ATOM     29  C   UNL     1      -3.988  -1.146  25.348  0.00  0.00    +0.001 C 
ATOM     30  C   UNL     1      -3.302  -1.393  25.733  0.00  0.00    +0.009 C 
ENDBRANCH  25  27
BRANCH   5   4
ATOM      4  C   UNL     1       0.284  -0.126  23.888  0.00  0.00    +0.114 C 
BRANCH   4   2
ATOM      1  O   UNL     1       1.530  -0.738  23.548  0.00  0.00    -0.246 OA
ATOM      2  C   UNL     1       0.814  -0.396  23.318  0.00  0.00    +0.365 C 
ATOM      3  O   UNL     1       0.631  -0.326  22.517  0.00  0.00    -0.246 OA
ENDBRANCH   4   2
ENDBRANCH   5   4
BRANCH  10  11
ATOM     11  C   UNL     1      -1.129   0.581  24.362  0.00  0.00    +0.019 C 
BRANCH  11  12
ATOM     12  C   UNL     1      -1.387   0.963  25.047  0.00  0.00    +0.072 C 
BRANCH  12  13
ATOM     13  N   UNL     1      -1.437   1.786  25.067  0.00  0.00    -0.270 NA
ATOM     14  C   UNL     1      -1.956   2.180  24.562  0.00  0.00    +0.094 C 
ATOM     15  C   UNL     1      -2.006   3.004  24.582  0.00  0.00    +0.108 C 
ATOM     16  N   UNL     1      -1.536   3.432  25.108  0.00  0.00    -0.305 N 
ATOM     17  C   UNL     1      -1.017   3.038  25.614  0.00  0.00    +0.108 C 
ATOM     18  C   UNL     1      -0.968   2.215  25.593  0.00  0.00    +0.094 C 
BRANCH  16  19
ATOM     19  C   UNL     1      -1.586   4.256  25.128  0.00  0.00    +0.048 A 
ATOM     20  C   UNL     1      -2.271   4.621  25.409  0.00  0.00    +0.015 A 
ATOM     21  C   UNL     1      -2.321   5.444  25.429  0.00  0.00    +0.001 A 
ATOM     22  C   UNL     1      -1.686   5.903  25.169  0.00  0.00    +0.000 A 
ATOM     23  C   UNL     1      -1.001   5.538  24.888  0.00  0.00    +0.001 A 
ATOM     24  C   UNL     1      -0.951   4.714  24.868  0.00  0.00    +0.015 A 
ENDBRANCH  16  19
ENDBRANCH  12  13
ENDBRANCH  11  12
ENDBRANCH  10  11
TORSDOF 7
ENDMDL
