MODEL 1
REMARK VINA RESULT:     -12.4      0.000      0.000
REMARK  Name = 
REMARK  5 active torsions:
REMARK  status: ('A' for Active; 'I' for Inactive)
REMARK    1  A    between atoms: C_4  and  C_8
REMARK    2  A    between atoms: C_11  and  C_13
REMARK    3  A    between atoms: N_18  and  C_19
REMARK    4  A    between atoms: C_19  and  C_20
REMARK    5  A    between atoms: C_23  and  C_24
REMARK                            x       y       z     vdW  Elec       q    Type
REMARK                         _______ _______ _______ _____ _____    ______ ____
ROOT
ATOM     13  C   UNL     1      -4.300   2.034  24.870  0.00  0.00    +0.141 C 
ATOM     14  C   UNL     1      -5.072   2.273  25.033  0.00  0.00    +0.060 C 
ATOM     15  C   UNL     1      -5.043   3.043  25.327  0.00  0.00    +0.170 C 
ATOM     16  O   UNL     1      -5.691   3.497  25.561  0.00  0.00    -0.222 OA
ATOM     17  C   UNL     1      -4.253   3.280  25.345  0.00  0.00    +0.106 C 
ATOM     18  N   UNL     1      -3.794   2.656  25.063  0.00  0.00    -0.258 NA
ENDROOT
BRANCH  13  11
ATOM      8  C   UNL     1      -3.807  -0.003  24.463  0.00  0.00    +0.203 A 
ATOM      9  N   UNL     1      -3.642   0.349  23.736  0.00  0.00    -0.056 NA
ATOM     10  O   UNL     1      -3.806   1.155  23.800  0.00  0.00    -0.336 OA
ATOM     11  C   UNL     1      -4.073   1.300  24.567  0.00  0.00    +0.251 A 
ATOM     12  N   UNL     1      -4.074   0.585  24.977  0.00  0.00    -0.190 NA
BRANCH   8   4
ATOM      1  C   UNL     1      -4.178  -2.752  23.775  0.00  0.00    +0.031 C 
ATOM      2  C   UNL     1      -3.906  -2.178  24.302  0.00  0.00    -0.022 A 
ATOM      3  C   UNL     1      -3.992  -1.378  24.119  0.00  0.00    -0.001 A 
ATOM      4  C   UNL     1      -3.721  -0.803  24.645  0.00  0.00    +0.039 A 
ATOM      5  C   UNL     1      -3.363  -1.029  25.354  0.00  0.00    +0.003 A 
ATOM      6  C   UNL     1      -3.277  -1.829  25.536  0.00  0.00    -0.000 A 
ATOM      7  C   UNL     1      -3.549  -2.403  25.010  0.00  0.00    -0.004 A 
ENDBRANCH   8   4
ENDBRANCH  13  11
BRANCH  18  19
ATOM     19  C   UNL     1      -2.972   2.654  24.986  0.00  0.00    +0.138 C 
BRANCH  19  20
ATOM     20  C   UNL     1      -2.535   3.310  25.230  0.00  0.00    +0.139 A 
ATOM     21  C   UNL     1      -2.271   3.461  25.997  0.00  0.00    +0.037 A 
ATOM     22  C   UNL     1      -1.858   4.174  25.988  0.00  0.00    +0.038 A 
ATOM     23  C   UNL     1      -1.865   4.465  25.216  0.00  0.00    +0.156 A 
ATOM     26  O   UNL     1      -2.284   3.931  24.747  0.00  0.00    -0.458 OA
BRANCH  23  24
ATOM     24  C   UNL     1      -1.516   5.166  24.959  0.00  0.00    +0.246 C 
ATOM     25  O   UNL     1      -0.694   5.231  24.927  0.00  0.00    -0.212 OA
ENDBRANCH  23  24
ENDBRANCH  19  20
ENDBRANCH  18  19
TORSDOF 5
ENDMDL
MODEL 2
REMARK VINA RESULT:     -11.8      1.072      1.204
REMARK  Name = 
REMARK  5 active torsions:
REMARK  status: ('A' for Active; 'I' for Inactive)
REMARK    1  A    between atoms: C_4  and  C_8
REMARK    2  A    between atoms: C_11  and  C_13
REMARK    3  A    between atoms: N_18  and  C_19
REMARK    4  A    between atoms: C_19  and  C_20
REMARK    5  A    between atoms: C_23  and  C_24
REMARK                            x       y       z     vdW  Elec       q    Type
REMARK                         _______ _______ _______ _____ _____    ______ ____
ROOT
ATOM     13  C   UNL     1      -3.767   2.124  24.783  0.00  0.00    +0.141 C 
ATOM     14  C   UNL     1      -4.433   2.471  25.123  0.00  0.00    +0.060 C 
ATOM     15  C   UNL     1      -4.232   3.236  25.355  0.00  0.00    +0.170 C 
ATOM     16  O   UNL     1      -4.734   3.780  25.719  0.00  0.00    -0.222 OA
ATOM     17  C   UNL     1      -3.441   3.363  25.158  0.00  0.00    +0.106 C 
ATOM     18  N   UNL     1      -3.154   2.676  24.805  0.00  0.00    -0.258 NA
ENDROOT
BRANCH  13  11
ATOM      8  C   UNL     1      -3.658   0.030  24.383  0.00  0.00    +0.203 A 
ATOM      9  N   UNL     1      -3.643   0.339  23.619  0.00  0.00    -0.056 NA
ATOM     10  O   UNL     1      -3.682   1.161  23.676  0.00  0.00    -0.336 OA
ATOM     11  C   UNL     1      -3.721   1.360  24.475  0.00  0.00    +0.251 A 
ATOM     12  N   UNL     1      -3.707   0.661  24.913  0.00  0.00    -0.190 NA
BRANCH   8   4
ATOM      1  C   UNL     1      -4.260  -2.697  23.774  0.00  0.00    +0.031 C 
ATOM      2  C   UNL     1      -3.931  -2.133  24.280  0.00  0.00    -0.022 A 
ATOM      3  C   UNL     1      -3.959  -1.334  24.079  0.00  0.00    -0.001 A 
ATOM      4  C   UNL     1      -3.630  -0.770  24.584  0.00  0.00    +0.039 A 
ATOM      5  C   UNL     1      -3.273  -1.006  25.289  0.00  0.00    +0.003 A 
ATOM      6  C   UNL     1      -3.245  -1.806  25.490  0.00  0.00    -0.000 A 
ATOM      7  C   UNL     1      -3.574  -2.369  24.984  0.00  0.00    -0.004 A 
ENDBRANCH   8   4
ENDBRANCH  13  11
BRANCH  18  19
ATOM     19  C   UNL     1      -2.387   2.560  24.522  0.00  0.00    +0.138 C 
BRANCH  19  20
ATOM     20  C   UNL     1      -1.743   2.843  24.952  0.00  0.00    +0.139 A 
ATOM     21  C   UNL     1      -1.408   3.594  24.889  0.00  0.00    +0.037 A 
ATOM     22  C   UNL     1      -0.779   3.638  25.419  0.00  0.00    +0.038 A 
ATOM     23  C   UNL     1      -0.723   2.915  25.811  0.00  0.00    +0.156 A 
ATOM     26  O   UNL     1      -1.319   2.422  25.523  0.00  0.00    -0.458 OA
BRANCH  23  24
ATOM     24  C   UNL     1      -0.169   2.718  26.390  0.00  0.00    +0.246 C 
ATOM     25  O   UNL     1       0.595   2.496  26.172  0.00  0.00    -0.212 OA
ENDBRANCH  23  24
ENDBRANCH  19  20
ENDBRANCH  18  19
TORSDOF 5
ENDMDL
MODEL 3
REMARK VINA RESULT:     -11.7      2.230      5.615
REMARK  Name = 
REMARK  5 active torsions:
REMARK  status: ('A' for Active; 'I' for Inactive)
REMARK    1  A    between atoms: C_4  and  C_8
REMARK    2  A    between atoms: C_11  and  C_13
REMARK    3  A    between atoms: N_18  and  C_19
REMARK    4  A    between atoms: C_19  and  C_20
REMARK    5  A    between atoms: C_23  and  C_24
REMARK                            x       y       z     vdW  Elec       q    Type
REMARK                         _______ _______ _______ _____ _____    ______ ____
ROOT
ATOM     13  C   UNL     1      -0.710   0.662  24.879  0.00  0.00    +0.141 C 
ATOM     14  C   UNL     1      -0.110   0.451  24.354  0.00  0.00    +0.060 C 
ATOM     15  C   UNL     1      -0.257  -0.319  24.096  0.00  0.00    +0.170 C 
ATOM     16  O   UNL     1       0.206  -0.749  23.566  0.00  0.00    -0.222 OA
ATOM     17  C   UNL     1      -0.948  -0.583  24.462  0.00  0.00    +0.106 C 
ATOM     18  N   UNL     1      -1.228   0.024  24.945  0.00  0.00    -0.258 NA
ENDROOT
BRANCH  13  11
ATOM      8  C   UNL     1      -1.083   2.657  25.542  0.00  0.00    +0.203 A 
ATOM      9  N   UNL     1      -0.693   2.342  26.197  0.00  0.00    -0.056 NA
ATOM     10  O   UNL     1      -0.506   1.557  26.028  0.00  0.00    -0.336 OA
ATOM     11  C   UNL     1      -0.780   1.386  25.269  0.00  0.00    +0.251 A 
ATOM     12  N   UNL     1      -1.137   2.066  24.968  0.00  0.00    -0.190 NA
BRANCH   8   4
ATOM      1  C   UNL     1      -0.719   5.368  24.714  0.00  0.00    +0.031 C 
ATOM      2  C   UNL     1      -1.188   4.783  25.059  0.00  0.00    -0.022 A 
ATOM      3  C   UNL     1      -0.901   4.013  25.128  0.00  0.00    -0.001 A 
ATOM      4  C   UNL     1      -1.370   3.428  25.473  0.00  0.00    +0.039 A 
ATOM      5  C   UNL     1      -2.125   3.614  25.749  0.00  0.00    +0.003 A 
ATOM      6  C   UNL     1      -2.411   4.384  25.680  0.00  0.00    -0.000 A 
ATOM      7  C   UNL     1      -1.942   4.969  25.335  0.00  0.00    -0.004 A 
ENDBRANCH   8   4
ENDBRANCH  13  11
BRANCH  18  19
ATOM     19  C   UNL     1      -1.907  -0.003  25.413  0.00  0.00    +0.138 C 
BRANCH  19  20
ATOM     20  C   UNL     1      -2.505  -0.545  25.241  0.00  0.00    +0.139 A 
ATOM     21  C   UNL     1      -2.638  -1.261  25.627  0.00  0.00    +0.037 A 
ATOM     22  C   UNL     1      -3.290  -1.623  25.275  0.00  0.00    +0.038 A 
ATOM     23  C   UNL     1      -3.561  -1.130  24.672  0.00  0.00    +0.156 A 
ATOM     26  O   UNL     1      -3.076  -0.463  24.650  0.00  0.00    -0.458 OA
BRANCH  23  24
ATOM     24  C   UNL     1      -4.204  -1.278  24.177  0.00  0.00    +0.246 C 
ATOM     25  O   UNL     1      -4.318  -2.032  23.861  0.00  0.00    -0.212 OA
ENDBRANCH  23  24
ENDBRANCH  19  20
ENDBRANCH  18  19
TORSDOF 5
ENDMDL
MODEL 4
REMARK VINA RESULT:     -11.4      1.290      4.832
REMARK  Name = 
REMARK  5 active torsions:
REMARK  status: ('A' for Active; 'I' for Inactive)
REMARK    1  A    between atoms: C_4  and  C_8
REMARK    2  A    between atoms: C_11  and  C_13
REMARK    3  A    between atoms: N_18  and  C_19
REMARK    4  A    between atoms: C_19  and  C_20
REMARK    5  A    between atoms: C_23  and  C_24
REMARK                            x       y       z     vdW  Elec       q    Type
REMARK                         _______ _______ _______ _____ _____    ______ ____
ROOT
ATOM     13  C   UNL     1      -4.590   2.118  24.762  0.00  0.00    +0.141 C 
ATOM     14  C   UNL     1      -5.348   2.341  24.996  0.00  0.00    +0.060 C 
ATOM     15  C   UNL     1      -5.770   1.657  25.180  0.00  0.00    +0.170 C 
ATOM     16  O   UNL     1      -6.552   1.624  25.439  0.00  0.00    -0.222 OA
ATOM     17  C   UNL     1      -5.272   1.010  25.058  0.00  0.00    +0.106 C 
ATOM     18  N   UNL     1      -4.543   1.295  24.800  0.00  0.00    -0.258 NA
ENDROOT
BRANCH  13  11
ATOM      8  C   UNL     1      -2.896   3.400  24.552  0.00  0.00    +0.203 A 
ATOM      9  N   UNL     1      -3.210   3.425  23.790  0.00  0.00    -0.056 NA
ATOM     10  O   UNL     1      -3.882   2.948  23.776  0.00  0.00    -0.336 OA
ATOM     11  C   UNL     1      -3.984   2.628  24.529  0.00  0.00    +0.251 A 
ATOM     12  N   UNL     1      -3.375   2.907  25.009  0.00  0.00    -0.190 NA
BRANCH   8   4
ATOM      1  C   UNL     1      -0.139   3.368  25.305  0.00  0.00    +0.031 C 
ATOM      2  C   UNL     1      -0.843   3.783  25.189  0.00  0.00    -0.022 A 
ATOM      3  C   UNL     1      -1.517   3.385  24.929  0.00  0.00    -0.001 A 
ATOM      4  C   UNL     1      -2.222   3.798  24.812  0.00  0.00    +0.039 A 
ATOM      5  C   UNL     1      -2.251   4.611  24.956  0.00  0.00    +0.003 A 
ATOM      6  C   UNL     1      -1.577   5.009  25.216  0.00  0.00    -0.000 A 
ATOM      7  C   UNL     1      -0.873   4.594  25.332  0.00  0.00    -0.004 A 
ENDBRANCH   8   4
ENDBRANCH  13  11
BRANCH  18  19
ATOM     19  C   UNL     1      -3.881   0.838  24.612  0.00  0.00    +0.138 C 
BRANCH  19  20
ATOM     20  C   UNL     1      -3.927   0.015  24.648  0.00  0.00    +0.139 A 
ATOM     21  C   UNL     1      -3.772  -0.452  25.310  0.00  0.00    +0.037 A 
ATOM     22  C   UNL     1      -3.885  -1.240  25.098  0.00  0.00    +0.038 A 
ATOM     23  C   UNL     1      -4.108  -1.262  24.304  0.00  0.00    +0.156 A 
ATOM     26  O   UNL     1      -4.134  -0.486  24.025  0.00  0.00    -0.458 OA
BRANCH  23  24
ATOM     24  C   UNL     1      -4.276  -1.940  23.866  0.00  0.00    +0.246 C 
ATOM     25  O   UNL     1      -3.934  -2.662  24.074  0.00  0.00    -0.212 OA
ENDBRANCH  23  24
ENDBRANCH  19  20
ENDBRANCH  18  19
TORSDOF 5
ENDMDL
MODEL 5
REMARK VINA RESULT:     -11.1      2.271      4.542
REMARK  Name = 
REMARK  5 active torsions:
REMARK  status: ('A' for Active; 'I' for Inactive)
REMARK    1  A    between atoms: C_4  and  C_8
REMARK    2  A    between atoms: C_11  and  C_13
REMARK    3  A    between atoms: N_18  and  C_19
REMARK    4  A    between atoms: C_19  and  C_20
REMARK    5  A    between atoms: C_23  and  C_24
REMARK                            x       y       z     vdW  Elec       q    Type
REMARK                         _______ _______ _______ _____ _____    ______ ____
ROOT
ATOM     13  C   UNL     1      -1.243   2.506  25.197  0.00  0.00    +0.141 C 
ATOM     14  C   UNL     1      -0.778   2.882  25.765  0.00  0.00    +0.060 C 
ATOM     15  C   UNL     1      -0.078   2.453  25.846  0.00  0.00    +0.170 C 
ATOM     16  O   UNL     1       0.545   2.633  26.355  0.00  0.00    -0.222 OA
ATOM     17  C   UNL     1      -0.111   1.811  25.327  0.00  0.00    +0.106 C 
ATOM     18  N   UNL     1      -0.831   1.844  24.927  0.00  0.00    -0.258 NA
ENDROOT
BRANCH  13  11
ATOM      8  C   UNL     1      -3.306   2.968  24.897  0.00  0.00    +0.203 A 
ATOM      9  N   UNL     1      -2.971   3.279  24.210  0.00  0.00    -0.056 NA
ATOM     10  O   UNL     1      -2.158   3.144  24.239  0.00  0.00    -0.336 OA
ATOM     11  C   UNL     1      -1.990   2.749  24.944  0.00  0.00    +0.251 A 
ATOM     12  N   UNL     1      -2.699   2.640  25.350  0.00  0.00    -0.190 NA
BRANCH   8   4
ATOM      1  C   UNL     1      -5.863   1.693  24.959  0.00  0.00    +0.031 C 
ATOM      2  C   UNL     1      -5.385   2.345  25.126  0.00  0.00    -0.022 A 
ATOM      3  C   UNL     1      -4.585   2.331  24.928  0.00  0.00    -0.001 A 
ATOM      4  C   UNL     1      -4.107   2.982  25.095  0.00  0.00    +0.039 A 
ATOM      5  C   UNL     1      -4.430   3.647  25.462  0.00  0.00    +0.003 A 
ATOM      6  C   UNL     1      -5.230   3.661  25.660  0.00  0.00    -0.000 A 
ATOM      7  C   UNL     1      -5.708   3.009  25.492  0.00  0.00    -0.004 A 
ENDBRANCH   8   4
ENDBRANCH  13  11
BRANCH  18  19
ATOM     19  C   UNL     1      -1.094   1.309  24.356  0.00  0.00    +0.138 C 
BRANCH  19  20
ATOM     20  C   UNL     1      -0.837   0.526  24.376  0.00  0.00    +0.139 A 
ATOM     21  C   UNL     1      -0.233   0.201  23.919  0.00  0.00    +0.037 A 
ATOM     22  C   UNL     1      -0.162  -0.595  24.119  0.00  0.00    +0.038 A 
ATOM     23  C   UNL     1      -0.722  -0.764  24.700  0.00  0.00    +0.156 A 
ATOM     26  O   UNL     1      -1.140  -0.070  24.860  0.00  0.00    -0.458 OA
BRANCH  23  24
ATOM     24  C   UNL     1      -0.844  -1.496  25.059  0.00  0.00    +0.246 C 
ATOM     25  O   UNL     1      -0.247  -1.838  25.515  0.00  0.00    -0.212 OA
ENDBRANCH  23  24
ENDBRANCH  19  20
ENDBRANCH  18  19
TORSDOF 5
ENDMDL
MODEL 6
REMARK VINA RESULT:     -11.1      1.992      2.860
REMARK  Name = 
REMARK  5 active torsions:
REMARK  status: ('A' for Active; 'I' for Inactive)
REMARK    1  A    between atoms: C_4  and  C_8
REMARK    2  A    between atoms: C_11  and  C_13
REMARK    3  A    between atoms: N_18  and  C_19
REMARK    4  A    between atoms: C_19  and  C_20
REMARK    5  A    between atoms: C_23  and  C_24
REMARK                            x       y       z     vdW  Elec       q    Type
REMARK                         _______ _______ _______ _____ _____    ______ ____
ROOT
ATOM     13  C   UNL     1      -0.839   0.905  24.854  0.00  0.00    +0.141 C 
ATOM     14  C   UNL     1      -0.172   0.835  24.374  0.00  0.00    +0.060 C 
ATOM     15  C   UNL     1       0.195   1.572  24.338  0.00  0.00    +0.170 C 
ATOM     16  O   UNL     1       0.882   1.752  23.918  0.00  0.00    -0.222 OA
ATOM     17  C   UNL     1      -0.245   2.099  24.796  0.00  0.00    +0.106 C 
ATOM     18  N   UNL     1      -0.884   1.687  25.115  0.00  0.00    -0.258 NA
ENDROOT
BRANCH  13  11
ATOM      8  C   UNL     1      -2.350  -0.600  24.953  0.00  0.00    +0.203 A 
ATOM      9  N   UNL     1      -2.015  -0.660  25.705  0.00  0.00    -0.056 NA
ATOM     10  O   UNL     1      -1.409  -0.104  25.759  0.00  0.00    -0.336 OA
ATOM     11  C   UNL     1      -1.369   0.300  25.041  0.00  0.00    +0.251 A 
ATOM     12  N   UNL     1      -1.950  -0.006  24.543  0.00  0.00    -0.190 NA
BRANCH   8   4
ATOM      1  C   UNL     1      -3.514  -3.154  24.417  0.00  0.00    +0.031 C 
ATOM      2  C   UNL     1      -3.558  -2.331  24.395  0.00  0.00    -0.022 A 
ATOM      3  C   UNL     1      -2.933  -1.877  24.685  0.00  0.00    -0.001 A 
ATOM      4  C   UNL     1      -2.975  -1.053  24.663  0.00  0.00    +0.039 A 
ATOM      5  C   UNL     1      -3.643  -0.683  24.350  0.00  0.00    +0.003 A 
ATOM      6  C   UNL     1      -4.268  -1.137  24.059  0.00  0.00    -0.000 A 
ATOM      7  C   UNL     1      -4.225  -1.961  24.082  0.00  0.00    -0.004 A 
ENDBRANCH   8   4
ENDBRANCH  13  11
BRANCH  18  19
ATOM     19  C   UNL     1      -1.467   2.000  25.608  0.00  0.00    +0.138 C 
BRANCH  19  20
ATOM     20  C   UNL     1      -1.744   2.767  25.482  0.00  0.00    +0.139 A 
ATOM     21  C   UNL     1      -1.438   3.456  25.817  0.00  0.00    +0.037 A 
ATOM     22  C   UNL     1      -1.882   4.092  25.539  0.00  0.00    +0.038 A 
ATOM     23  C   UNL     1      -2.463   3.799  25.033  0.00  0.00    +0.156 A 
ATOM     26  O   UNL     1      -2.378   2.978  24.997  0.00  0.00    -0.458 OA
BRANCH  23  24
ATOM     24  C   UNL     1      -3.029   4.245  24.633  0.00  0.00    +0.246 C 
ATOM     25  O   UNL     1      -3.743   3.900  24.406  0.00  0.00    -0.212 OA
ENDBRANCH  23  24
ENDBRANCH  19  20
ENDBRANCH  18  19
TORSDOF 5
ENDMDL
