MODEL 1
REMARK VINA RESULT:     -11.5      0.000      0.000
REMARK  Name = 
REMARK  9 active torsions:
REMARK  status: ('A' for Active; 'I' for Inactive)
REMARK    1  A    between atoms: O_2  and  C_3
REMARK    2  A    between atoms: C_6  and  C_7
REMARK    3  A    between atoms: C_7  and  C_8
REMARK    4  A    between atoms: C_8  and  N_9
REMARK    5  A    between atoms: C_8  and  C_32
REMARK    6  A    between atoms: C_10  and  C_12
REMARK    7  A    between atoms: C_14  and  N_15
REMARK    8  A    between atoms: C_16  and  C_18
REMARK    9  A    between atoms: C_20  and  O_21
REMARK                            x       y       z     vdW  Elec       q    Type
REMARK                         _______ _______ _______ _____ _____    ______ ____
ROOT
ATOM     12  C   UNL     1      -4.046   2.662  24.873  0.00  0.00    +0.033 C 
ATOM     13  C   UNL     1      -3.956   1.856  24.719  0.00  0.00    -0.002 C 
ATOM     14  C   UNL     1      -4.592   1.343  24.828  0.00  0.00    +0.150 C 
ATOM     27  C   UNL     1      -5.317   1.634  25.091  0.00  0.00    +0.206 C 
ATOM     28  O   UNL     1      -5.954   1.121  25.200  0.00  0.00    -0.218 OA
ATOM     29  C   UNL     1      -5.406   2.440  25.245  0.00  0.00    +0.189 C 
ATOM     30  O   UNL     1      -6.132   2.732  25.508  0.00  0.00    -0.220 OA
ATOM     31  C   UNL     1      -4.771   2.954  25.136  0.00  0.00    +0.066 C 
ENDROOT
BRANCH  12  10
ATOM      9  N   UNL     1      -2.676   3.002  25.099  0.00  0.00    -0.194 NA
ATOM     10  C   UNL     1      -3.409   3.176  24.764  0.00  0.00    +0.261 C 
ATOM     11  O   UNL     1      -3.507   3.865  24.319  0.00  0.00    -0.269 OA
BRANCH   9   8
ATOM      8  C   UNL     1      -2.039   3.516  24.990  0.00  0.00    +0.179 C 
BRANCH   8  32
ATOM     32  C   UNL     1      -1.940   4.162  25.494  0.00  0.00    +0.281 C 
ATOM     33  N   UNL     1      -1.726   4.897  25.187  0.00  0.00    -0.086 NA
ATOM     34  O   UNL     1      -2.055   4.071  26.306  0.00  0.00    -0.270 OA
ENDBRANCH   8  32
BRANCH   8   7
ATOM      7  C   UNL     1      -1.503   3.385  24.377  0.00  0.00    +0.057 C 
BRANCH   7   6
ATOM      3  C   UNL     1      -0.144   1.317  24.344  0.00  0.00    +0.139 A 
ATOM      4  C   UNL     1      -0.101   1.828  24.990  0.00  0.00    +0.037 A 
ATOM      5  C   UNL     1      -0.554   2.518  25.000  0.00  0.00    -0.001 A 
ATOM      6  C   UNL     1      -1.050   2.696  24.366  0.00  0.00    -0.020 A 
ATOM     35  C   UNL     1      -1.093   2.184  23.720  0.00  0.00    -0.001 A 
ATOM     36  C   UNL     1      -0.641   1.495  23.709  0.00  0.00    +0.037 A 
BRANCH   3   2
ATOM      1  C   UNL     1       0.033  -0.040  23.935  0.00  0.00    +0.252 C 
ATOM      2  O   UNL     1       0.308   0.627  24.333  0.00  0.00    -0.471 OA
ENDBRANCH   3   2
ENDBRANCH   7   6
ENDBRANCH   8   7
ENDBRANCH   9   8
ENDBRANCH  12  10
BRANCH  14  15
ATOM     15  N   UNL     1      -4.503   0.537  24.674  0.00  0.00    -0.196 NA
ATOM     16  C   UNL     1      -3.916   0.106  25.061  0.00  0.00    +0.266 C 
ATOM     17  O   UNL     1      -3.418   0.480  25.603  0.00  0.00    -0.268 OA
BRANCH  16  18
ATOM     18  C   UNL     1      -3.827  -0.700  24.907  0.00  0.00    +0.064 A 
ATOM     19  C   UNL     1      -4.181  -1.034  24.241  0.00  0.00    +0.042 A 
ATOM     20  C   UNL     1      -4.092  -1.840  24.087  0.00  0.00    +0.139 A 
ATOM     23  C   UNL     1      -3.649  -2.310  24.600  0.00  0.00    +0.037 A 
ATOM     24  C   UNL     1      -3.295  -1.976  25.265  0.00  0.00    +0.010 A 
ATOM     25  C   UNL     1      -3.384  -1.171  25.419  0.00  0.00    +0.039 A 
ATOM     26 BR   UNL     1      -3.030  -0.837  26.084  0.00  0.00    -0.049 Br
BRANCH  20  21
ATOM     21  O   UNL     1      -4.447  -2.174  23.421  0.00  0.00    -0.471 OA
ATOM     22  C   UNL     1      -4.453  -2.994  23.325  0.00  0.00    +0.252 C 
ENDBRANCH  20  21
ENDBRANCH  16  18
ENDBRANCH  14  15
TORSDOF 9
ENDMDL
MODEL 2
REMARK VINA RESULT:     -11.4      0.986      3.408
REMARK  Name = 
REMARK  9 active torsions:
REMARK  status: ('A' for Active; 'I' for Inactive)
REMARK    1  A    between atoms: O_2  and  C_3
REMARK    2  A    between atoms: C_6  and  C_7
REMARK    3  A    between atoms: C_7  and  C_8
REMARK    4  A    between atoms: C_8  and  N_9
REMARK    5  A    between atoms: C_8  and  C_32
REMARK    6  A    between atoms: C_10  and  C_12
REMARK    7  A    between atoms: C_14  and  N_15
REMARK    8  A    between atoms: C_16  and  C_18
REMARK    9  A    between atoms: C_20  and  O_21
REMARK                            x       y       z     vdW  Elec       q    Type
REMARK                         _______ _______ _______ _____ _____    ______ ____
ROOT
ATOM     12  C   UNL     1      -1.030   2.001  24.250  0.00  0.00    +0.033 C 
ATOM     13  C   UNL     1      -1.538   1.352  24.279  0.00  0.00    -0.002 C 
ATOM     14  C   UNL     1      -1.239   0.590  24.182  0.00  0.00    +0.150 C 
ATOM     27  C   UNL     1      -0.433   0.476  24.055  0.00  0.00    +0.206 C 
ATOM     28  O   UNL     1      -0.133  -0.286  23.958  0.00  0.00    -0.218 OA
ATOM     29  C   UNL     1       0.076   1.125  24.026  0.00  0.00    +0.189 C 
ATOM     30  O   UNL     1       0.884   1.012  23.900  0.00  0.00    -0.220 OA
ATOM     31  C   UNL     1      -0.223   1.888  24.124  0.00  0.00    +0.066 C 
ENDROOT
BRANCH  12  10
ATOM      9  N   UNL     1      -1.935   2.904  24.890  0.00  0.00    -0.194 NA
ATOM     10  C   UNL     1      -1.329   2.765  24.348  0.00  0.00    +0.261 C 
ATOM     11  O   UNL     1      -1.021   3.388  23.903  0.00  0.00    -0.269 OA
BRANCH   9   8
ATOM      8  C   UNL     1      -2.234   3.668  24.988  0.00  0.00    +0.179 C 
BRANCH   8  32
ATOM     32  C   UNL     1      -1.845   4.202  25.482  0.00  0.00    +0.281 C 
ATOM     33  N   UNL     1      -1.666   4.960  25.211  0.00  0.00    -0.086 NA
ATOM     34  O   UNL     1      -1.637   3.977  26.248  0.00  0.00    -0.270 OA
ENDBRANCH   8  32
BRANCH   8   7
ATOM      7  C   UNL     1      -2.921   3.896  24.592  0.00  0.00    +0.057 C 
BRANCH   7   6
ATOM      3  C   UNL     1      -5.093   2.877  25.196  0.00  0.00    +0.139 A 
ATOM      4  C   UNL     1      -4.668   3.306  25.758  0.00  0.00    +0.037 A 
ATOM      5  C   UNL     1      -3.944   3.645  25.556  0.00  0.00    -0.001 A 
ATOM      6  C   UNL     1      -3.644   3.556  24.793  0.00  0.00    -0.020 A 
ATOM     35  C   UNL     1      -4.069   3.128  24.231  0.00  0.00    -0.001 A 
ATOM     36  C   UNL     1      -4.794   2.788  24.432  0.00  0.00    +0.037 A 
BRANCH   3   2
ATOM      1  C   UNL     1      -5.877   1.722  25.496  0.00  0.00    +0.252 C 
ATOM      2  O   UNL     1      -5.818   2.537  25.397  0.00  0.00    -0.471 OA
ENDBRANCH   3   2
ENDBRANCH   7   6
ENDBRANCH   8   7
ENDBRANCH   9   8
ENDBRANCH  12  10
BRANCH  14  15
ATOM     15  N   UNL     1      -1.748  -0.059  24.211  0.00  0.00    -0.196 NA
ATOM     16  C   UNL     1      -2.242  -0.167  24.862  0.00  0.00    +0.266 C 
ATOM     17  O   UNL     1      -2.228   0.374  25.485  0.00  0.00    -0.268 OA
BRANCH  16  18
ATOM     18  C   UNL     1      -2.751  -0.817  24.891  0.00  0.00    +0.064 A 
ATOM     19  C   UNL     1      -3.241  -0.985  24.249  0.00  0.00    +0.042 A 
ATOM     20  C   UNL     1      -3.749  -1.635  24.278  0.00  0.00    +0.139 A 
ATOM     23  C   UNL     1      -3.767  -2.114  24.949  0.00  0.00    +0.037 A 
ATOM     24  C   UNL     1      -3.277  -1.945  25.590  0.00  0.00    +0.010 A 
ATOM     25  C   UNL     1      -2.769  -1.296  25.561  0.00  0.00    +0.039 A 
ATOM     26 BR   UNL     1      -2.279  -1.128  26.203  0.00  0.00    -0.049 Br
BRANCH  20  21
ATOM     21  O   UNL     1      -4.239  -1.803  23.636  0.00  0.00    -0.471 OA
ATOM     22  C   UNL     1      -4.457  -2.584  23.477  0.00  0.00    +0.252 C 
ENDBRANCH  20  21
ENDBRANCH  16  18
ENDBRANCH  14  15
TORSDOF 9
ENDMDL
MODEL 3
REMARK VINA RESULT:     -11.3      1.515      4.427
REMARK  Name = 
REMARK  9 active torsions:
REMARK  status: ('A' for Active; 'I' for Inactive)
REMARK    1  A    between atoms: O_2  and  C_3
REMARK    2  A    between atoms: C_6  and  C_7
REMARK    3  A    between atoms: C_7  and  C_8
REMARK    4  A    between atoms: C_8  and  N_9
REMARK    5  A    between atoms: C_8  and  C_32
REMARK    6  A    between atoms: C_10  and  C_12
REMARK    7  A    between atoms: C_14  and  N_15
REMARK    8  A    between atoms: C_16  and  C_18
REMARK    9  A    between atoms: C_20  and  O_21
REMARK                            x       y       z     vdW  Elec       q    Type
REMARK                         _______ _______ _______ _____ _____    ______ ____
ROOT
ATOM     12  C   UNL     1      -4.280   0.733  24.983  0.00  0.00    +0.033 C 
ATOM     13  C   UNL     1      -3.705   1.317  24.888  0.00  0.00    -0.002 C 
ATOM     14  C   UNL     1      -3.929   2.094  24.727  0.00  0.00    +0.150 C 
ATOM     27  C   UNL     1      -4.728   2.287  24.661  0.00  0.00    +0.206 C 
ATOM     28  O   UNL     1      -4.953   3.065  24.500  0.00  0.00    -0.218 OA
ATOM     29  C   UNL     1      -5.303   1.703  24.757  0.00  0.00    +0.189 C 
ATOM     30  O   UNL     1      -6.103   1.896  24.691  0.00  0.00    -0.220 OA
ATOM     31  C   UNL     1      -5.079   0.926  24.918  0.00  0.00    +0.066 C 
ENDROOT
BRANCH  12  10
ATOM      9  N   UNL     1      -3.532  -0.436  24.640  0.00  0.00    -0.194 NA
ATOM     10  C   UNL     1      -4.055  -0.045  25.144  0.00  0.00    +0.261 C 
ATOM     11  O   UNL     1      -4.353  -0.431  25.811  0.00  0.00    -0.269 OA
BRANCH   9   8
ATOM      8  C   UNL     1      -3.308  -1.214  24.801  0.00  0.00    +0.179 C 
BRANCH   8  32
ATOM     32  C   UNL     1      -3.742  -1.842  24.487  0.00  0.00    +0.281 C 
ATOM     33  N   UNL     1      -3.877  -2.518  24.940  0.00  0.00    -0.086 NA
ATOM     34  O   UNL     1      -4.040  -1.792  23.720  0.00  0.00    -0.270 OA
ENDBRANCH   8  32
BRANCH   8   7
ATOM      7  C   UNL     1      -2.650  -1.364  25.276  0.00  0.00    +0.057 C 
BRANCH   7   6
ATOM      3  C   UNL     1      -0.373  -0.947  24.402  0.00  0.00    +0.139 A 
ATOM      4  C   UNL     1      -0.858  -1.508  24.040  0.00  0.00    +0.037 A 
ATOM      5  C   UNL     1      -1.617  -1.647  24.332  0.00  0.00    -0.001 A 
ATOM      6  C   UNL     1      -1.891  -1.225  24.985  0.00  0.00    -0.020 A 
ATOM     35  C   UNL     1      -1.407  -0.664  25.347  0.00  0.00    -0.001 A 
ATOM     36  C   UNL     1      -0.648  -0.525  25.056  0.00  0.00    +0.037 A 
BRANCH   3   2
ATOM      1  C   UNL     1       0.495  -0.307  23.465  0.00  0.00    +0.252 C 
ATOM      2  O   UNL     1       0.386  -0.808  24.111  0.00  0.00    -0.471 OA
ENDBRANCH   3   2
ENDBRANCH   7   6
ENDBRANCH   8   7
ENDBRANCH   9   8
ENDBRANCH  12  10
BRANCH  14  15
ATOM     15  N   UNL     1      -3.355   2.678  24.632  0.00  0.00    -0.196 NA
ATOM     16  C   UNL     1      -2.838   2.852  25.250  0.00  0.00    +0.266 C 
ATOM     17  O   UNL     1      -2.894   2.442  25.964  0.00  0.00    -0.268 OA
BRANCH  16  18
ATOM     18  C   UNL     1      -2.262   3.437  25.155  0.00  0.00    +0.064 A 
ATOM     19  C   UNL     1      -1.638   3.319  24.628  0.00  0.00    +0.042 A 
ATOM     20  C   UNL     1      -1.063   3.903  24.533  0.00  0.00    +0.139 A 
ATOM     23  C   UNL     1      -1.113   4.604  24.964  0.00  0.00    +0.037 A 
ATOM     24  C   UNL     1      -1.737   4.722  25.490  0.00  0.00    +0.010 A 
ATOM     25  C   UNL     1      -2.312   4.138  25.586  0.00  0.00    +0.039 A 
ATOM     26 BR   UNL     1      -2.936   4.255  26.111  0.00  0.00    -0.049 Br
BRANCH  20  21
ATOM     21  O   UNL     1      -0.439   3.785  24.006  0.00  0.00    -0.471 OA
ATOM     22  C   UNL     1       0.163   3.251  24.194  0.00  0.00    +0.252 C 
ENDBRANCH  20  21
ENDBRANCH  16  18
ENDBRANCH  14  15
TORSDOF 9
ENDMDL
MODEL 4
REMARK VINA RESULT:     -11.3      1.647      4.148
REMARK  Name = 
REMARK  9 active torsions:
REMARK  status: ('A' for Active; 'I' for Inactive)
REMARK    1  A    between atoms: O_2  and  C_3
REMARK    2  A    between atoms: C_6  and  C_7
REMARK    3  A    between atoms: C_7  and  C_8
REMARK    4  A    between atoms: C_8  and  N_9
REMARK    5  A    between atoms: C_8  and  C_32
REMARK    6  A    between atoms: C_10  and  C_12
REMARK    7  A    between atoms: C_14  and  N_15
REMARK    8  A    between atoms: C_16  and  C_18
REMARK    9  A    between atoms: C_20  and  O_21
REMARK                            x       y       z     vdW  Elec       q    Type
REMARK                         _______ _______ _______ _____ _____    ______ ____
ROOT
ATOM     12  C   UNL     1      -3.800   0.150  24.870  0.00  0.00    +0.033 C 
ATOM     13  C   UNL     1      -3.048   0.281  24.558  0.00  0.00    -0.002 C 
ATOM     14  C   UNL     1      -2.453  -0.280  24.668  0.00  0.00    +0.150 C 
ATOM     27  C   UNL     1      -2.610  -0.970  25.090  0.00  0.00    +0.206 C 
ATOM     28  O   UNL     1      -2.015  -1.531  25.201  0.00  0.00    -0.218 OA
ATOM     29  C   UNL     1      -3.363  -1.101  25.402  0.00  0.00    +0.189 C 
ATOM     30  O   UNL     1      -3.521  -1.792  25.824  0.00  0.00    -0.220 OA
ATOM     31  C   UNL     1      -3.958  -0.541  25.292  0.00  0.00    +0.066 C 
ENDROOT
BRANCH  12  10
ATOM      9  N   UNL     1      -4.408   1.397  25.218  0.00  0.00    -0.194 NA
ATOM     10  C   UNL     1      -4.396   0.711  24.759  0.00  0.00    +0.261 C 
ATOM     11  O   UNL     1      -4.980   0.586  24.189  0.00  0.00    -0.269 OA
BRANCH   9   8
ATOM      8  C   UNL     1      -5.003   1.958  25.108  0.00  0.00    +0.179 C 
BRANCH   8  32
ATOM     32  C   UNL     1      -5.750   1.836  25.437  0.00  0.00    +0.281 C 
ATOM     33  N   UNL     1      -6.423   1.876  24.961  0.00  0.00    -0.086 NA
ATOM     34  O   UNL     1      -5.822   1.673  26.242  0.00  0.00    -0.270 OA
ENDBRANCH   8  32
BRANCH   8   7
ATOM      7  C   UNL     1      -4.852   2.639  24.668  0.00  0.00    +0.057 C 
BRANCH   7   6
ATOM      3  C   UNL     1      -3.122   4.239  25.424  0.00  0.00    +0.139 A 
ATOM      4  C   UNL     1      -3.668   3.937  25.963  0.00  0.00    +0.037 A 
ATOM      5  C   UNL     1      -4.245   3.404  25.711  0.00  0.00    -0.001 A 
ATOM      6  C   UNL     1      -4.276   3.172  24.920  0.00  0.00    -0.020 A 
ATOM     35  C   UNL     1      -3.729   3.474  24.381  0.00  0.00    -0.001 A 
ATOM     36  C   UNL     1      -3.152   4.007  24.632  0.00  0.00    +0.037 A 
BRANCH   3   2
ATOM      1  C   UNL     1      -1.837   4.841  25.258  0.00  0.00    +0.252 C 
ATOM      2  O   UNL     1      -2.545   4.772  25.675  0.00  0.00    -0.471 OA
ENDBRANCH   3   2
ENDBRANCH   7   6
ENDBRANCH   8   7
ENDBRANCH   9   8
ENDBRANCH  12  10
BRANCH  14  15
ATOM     15  N   UNL     1      -1.701  -0.149  24.356  0.00  0.00    -0.196 NA
ATOM     16  C   UNL     1      -1.250   0.489  24.620  0.00  0.00    +0.266 C 
ATOM     17  O   UNL     1      -1.551   0.997  25.196  0.00  0.00    -0.268 OA
BRANCH  16  18
ATOM     18  C   UNL     1      -0.497   0.620  24.308  0.00  0.00    +0.064 A 
ATOM     19  C   UNL     1      -0.211   0.134  23.706  0.00  0.00    +0.042 A 
ATOM     20  C   UNL     1       0.542   0.264  23.394  0.00  0.00    +0.139 A 
ATOM     23  C   UNL     1       1.008   0.880  23.685  0.00  0.00    +0.037 A 
ATOM     24  C   UNL     1       0.721   1.365  24.287  0.00  0.00    +0.010 A 
ATOM     25  C   UNL     1      -0.031   1.235  24.599  0.00  0.00    +0.039 A 
ATOM     26 BR   UNL     1      -0.318   1.720  25.201  0.00  0.00    -0.049 Br
BRANCH  20  21
ATOM     21  O   UNL     1       0.828  -0.221  22.791  0.00  0.00    -0.471 OA
ATOM     22  C   UNL     1       1.615  -0.157  22.548  0.00  0.00    +0.252 C 
ENDBRANCH  20  21
ENDBRANCH  16  18
ENDBRANCH  14  15
TORSDOF 9
ENDMDL
MODEL 5
REMARK VINA RESULT:     -10.9      1.606      4.573
REMARK  Name = 
REMARK  9 active torsions:
REMARK  status: ('A' for Active; 'I' for Inactive)
REMARK    1  A    between atoms: O_2  and  C_3
REMARK    2  A    between atoms: C_6  and  C_7
REMARK    3  A    between atoms: C_7  and  C_8
REMARK    4  A    between atoms: C_8  and  N_9
REMARK    5  A    between atoms: C_8  and  C_32
REMARK    6  A    between atoms: C_10  and  C_12
REMARK    7  A    between atoms: C_14  and  N_15
REMARK    8  A    between atoms: C_16  and  C_18
REMARK    9  A    between atoms: C_20  and  O_21
REMARK                            x       y       z     vdW  Elec       q    Type
REMARK                         _______ _______ _______ _____ _____    ______ ____
ROOT
ATOM     12  C   UNL     1      -1.203   1.634  24.946  0.00  0.00    +0.033 C 
ATOM     13  C   UNL     1      -1.982   1.785  25.169  0.00  0.00    -0.002 C 
ATOM     14  C   UNL     1      -2.308   2.533  25.050  0.00  0.00    +0.150 C 
ATOM     27  C   UNL     1      -1.854   3.130  24.708  0.00  0.00    +0.206 C 
ATOM     28  O   UNL     1      -2.180   3.879  24.589  0.00  0.00    -0.218 OA
ATOM     29  C   UNL     1      -1.075   2.980  24.485  0.00  0.00    +0.189 C 
ATOM     30  O   UNL     1      -0.620   3.578  24.143  0.00  0.00    -0.220 OA
ATOM     31  C   UNL     1      -0.748   2.232  24.604  0.00  0.00    +0.066 C 
ENDROOT
BRANCH  12  10
ATOM      9  N   UNL     1      -1.117   0.251  24.596  0.00  0.00    -0.194 NA
ATOM     10  C   UNL     1      -0.876   0.885  25.065  0.00  0.00    +0.261 C 
ATOM     11  O   UNL     1      -0.309   0.771  25.654  0.00  0.00    -0.269 OA
BRANCH   9   8
ATOM      8  C   UNL     1      -0.790  -0.498  24.715  0.00  0.00    +0.179 C 
BRANCH   8  32
ATOM     32  C   UNL     1      -0.133  -0.735  24.276  0.00  0.00    +0.281 C 
ATOM     33  N   UNL     1      -0.093  -0.568  23.469  0.00  0.00    -0.086 NA
ATOM     34  O   UNL     1       0.484  -1.140  24.646  0.00  0.00    -0.270 OA
ENDBRANCH   8  32
BRANCH   8   7
ATOM      7  C   UNL     1      -1.121  -1.009  25.272  0.00  0.00    +0.057 C 
BRANCH   7   6
ATOM      3  C   UNL     1      -3.114  -2.354  24.687  0.00  0.00    +0.139 A 
ATOM      4  C   UNL     1      -2.394  -2.497  24.310  0.00  0.00    +0.037 A 
ATOM      5  C   UNL     1      -1.730  -2.048  24.505  0.00  0.00    -0.001 A 
ATOM      6  C   UNL     1      -1.785  -1.457  25.077  0.00  0.00    -0.020 A 
ATOM     35  C   UNL     1      -2.505  -1.314  25.454  0.00  0.00    -0.001 A 
ATOM     36  C   UNL     1      -3.169  -1.762  25.259  0.00  0.00    +0.037 A 
BRANCH   3   2
ATOM      1  C   UNL     1      -4.288  -2.547  23.898  0.00  0.00    +0.252 C 
ATOM      2  O   UNL     1      -3.778  -2.803  24.492  0.00  0.00    -0.471 OA
ENDBRANCH   3   2
ENDBRANCH   7   6
ENDBRANCH   8   7
ENDBRANCH   9   8
ENDBRANCH  12  10
BRANCH  14  15
ATOM     15  N   UNL     1      -3.088   2.683  25.273  0.00  0.00    -0.196 NA
ATOM     16  C   UNL     1      -3.709   2.322  24.868  0.00  0.00    +0.266 C 
ATOM     17  O   UNL     1      -3.551   1.810  24.241  0.00  0.00    -0.268 OA
BRANCH  16  18
ATOM     18  C   UNL     1      -4.490   2.473  25.091  0.00  0.00    +0.064 A 
ATOM     19  C   UNL     1      -4.694   3.207  25.407  0.00  0.00    +0.042 A 
ATOM     20  C   UNL     1      -5.474   3.358  25.630  0.00  0.00    +0.139 A 
ATOM     23  C   UNL     1      -6.049   2.773  25.537  0.00  0.00    +0.037 A 
ATOM     24  C   UNL     1      -5.845   2.040  25.221  0.00  0.00    +0.010 A 
ATOM     25  C   UNL     1      -5.065   1.889  24.999  0.00  0.00    +0.039 A 
ATOM     26 BR   UNL     1      -4.861   1.156  24.683  0.00  0.00    -0.049 Br
BRANCH  20  21
ATOM     21  O   UNL     1      -5.678   4.092  25.946  0.00  0.00    -0.471 OA
ATOM     22  C   UNL     1      -5.933   4.699  25.447  0.00  0.00    +0.252 C 
ENDBRANCH  20  21
ENDBRANCH  16  18
ENDBRANCH  14  15
TORSDOF 9
ENDMDL
MODEL 6
REMARK VINA RESULT:     -10.5      1.332      4.036
REMARK  Name = 
REMARK  9 active torsions:
REMARK  status: ('A' for Active; 'I' for Inactive)
REMARK    1  A    between atoms: O_2  and  C_3
REMARK    2  A    between atoms: C_6  and  C_7
REMARK    3  A    between atoms: C_7  and  C_8
REMARK    4  A    between atoms: C_8  and  N_9
REMARK    5  A    between atoms: C_8  and  C_32
REMARK    6  A    between atoms: C_10  and  C_12
REMARK    7  A    between atoms: C_14  and  N_15
REMARK    8  A    between atoms: C_16  and  C_18
REMARK    9  A    between atoms: C_20  and  O_21
REMARK                            x       y       z     vdW  Elec       q    Type
REMARK                         _______ _______ _______ _____ _____    ______ ____
ROOT
ATOM     12  C   UNL     1      -2.423   3.418  24.732  0.00  0.00    +0.033 C 
ATOM     13  C   UNL     1      -2.012   2.755  24.464  0.00  0.00    -0.002 C 
ATOM     14  C   UNL     1      -1.188   2.755  24.458  0.00  0.00    +0.150 C 
ATOM     27  C   UNL     1      -0.774   3.418  24.720  0.00  0.00    +0.206 C 
ATOM     28  O   UNL     1       0.051   3.419  24.714  0.00  0.00    -0.218 OA
ATOM     29  C   UNL     1      -1.185   4.082  24.988  0.00  0.00    +0.189 C 
ATOM     30  O   UNL     1      -0.771   4.746  25.250  0.00  0.00    -0.220 OA
ATOM     31  C   UNL     1      -2.010   4.082  24.994  0.00  0.00    +0.066 C 
ENDROOT
BRANCH  12  10
ATOM      9  N   UNL     1      -3.658   2.836  25.156  0.00  0.00    -0.194 NA
ATOM     10  C   UNL     1      -3.249   3.418  24.738  0.00  0.00    +0.261 C 
ATOM     11  O   UNL     1      -3.665   4.000  24.327  0.00  0.00    -0.269 OA
BRANCH   9   8
ATOM      8  C   UNL     1      -4.484   2.835  25.162  0.00  0.00    +0.179 C 
BRANCH   8  32
ATOM     32  C   UNL     1      -4.892   3.335  25.676  0.00  0.00    +0.281 C 
ATOM     33  N   UNL     1      -5.514   3.798  25.395  0.00  0.00    -0.086 NA
ATOM     34  O   UNL     1      -4.677   3.370  26.472  0.00  0.00    -0.270 OA
ENDBRANCH   8  32
BRANCH   8   7
ATOM      7  C   UNL     1      -4.900   2.336  24.654  0.00  0.00    +0.057 C 
BRANCH   7   6
ATOM      3  C   UNL     1      -4.532  -0.109  24.749  0.00  0.00    +0.139 A 
ATOM      4  C   UNL     1      -4.393   0.302  24.048  0.00  0.00    +0.037 A 
ATOM      5  C   UNL     1      -4.516   1.117  24.017  0.00  0.00    -0.001 A 
ATOM      6  C   UNL     1      -4.778   1.521  24.686  0.00  0.00    -0.020 A 
ATOM     35  C   UNL     1      -4.917   1.110  25.387  0.00  0.00    -0.001 A 
ATOM     36  C   UNL     1      -4.795   0.295  25.420  0.00  0.00    +0.037 A 
BRANCH   3   2
ATOM      1  C   UNL     1      -4.184  -1.335  24.104  0.00  0.00    +0.252 C 
ATOM      2  O   UNL     1      -4.410  -0.924  24.781  0.00  0.00    -0.471 OA
ENDBRANCH   3   2
ENDBRANCH   7   6
ENDBRANCH   8   7
ENDBRANCH   9   8
ENDBRANCH  12  10
BRANCH  14  15
ATOM     15  N   UNL     1      -0.777   2.092  24.190  0.00  0.00    -0.196 NA
ATOM     16  C   UNL     1      -0.845   1.375  24.592  0.00  0.00    +0.266 C 
ATOM     17  O   UNL     1      -1.323   1.320  25.262  0.00  0.00    -0.268 OA
BRANCH  16  18
ATOM     18  C   UNL     1      -0.433   0.711  24.323  0.00  0.00    +0.064 A 
ATOM     19  C   UNL     1       0.026   0.760  23.639  0.00  0.00    +0.042 A 
ATOM     20  C   UNL     1       0.437   0.096  23.371  0.00  0.00    +0.139 A 
ATOM     23  C   UNL     1       0.388  -0.615  23.787  0.00  0.00    +0.037 A 
ATOM     24  C   UNL     1      -0.071  -0.663  24.471  0.00  0.00    +0.010 A 
ATOM     25  C   UNL     1      -0.482   0.001  24.739  0.00  0.00    +0.039 A 
ATOM     26 BR   UNL     1      -0.941  -0.047  25.422  0.00  0.00    -0.049 Br
BRANCH  20  21
ATOM     21  O   UNL     1       0.896   0.145  22.687  0.00  0.00    -0.471 OA
ATOM     22  C   UNL     1       1.700  -0.041  22.717  0.00  0.00    +0.252 C 
ENDBRANCH  20  21
ENDBRANCH  16  18
ENDBRANCH  14  15
TORSDOF 9
ENDMDL
MODEL 7
REMARK VINA RESULT:     -10.3      1.609      3.884
REMARK  Name = 
REMARK  9 active torsions:
REMARK  status: ('A' for Active; 'I' for Inactive)
REMARK    1  A    between atoms: O_2  and  C_3
REMARK    2  A    between atoms: C_6  and  C_7
REMARK    3  A    between atoms: C_7  and  C_8
REMARK    4  A    between atoms: C_8  and  N_9
REMARK    5  A    between atoms: C_8  and  C_32
REMARK    6  A    between atoms: C_10  and  C_12
REMARK    7  A    between atoms: C_14  and  N_15
REMARK    8  A    between atoms: C_16  and  C_18
REMARK    9  A    between atoms: C_20  and  O_21
REMARK                            x       y       z     vdW  Elec       q    Type
REMARK                         _______ _______ _______ _____ _____    ______ ____
ROOT
ATOM     12  C   UNL     1      -1.914  -0.585  24.632  0.00  0.00    +0.033 C 
ATOM     13  C   UNL     1      -2.501  -0.041  24.831  0.00  0.00    -0.002 C 
ATOM     14  C   UNL     1      -3.288  -0.283  24.880  0.00  0.00    +0.150 C 
ATOM     27  C   UNL     1      -3.488  -1.069  24.730  0.00  0.00    +0.206 C 
ATOM     28  O   UNL     1      -4.275  -1.312  24.779  0.00  0.00    -0.218 OA
ATOM     29  C   UNL     1      -2.900  -1.613  24.531  0.00  0.00    +0.189 C 
ATOM     30  O   UNL     1      -3.100  -2.400  24.380  0.00  0.00    -0.220 OA
ATOM     31  C   UNL     1      -2.113  -1.371  24.481  0.00  0.00    +0.066 C 
ENDROOT
BRANCH  12  10
ATOM      9  N   UNL     1      -0.938   0.379  24.229  0.00  0.00    -0.194 NA
ATOM     10  C   UNL     1      -1.126  -0.343  24.582  0.00  0.00    +0.261 C 
ATOM     11  O   UNL     1      -0.527  -0.823  24.887  0.00  0.00    -0.269 OA
BRANCH   9   8
ATOM      8  C   UNL     1      -0.150   0.621  24.180  0.00  0.00    +0.179 C 
BRANCH   8  32
ATOM     32  C   UNL     1       0.313   0.388  23.538  0.00  0.00    +0.281 C 
ATOM     33  N   UNL     1       1.061   0.065  23.664  0.00  0.00    -0.086 NA
ATOM     34  O   UNL     1       0.027   0.480  22.770  0.00  0.00    -0.270 OA
ENDBRANCH   8  32
BRANCH   8   7
ATOM      7  C   UNL     1       0.174   1.095  24.772  0.00  0.00    +0.057 C 
BRANCH   7   6
ATOM      3  C   UNL     1      -0.535   3.455  24.993  0.00  0.00    +0.139 A 
ATOM      4  C   UNL     1      -0.311   3.159  24.256  0.00  0.00    +0.037 A 
ATOM      5  C   UNL     1      -0.074   2.372  24.183  0.00  0.00    -0.001 A 
ATOM      6  C   UNL     1      -0.062   1.881  24.846  0.00  0.00    -0.020 A 
ATOM     35  C   UNL     1      -0.287   2.178  25.582  0.00  0.00    -0.001 A 
ATOM     36  C   UNL     1      -0.523   2.964  25.656  0.00  0.00    +0.037 A 
BRANCH   3   2
ATOM      1  C   UNL     1      -1.527   4.422  25.344  0.00  0.00    +0.252 C 
ATOM      2  O   UNL     1      -0.772   4.242  25.067  0.00  0.00    -0.471 OA
ENDBRANCH   3   2
ENDBRANCH   7   6
ENDBRANCH   8   7
ENDBRANCH   9   8
ENDBRANCH  12  10
BRANCH  14  15
ATOM     15  N   UNL     1      -3.875   0.261  25.079  0.00  0.00    -0.196 NA
ATOM     16  C   UNL     1      -4.010   0.916  24.598  0.00  0.00    +0.266 C 
ATOM     17  O   UNL     1      -3.558   1.029  23.917  0.00  0.00    -0.268 OA
BRANCH  16  18
ATOM     18  C   UNL     1      -4.598   1.461  24.798  0.00  0.00    +0.064 A 
ATOM     19  C   UNL     1      -5.192   1.249  25.331  0.00  0.00    +0.042 A 
ATOM     20  C   UNL     1      -5.779   1.793  25.530  0.00  0.00    +0.139 A 
ATOM     23  C   UNL     1      -5.772   2.548  25.197  0.00  0.00    +0.037 A 
ATOM     24  C   UNL     1      -5.179   2.759  24.664  0.00  0.00    +0.010 A 
ATOM     25  C   UNL     1      -4.591   2.215  24.465  0.00  0.00    +0.039 A 
ATOM     26 BR   UNL     1      -3.998   2.426  23.933  0.00  0.00    -0.049 Br
BRANCH  20  21
ATOM     21  O   UNL     1      -6.373   1.582  26.063  0.00  0.00    -0.471 OA
ATOM     22  C   UNL     1      -6.438   1.977  26.786  0.00  0.00    +0.252 C 
ENDBRANCH  20  21
ENDBRANCH  16  18
ENDBRANCH  14  15
TORSDOF 9
ENDMDL
