MODEL 1
REMARK VINA RESULT:     -12.1      0.000      0.000
REMARK  Name = 
REMARK  6 active torsions:
REMARK  status: ('A' for Active; 'I' for Inactive)
REMARK    1  A    between atoms: O_2  and  C_3
REMARK    2  A    between atoms: C_9  and  C_10
REMARK    3  A    between atoms: C_10  and  C_11
REMARK    4  A    between atoms: C_16  and  C_17
REMARK    5  A    between atoms: C_17  and  C_18
REMARK    6  A    between atoms: C_21  and  C_23
REMARK                            x       y       z     vdW  Elec       q    Type
REMARK                         _______ _______ _______ _____ _____    ______ ____
ROOT
ATOM     11  C   UNL     1      -3.787   1.403  24.876  0.00  0.00    +0.026 C 
ATOM     12  C   UNL     1      -3.265   0.774  24.778  0.00  0.00    +0.094 C 
ATOM     13  N   UNL     1      -3.551  -0.001  24.755  0.00  0.00    -0.280 N 
ATOM     14  C   UNL     1      -4.360  -0.143  24.830  0.00  0.00    +0.093 C 
ATOM     15  C   UNL     1      -4.883   0.487  24.927  0.00  0.00    +0.022 C 
ATOM     16  C   UNL     1      -4.597   1.261  24.950  0.00  0.00    +0.015 C 
ATOM     21  C   UNL     1      -3.028  -0.631  24.658  0.00  0.00    +0.225 C 
ATOM     22  O   UNL     1      -2.219  -0.488  24.583  0.00  0.00    -0.275 OA
ENDROOT
BRANCH  21  23
ATOM     23  C   UNL     1      -3.315  -1.404  24.635  0.00  0.00    +0.077 C 
ATOM     24  C   UNL     1      -3.242  -1.891  25.297  0.00  0.00    +0.009 C 
ATOM     25  C   UNL     1      -3.528  -2.665  25.274  0.00  0.00    +0.000 C 
ATOM     26  C   UNL     1      -3.887  -2.951  24.589  0.00  0.00    +0.000 C 
ATOM     27  C   UNL     1      -3.960  -2.464  23.927  0.00  0.00    +0.000 C 
ATOM     28  C   UNL     1      -3.674  -1.691  23.950  0.00  0.00    +0.009 C 
ENDBRANCH  21  23
BRANCH  11  10
ATOM     10  C   UNL     1      -3.502   2.177  24.899  0.00  0.00    +0.047 C 
BRANCH  10   9
ATOM      3  C   UNL     1      -1.235   4.101  25.005  0.00  0.00    +0.138 A 
ATOM      4  C   UNL     1      -1.236   3.790  24.241  0.00  0.00    +0.033 A 
ATOM      5  C   UNL     1      -1.803   3.231  24.023  0.00  0.00    -0.016 A 
ATOM      6  C   UNL     1      -2.369   2.983  24.570  0.00  0.00    +0.009 A 
ATOM      7  C   UNL     1      -2.368   3.294  25.334  0.00  0.00    +0.004 A 
ATOM      8  C   UNL     1      -1.801   3.853  25.553  0.00  0.00    +0.037 A 
ATOM      9  C   UNL     1      -2.936   2.425  24.352  0.00  0.00    +0.053 C 
ATOM     29  N   UNL     1      -2.937   2.114  23.589  0.00  0.00    -0.274 NA
ATOM     30  C   UNL     1      -2.370   2.363  23.041  0.00  0.00    +0.130 C 
ATOM     31  C   UNL     1      -1.804   2.921  23.259  0.00  0.00    +0.053 C 
BRANCH   3   2
ATOM      1  C   UNL     1      -0.747   5.443  24.980  0.00  0.00    +0.252 C 
ATOM      2  O   UNL     1      -0.668   4.659  25.223  0.00  0.00    -0.471 OA
ENDBRANCH   3   2
ENDBRANCH  10   9
ENDBRANCH  11  10
BRANCH  16  17
ATOM     17  C   UNL     1      -5.120   1.891  25.048  0.00  0.00    +0.114 C 
BRANCH  17  18
ATOM     18  C   UNL     1      -5.895   1.750  25.289  0.00  0.00    +0.365 C 
ATOM     19  O   UNL     1      -6.490   1.639  24.727  0.00  0.00    -0.246 OA
ATOM     20  O   UNL     1      -6.078   1.719  26.094  0.00  0.00    -0.246 OA
ENDBRANCH  17  18
ENDBRANCH  16  17
TORSDOF 6
ENDMDL
MODEL 2
REMARK VINA RESULT:     -11.8      1.041      4.893
REMARK  Name = 
REMARK  6 active torsions:
REMARK  status: ('A' for Active; 'I' for Inactive)
REMARK    1  A    between atoms: O_2  and  C_3
REMARK    2  A    between atoms: C_9  and  C_10
REMARK    3  A    between atoms: C_10  and  C_11
REMARK    4  A    between atoms: C_16  and  C_17
REMARK    5  A    between atoms: C_17  and  C_18
REMARK    6  A    between atoms: C_21  and  C_23
REMARK                            x       y       z     vdW  Elec       q    Type
REMARK                         _______ _______ _______ _____ _____    ______ ____
ROOT
ATOM     11  C   UNL     1      -3.860   1.071  24.830  0.00  0.00    +0.026 C 
ATOM     12  C   UNL     1      -3.052   1.202  24.741  0.00  0.00    +0.094 C 
ATOM     13  N   UNL     1      -2.741   1.959  24.851  0.00  0.00    -0.280 N 
ATOM     14  C   UNL     1      -3.241   2.584  25.050  0.00  0.00    +0.093 C 
ATOM     15  C   UNL     1      -4.050   2.454  25.138  0.00  0.00    +0.022 C 
ATOM     16  C   UNL     1      -4.361   1.698  25.028  0.00  0.00    +0.015 C 
ATOM     21  C   UNL     1      -1.931   2.090  24.763  0.00  0.00    +0.225 C 
ATOM     22  O   UNL     1      -1.432   1.463  24.565  0.00  0.00    -0.275 OA
ENDROOT
BRANCH  21  23
ATOM     23  C   UNL     1      -1.622   2.846  24.873  0.00  0.00    +0.077 C 
ATOM     24  C   UNL     1      -1.513   3.345  24.225  0.00  0.00    +0.009 C 
ATOM     25  C   UNL     1      -1.203   4.102  24.335  0.00  0.00    +0.000 C 
ATOM     26  C   UNL     1      -1.002   4.359  25.093  0.00  0.00    +0.000 C 
ATOM     27  C   UNL     1      -1.110   3.860  25.740  0.00  0.00    +0.000 C 
ATOM     28  C   UNL     1      -1.420   3.104  25.630  0.00  0.00    +0.009 C 
ENDBRANCH  21  23
BRANCH  11  10
ATOM     10  C   UNL     1      -4.171   0.315  24.720  0.00  0.00    +0.047 C 
BRANCH  10   9
ATOM      3  C   UNL     1      -3.862  -2.583  24.123  0.00  0.00    +0.138 A 
ATOM      4  C   UNL     1      -3.548  -2.469  24.878  0.00  0.00    +0.033 A 
ATOM      5  C   UNL     1      -3.547  -1.717  25.216  0.00  0.00    -0.016 A 
ATOM      6  C   UNL     1      -3.860  -1.076  24.799  0.00  0.00    +0.009 A 
ATOM      7  C   UNL     1      -4.174  -1.190  24.044  0.00  0.00    +0.004 A 
ATOM      8  C   UNL     1      -4.175  -1.943  23.706  0.00  0.00    +0.037 A 
ATOM      9  C   UNL     1      -3.859  -0.324  25.137  0.00  0.00    +0.053 C 
ATOM     29  N   UNL     1      -3.545  -0.211  25.891  0.00  0.00    -0.274 NA
ATOM     30  C   UNL     1      -3.232  -0.852  26.308  0.00  0.00    +0.130 C 
ATOM     31  C   UNL     1      -3.233  -1.604  25.970  0.00  0.00    +0.053 C 
BRANCH   3   2
ATOM      1  C   UNL     1      -3.150  -3.709  23.608  0.00  0.00    +0.252 C 
ATOM      2  O   UNL     1      -3.863  -3.335  23.786  0.00  0.00    -0.471 OA
ENDBRANCH   3   2
ENDBRANCH  10   9
ENDBRANCH  11  10
BRANCH  16  17
ATOM     17  C   UNL     1      -5.170   1.567  25.117  0.00  0.00    +0.114 C 
BRANCH  17  18
ATOM     18  C   UNL     1      -5.670   2.193  25.312  0.00  0.00    +0.365 C 
ATOM     19  O   UNL     1      -5.823   2.367  26.104  0.00  0.00    -0.246 OA
ATOM     20  O   UNL     1      -6.017   2.646  24.715  0.00  0.00    -0.246 OA
ENDBRANCH  17  18
ENDBRANCH  16  17
TORSDOF 6
ENDMDL
MODEL 3
REMARK VINA RESULT:     -11.6      1.758      2.976
REMARK  Name = 
REMARK  6 active torsions:
REMARK  status: ('A' for Active; 'I' for Inactive)
REMARK    1  A    between atoms: O_2  and  C_3
REMARK    2  A    between atoms: C_9  and  C_10
REMARK    3  A    between atoms: C_10  and  C_11
REMARK    4  A    between atoms: C_16  and  C_17
REMARK    5  A    between atoms: C_17  and  C_18
REMARK    6  A    between atoms: C_21  and  C_23
REMARK                            x       y       z     vdW  Elec       q    Type
REMARK                         _______ _______ _______ _____ _____    ______ ____
ROOT
ATOM     11  C   UNL     1      -2.371   1.044  24.590  0.00  0.00    +0.026 C 
ATOM     12  C   UNL     1      -3.049   0.591  24.704  0.00  0.00    +0.094 C 
ATOM     13  N   UNL     1      -3.009  -0.232  24.650  0.00  0.00    -0.280 N 
ATOM     14  C   UNL     1      -2.290  -0.600  24.483  0.00  0.00    +0.093 C 
ATOM     15  C   UNL     1      -1.612  -0.146  24.369  0.00  0.00    +0.022 C 
ATOM     16  C   UNL     1      -1.651   0.676  24.423  0.00  0.00    +0.015 C 
ATOM     21  C   UNL     1      -3.688  -0.687  24.764  0.00  0.00    +0.225 C 
ATOM     22  O   UNL     1      -4.407  -0.318  24.932  0.00  0.00    -0.275 OA
ENDROOT
BRANCH  21  23
ATOM     23  C   UNL     1      -3.648  -1.508  24.711  0.00  0.00    +0.077 C 
ATOM     24  C   UNL     1      -3.867  -1.887  24.011  0.00  0.00    +0.009 C 
ATOM     25  C   UNL     1      -3.827  -2.710  23.957  0.00  0.00    +0.000 C 
ATOM     26  C   UNL     1      -3.568  -3.153  24.603  0.00  0.00    +0.000 C 
ATOM     27  C   UNL     1      -3.349  -2.774  25.303  0.00  0.00    +0.000 C 
ATOM     28  C   UNL     1      -3.389  -1.952  25.356  0.00  0.00    +0.009 C 
ENDBRANCH  21  23
BRANCH  11  10
ATOM     10  C   UNL     1      -2.410   1.867  24.643  0.00  0.00    +0.047 C 
BRANCH  10   9
ATOM      3  C   UNL     1      -4.515   3.894  25.200  0.00  0.00    +0.138 A 
ATOM      4  C   UNL     1      -4.519   3.778  24.383  0.00  0.00    +0.033 A 
ATOM      5  C   UNL     1      -3.994   3.242  24.039  0.00  0.00    -0.016 A 
ATOM      6  C   UNL     1      -3.464   2.822  24.513  0.00  0.00    +0.009 A 
ATOM      7  C   UNL     1      -3.460   2.938  25.330  0.00  0.00    +0.004 A 
ATOM      8  C   UNL     1      -3.985   3.474  25.674  0.00  0.00    +0.037 A 
ATOM      9  C   UNL     1      -2.939   2.286  24.170  0.00  0.00    +0.053 C 
ATOM     29  N   UNL     1      -2.943   2.170  23.354  0.00  0.00    -0.274 NA
ATOM     30  C   UNL     1      -3.473   2.591  22.880  0.00  0.00    +0.130 C 
ATOM     31  C   UNL     1      -3.998   3.126  23.223  0.00  0.00    +0.053 C 
BRANCH   3   2
ATOM      1  C   UNL     1      -5.814   4.200  25.707  0.00  0.00    +0.252 C 
ATOM      2  O   UNL     1      -5.040   4.430  25.543  0.00  0.00    -0.471 OA
ENDBRANCH   3   2
ENDBRANCH  10   9
ENDBRANCH  11  10
BRANCH  16  17
ATOM     17  C   UNL     1      -0.972   1.131  24.309  0.00  0.00    +0.114 C 
BRANCH  17  18
ATOM     18  C   UNL     1      -0.234   0.765  24.263  0.00  0.00    +0.365 C 
ATOM     19  O   UNL     1       0.197   0.619  24.951  0.00  0.00    -0.246 OA
ATOM     20  O   UNL     1       0.073   0.545  23.529  0.00  0.00    -0.246 OA
ENDBRANCH  17  18
ENDBRANCH  16  17
TORSDOF 6
ENDMDL
MODEL 4
REMARK VINA RESULT:     -11.4      1.933      3.369
REMARK  Name = 
REMARK  6 active torsions:
REMARK  status: ('A' for Active; 'I' for Inactive)
REMARK    1  A    between atoms: O_2  and  C_3
REMARK    2  A    between atoms: C_9  and  C_10
REMARK    3  A    between atoms: C_10  and  C_11
REMARK    4  A    between atoms: C_16  and  C_17
REMARK    5  A    between atoms: C_17  and  C_18
REMARK    6  A    between atoms: C_21  and  C_23
REMARK                            x       y       z     vdW  Elec       q    Type
REMARK                         _______ _______ _______ _____ _____    ______ ____
ROOT
ATOM     11  C   UNL     1      -0.964   0.819  24.230  0.00  0.00    +0.026 C 
ATOM     12  C   UNL     1      -1.732   0.688  24.500  0.00  0.00    +0.094 C 
ATOM     13  N   UNL     1      -2.049  -0.074  24.487  0.00  0.00    -0.280 N 
ATOM     14  C   UNL     1      -1.598  -0.704  24.204  0.00  0.00    +0.093 C 
ATOM     15  C   UNL     1      -0.830  -0.572  23.935  0.00  0.00    +0.022 C 
ATOM     16  C   UNL     1      -0.512   0.189  23.947  0.00  0.00    +0.015 C 
ATOM     21  C   UNL     1      -2.818  -0.205  24.756  0.00  0.00    +0.225 C 
ATOM     22  O   UNL     1      -3.269   0.425  25.039  0.00  0.00    -0.275 OA
ENDROOT
BRANCH  21  23
ATOM     23  C   UNL     1      -3.135  -0.966  24.743  0.00  0.00    +0.077 C 
ATOM     24  C   UNL     1      -3.583  -1.215  24.096  0.00  0.00    +0.009 C 
ATOM     25  C   UNL     1      -3.900  -1.977  24.083  0.00  0.00    +0.000 C 
ATOM     26  C   UNL     1      -3.769  -2.489  24.716  0.00  0.00    +0.000 C 
ATOM     27  C   UNL     1      -3.321  -2.241  25.362  0.00  0.00    +0.000 C 
ATOM     28  C   UNL     1      -3.004  -1.480  25.376  0.00  0.00    +0.009 C 
ENDBRANCH  21  23
BRANCH  11  10
ATOM     10  C   UNL     1      -0.646   1.580  24.243  0.00  0.00    +0.047 C 
BRANCH  10   9
ATOM      3  C   UNL     1      -0.965   4.437  25.011  0.00  0.00    +0.138 A 
ATOM      4  C   UNL     1      -0.779   4.032  25.706  0.00  0.00    +0.033 A 
ATOM      5  C   UNL     1      -0.653   3.217  25.688  0.00  0.00    -0.016 A 
ATOM      6  C   UNL     1      -0.713   2.806  24.975  0.00  0.00    +0.009 A 
ATOM      7  C   UNL     1      -0.898   3.211  24.280  0.00  0.00    +0.004 A 
ATOM      8  C   UNL     1      -1.025   4.026  24.298  0.00  0.00    +0.037 A 
ATOM      9  C   UNL     1      -0.587   1.991  24.956  0.00  0.00    +0.053 C 
ATOM     29  N   UNL     1      -0.401   1.587  25.651  0.00  0.00    -0.274 NA
ATOM     30  C   UNL     1      -0.342   1.998  26.364  0.00  0.00    +0.130 C 
ATOM     31  C   UNL     1      -0.468   2.812  26.382  0.00  0.00    +0.053 C 
BRANCH   3   2
ATOM      1  C   UNL     1      -1.856   5.549  25.108  0.00  0.00    +0.252 C 
ATOM      2  O   UNL     1      -1.091   5.252  25.030  0.00  0.00    -0.471 OA
ENDBRANCH   3   2
ENDBRANCH  10   9
ENDBRANCH  11  10
BRANCH  16  17
ATOM     17  C   UNL     1       0.256   0.320  23.678  0.00  0.00    +0.114 C 
BRANCH  17  18
ATOM     18  C   UNL     1       0.647  -0.263  23.246  0.00  0.00    +0.365 C 
ATOM     19  O   UNL     1       1.058  -0.862  23.638  0.00  0.00    -0.246 OA
ATOM     20  O   UNL     1       0.627  -0.249  22.420  0.00  0.00    -0.246 OA
ENDBRANCH  17  18
ENDBRANCH  16  17
TORSDOF 6
ENDMDL
MODEL 5
REMARK VINA RESULT:     -10.7      2.204      3.815
REMARK  Name = 
REMARK  6 active torsions:
REMARK  status: ('A' for Active; 'I' for Inactive)
REMARK    1  A    between atoms: O_2  and  C_3
REMARK    2  A    between atoms: C_9  and  C_10
REMARK    3  A    between atoms: C_10  and  C_11
REMARK    4  A    between atoms: C_16  and  C_17
REMARK    5  A    between atoms: C_17  and  C_18
REMARK    6  A    between atoms: C_21  and  C_23
REMARK                            x       y       z     vdW  Elec       q    Type
REMARK                         _______ _______ _______ _____ _____    ______ ____
ROOT
ATOM     11  C   UNL     1      -2.681   0.164  24.760  0.00  0.00    +0.026 C 
ATOM     12  C   UNL     1      -2.999   0.914  24.641  0.00  0.00    +0.094 C 
ATOM     13  N   UNL     1      -3.775   1.075  24.874  0.00  0.00    -0.280 N 
ATOM     14  C   UNL     1      -4.230   0.484  25.226  0.00  0.00    +0.093 C 
ATOM     15  C   UNL     1      -3.911  -0.266  25.345  0.00  0.00    +0.022 C 
ATOM     16  C   UNL     1      -3.136  -0.428  25.112  0.00  0.00    +0.015 C 
ATOM     21  C   UNL     1      -4.094   1.826  24.755  0.00  0.00    +0.225 C 
ATOM     22  O   UNL     1      -3.638   2.417  24.403  0.00  0.00    -0.275 OA
ENDROOT
BRANCH  21  23
ATOM     23  C   UNL     1      -4.869   1.987  24.988  0.00  0.00    +0.077 C 
ATOM     24  C   UNL     1      -5.011   2.405  25.685  0.00  0.00    +0.009 C 
ATOM     25  C   UNL     1      -5.787   2.566  25.918  0.00  0.00    +0.000 C 
ATOM     26  C   UNL     1      -6.418   2.308  25.455  0.00  0.00    +0.000 C 
ATOM     27  C   UNL     1      -6.276   1.889  24.758  0.00  0.00    +0.000 C 
ATOM     28  C   UNL     1      -5.501   1.729  24.525  0.00  0.00    +0.009 C 
ENDBRANCH  21  23
BRANCH  11  10
ATOM     10  C   UNL     1      -1.906   0.002  24.527  0.00  0.00    +0.047 C 
BRANCH  10   9
ATOM      3  C   UNL     1       0.793   0.586  23.420  0.00  0.00    +0.138 A 
ATOM      4  C   UNL     1       0.709   1.067  24.085  0.00  0.00    +0.033 A 
ATOM      5  C   UNL     1       0.014   1.042  24.529  0.00  0.00    -0.016 A 
ATOM      6  C   UNL     1      -0.599   0.535  24.306  0.00  0.00    +0.009 A 
ATOM      7  C   UNL     1      -0.515   0.054  23.641  0.00  0.00    +0.004 A 
ATOM      8  C   UNL     1       0.181   0.079  23.197  0.00  0.00    +0.037 A 
ATOM      9  C   UNL     1      -1.294   0.509  24.749  0.00  0.00    +0.053 C 
ATOM     29  N   UNL     1      -1.377   0.989  25.414  0.00  0.00    -0.274 NA
ATOM     30  C   UNL     1      -0.765   1.496  25.636  0.00  0.00    +0.130 C 
ATOM     31  C   UNL     1      -0.070   1.522  25.193  0.00  0.00    +0.053 C 
BRANCH   3   2
ATOM      1  C   UNL     1       1.743  -0.058  22.570  0.00  0.00    +0.252 C 
ATOM      2  O   UNL     1       1.488   0.612  22.977  0.00  0.00    -0.471 OA
ENDBRANCH   3   2
ENDBRANCH  10   9
ENDBRANCH  11  10
BRANCH  16  17
ATOM     17  C   UNL     1      -2.817  -1.179  25.231  0.00  0.00    +0.114 C 
BRANCH  17  18
ATOM     18  C   UNL     1      -3.313  -1.814  25.407  0.00  0.00    +0.365 C 
ATOM     19  O   UNL     1      -3.506  -1.983  26.191  0.00  0.00    -0.246 OA
ATOM     20  O   UNL     1      -3.615  -2.282  24.797  0.00  0.00    -0.246 OA
ENDBRANCH  17  18
ENDBRANCH  16  17
TORSDOF 6
ENDMDL
MODEL 6
REMARK VINA RESULT:     -10.4      1.544      5.224
REMARK  Name = 
REMARK  6 active torsions:
REMARK  status: ('A' for Active; 'I' for Inactive)
REMARK    1  A    between atoms: O_2  and  C_3
REMARK    2  A    between atoms: C_9  and  C_10
REMARK    3  A    between atoms: C_10  and  C_11
REMARK    4  A    between atoms: C_16  and  C_17
REMARK    5  A    between atoms: C_17  and  C_18
REMARK    6  A    between atoms: C_21  and  C_23
REMARK                            x       y       z     vdW  Elec       q    Type
REMARK                         _______ _______ _______ _____ _____    ______ ____
ROOT
ATOM     11  C   UNL     1      -2.538   1.592  23.803  0.00  0.00    +0.026 C 
ATOM     12  C   UNL     1      -2.263   1.952  24.490  0.00  0.00    +0.094 C 
ATOM     13  N   UNL     1      -2.037   2.746  24.478  0.00  0.00    -0.280 N 
ATOM     14  C   UNL     1      -2.087   3.178  23.777  0.00  0.00    +0.093 C 
ATOM     15  C   UNL     1      -2.363   2.817  23.089  0.00  0.00    +0.022 C 
ATOM     16  C   UNL     1      -2.589   2.024  23.101  0.00  0.00    +0.015 C 
ATOM     21  C   UNL     1      -1.761   3.107  25.167  0.00  0.00    +0.225 C 
ATOM     22  O   UNL     1      -1.711   2.674  25.868  0.00  0.00    -0.275 OA
ENDROOT
BRANCH  21  23
ATOM     23  C   UNL     1      -1.535   3.900  25.154  0.00  0.00    +0.077 C 
ATOM     24  C   UNL     1      -2.078   4.486  25.360  0.00  0.00    +0.009 C 
ATOM     25  C   UNL     1      -1.852   5.281  25.348  0.00  0.00    +0.000 C 
ATOM     26  C   UNL     1      -1.084   5.487  25.130  0.00  0.00    +0.000 C 
ATOM     27  C   UNL     1      -0.541   4.901  24.924  0.00  0.00    +0.000 C 
ATOM     28  C   UNL     1      -0.767   4.108  24.936  0.00  0.00    +0.009 C 
ENDBRANCH  21  23
BRANCH  11  10
ATOM     10  C   UNL     1      -2.764   0.798  23.814  0.00  0.00    +0.047 C 
BRANCH  10   9
ATOM      3  C   UNL     1      -3.416  -1.793  25.123  0.00  0.00    +0.138 A 
ATOM      4  C   UNL     1      -4.002  -1.263  25.359  0.00  0.00    +0.033 A 
ATOM      5  C   UNL     1      -3.987  -0.482  25.091  0.00  0.00    -0.016 A 
ATOM      6  C   UNL     1      -3.383  -0.232  24.586  0.00  0.00    +0.009 A 
ATOM      7  C   UNL     1      -2.797  -0.762  24.350  0.00  0.00    +0.004 A 
ATOM      8  C   UNL     1      -2.812  -1.542  24.618  0.00  0.00    +0.037 A 
ATOM      9  C   UNL     1      -3.367   0.548  24.319  0.00  0.00    +0.053 C 
ATOM     29  N   UNL     1      -3.953   1.077  24.555  0.00  0.00    -0.274 NA
ATOM     30  C   UNL     1      -4.557   0.827  25.060  0.00  0.00    +0.130 C 
ATOM     31  C   UNL     1      -4.573   0.047  25.328  0.00  0.00    +0.053 C 
BRANCH   3   2
ATOM      1  C   UNL     1      -3.310  -3.193  24.861  0.00  0.00    +0.252 C 
ATOM      2  O   UNL     1      -3.432  -2.573  25.391  0.00  0.00    -0.471 OA
ENDBRANCH   3   2
ENDBRANCH  10   9
ENDBRANCH  11  10
BRANCH  16  17
ATOM     17  C   UNL     1      -2.864   1.663  22.412  0.00  0.00    +0.114 C 
BRANCH  17  18
ATOM     18  C   UNL     1      -2.745   2.025  21.681  0.00  0.00    +0.365 C 
ATOM     19  O   UNL     1      -2.128   1.775  21.193  0.00  0.00    -0.246 OA
ATOM     20  O   UNL     1      -3.242   2.637  21.437  0.00  0.00    -0.246 OA
ENDBRANCH  17  18
ENDBRANCH  16  17
TORSDOF 6
ENDMDL
MODEL 7
REMARK VINA RESULT:     -10.3      2.073      4.036
REMARK  Name = 
REMARK  6 active torsions:
REMARK  status: ('A' for Active; 'I' for Inactive)
REMARK    1  A    between atoms: O_2  and  C_3
REMARK    2  A    between atoms: C_9  and  C_10
REMARK    3  A    between atoms: C_10  and  C_11
REMARK    4  A    between atoms: C_16  and  C_17
REMARK    5  A    between atoms: C_17  and  C_18
REMARK    6  A    between atoms: C_21  and  C_23
REMARK                            x       y       z     vdW  Elec       q    Type
REMARK                         _______ _______ _______ _____ _____    ______ ____
ROOT
ATOM     11  C   UNL     1      -2.039   2.036  24.889  0.00  0.00    +0.026 C 
ATOM     12  C   UNL     1      -2.690   1.563  24.710  0.00  0.00    +0.094 C 
ATOM     13  N   UNL     1      -3.451   1.818  24.904  0.00  0.00    -0.280 N 
ATOM     14  C   UNL     1      -3.559   2.545  25.278  0.00  0.00    +0.093 C 
ATOM     15  C   UNL     1      -2.908   3.018  25.457  0.00  0.00    +0.022 C 
ATOM     16  C   UNL     1      -2.148   2.764  25.263  0.00  0.00    +0.015 C 
ATOM     21  C   UNL     1      -4.103   1.345  24.725  0.00  0.00    +0.225 C 
ATOM     22  O   UNL     1      -3.994   0.618  24.351  0.00  0.00    -0.275 OA
ENDROOT
BRANCH  21  23
ATOM     23  C   UNL     1      -4.863   1.600  24.920  0.00  0.00    +0.077 C 
ATOM     24  C   UNL     1      -5.226   1.326  25.608  0.00  0.00    +0.009 C 
ATOM     25  C   UNL     1      -5.986   1.581  25.803  0.00  0.00    +0.000 C 
ATOM     26  C   UNL     1      -6.383   2.109  25.309  0.00  0.00    +0.000 C 
ATOM     27  C   UNL     1      -6.020   2.383  24.620  0.00  0.00    +0.000 C 
ATOM     28  C   UNL     1      -5.261   2.128  24.426  0.00  0.00    +0.009 C 
ENDBRANCH  21  23
BRANCH  11  10
ATOM     10  C   UNL     1      -1.279   1.781  24.695  0.00  0.00    +0.047 C 
BRANCH  10   9
ATOM      3  C   UNL     1       0.517  -0.145  23.311  0.00  0.00    +0.138 A 
ATOM      4  C   UNL     1       0.219  -0.542  23.970  0.00  0.00    +0.033 A 
ATOM      5  C   UNL     1      -0.305  -0.161  24.481  0.00  0.00    -0.016 A 
ATOM      6  C   UNL     1      -0.531   0.620  24.333  0.00  0.00    +0.009 A 
ATOM      7  C   UNL     1      -0.232   1.017  23.674  0.00  0.00    +0.004 A 
ATOM      8  C   UNL     1       0.291   0.635  23.162  0.00  0.00    +0.037 A 
ATOM      9  C   UNL     1      -1.053   1.002  24.843  0.00  0.00    +0.053 C 
ATOM     29  N   UNL     1      -1.351   0.605  25.501  0.00  0.00    -0.274 NA
ATOM     30  C   UNL     1      -1.125  -0.176  25.650  0.00  0.00    +0.130 C 
ATOM     31  C   UNL     1      -0.602  -0.557  25.140  0.00  0.00    +0.053 C 
BRANCH   3   2
ATOM      1  C   UNL     1       1.693  -0.123  22.501  0.00  0.00    +0.252 C 
ATOM      2  O   UNL     1       1.040  -0.527  22.801  0.00  0.00    -0.471 OA
ENDBRANCH   3   2
ENDBRANCH  10   9
ENDBRANCH  11  10
BRANCH  16  17
ATOM     17  C   UNL     1      -1.496   3.236  25.442  0.00  0.00    +0.114 C 
BRANCH  17  18
ATOM     18  C   UNL     1      -1.579   4.056  25.479  0.00  0.00    +0.365 C 
ATOM     19  O   UNL     1      -1.949   4.405  26.128  0.00  0.00    -0.246 OA
ATOM     20  O   UNL     1      -1.290   4.528  24.865  0.00  0.00    -0.246 OA
ENDBRANCH  17  18
ENDBRANCH  16  17
TORSDOF 6
ENDMDL
