MODEL 1
REMARK VINA RESULT:      -9.5      0.000      0.000
REMARK  Name = 
REMARK  6 active torsions:
REMARK  status: ('A' for Active; 'I' for Inactive)
REMARK    1  A    between atoms: O_2  and  C_3
REMARK    2  A    between atoms: C_3  and  C_4
REMARK    3  A    between atoms: C_4  and  N_5
REMARK    4  A    between atoms: C_11  and  C_13
REMARK    5  A    between atoms: C_13  and  C_14
REMARK    6  A    between atoms: C_32  and  N_35
REMARK                            x       y       z     vdW  Elec       q    Type
REMARK                         _______ _______ _______ _____ _____    ______ ____
ROOT
ATOM     14  C   UNL     1       0.213   0.206  23.713  0.00  0.00    +0.012 C 
ATOM     15  C   UNL     1       0.254  -0.593  23.912  0.00  0.00    +0.022 C 
ATOM     16  C   UNL     1      -0.404  -0.971  24.237  0.00  0.00    +0.093 C 
ATOM     17  N   UNL     1      -1.097  -0.624  24.382  0.00  0.00    -0.278 N 
ATOM     18  C   UNL     1      -1.142   0.251  24.165  0.00  0.00    +0.093 C 
ATOM     19  C   UNL     1      -0.674   0.852  23.845  0.00  0.00    +0.021 C 
ATOM     20  C   UNL     1      -1.128   1.541  23.817  0.00  0.00    +0.006 C 
ATOM     21  C   UNL     1      -1.875   1.365  24.119  0.00  0.00    +0.047 C 
ATOM     22  C   UNL     1      -2.669   1.761  24.286  0.00  0.00    +0.205 C 
ATOM     23  O   UNL     1      -3.097   1.597  24.476  0.00  0.00    -0.476 OA
ATOM     24  C   UNL     1      -3.234   0.554  24.800  0.00  0.00    +0.136 A 
ATOM     25  C   UNL     1      -3.873   0.146  25.127  0.00  0.00    +0.030 A 
ATOM     26  C   UNL     1      -3.800  -0.654  25.315  0.00  0.00    +0.119 C 
ATOM     27  N   UNL     1      -3.087  -1.047  25.175  0.00  0.00    -0.204 NA
ATOM     28  C   UNL     1      -2.448  -0.638  24.848  0.00  0.00    +0.174 C 
ATOM     29  C   UNL     1      -1.736  -1.031  24.709  0.00  0.00    +0.243 C 
ATOM     30  O   UNL     1      -1.663  -1.831  24.897  0.00  0.00    -0.273 OA
ATOM     31  C   UNL     1      -4.585   0.538  25.266  0.00  0.00    +0.015 A 
ATOM     32  C   UNL     1      -4.659   1.338  25.079  0.00  0.00    +0.048 A 
ATOM     33  C   UNL     1      -4.020   1.746  24.752  0.00  0.00    +0.018 A 
ATOM     34  C   UNL     1      -3.308   1.354  24.612  0.00  0.00    +0.038 A 
ENDROOT
BRANCH  32  35
ATOM     35  N   UNL     1      -5.371   1.731  25.218  0.00  0.00    -0.303 N 
ATOM     36  C   UNL     1      -5.427   2.279  25.832  0.00  0.00    +0.123 C 
ATOM     37  C   UNL     1      -6.139   2.671  25.971  0.00  0.00    +0.164 C 
ATOM     38  O   UNL     1      -6.795   2.516  25.496  0.00  0.00    -0.350 OA
ATOM     39  C   UNL     1      -6.739   1.968  24.882  0.00  0.00    +0.164 C 
ATOM     40  C   UNL     1      -6.027   1.575  24.743  0.00  0.00    +0.123 C 
ENDBRANCH  32  35
BRANCH  14  13
ATOM     13  C   UNL     1       0.889   0.552  23.390  0.00  0.00    +0.085 C 
BRANCH  13  11
ATOM      5  N   UNL     1       3.764   0.458  22.630  0.00  0.00    -0.268 NA
ATOM      6  C   UNL     1       3.340   0.853  23.217  0.00  0.00    +0.094 C 
ATOM      7  C   UNL     1       2.523   0.752  23.275  0.00  0.00    +0.111 C 
ATOM      8  N   UNL     1       2.130   0.258  22.744  0.00  0.00    -0.277 N 
ATOM      9  C   UNL     1       2.555  -0.137  22.157  0.00  0.00    +0.111 C 
ATOM     10  C   UNL     1       3.371  -0.037  22.100  0.00  0.00    +0.094 C 
ATOM     11  C   UNL     1       1.314   0.157  22.801  0.00  0.00    +0.226 C 
ATOM     12  O   UNL     1       0.920  -0.338  22.271  0.00  0.00    -0.275 OA
BRANCH   5   4
ATOM      4  C   UNL     1       4.581   0.558  22.573  0.00  0.00    +0.105 C 
BRANCH   4   3
ATOM      3  C   UNL     1       5.065   0.373  23.214  0.00  0.00    +0.160 C 
BRANCH   3   2
ATOM      1  C   UNL     1       6.246  -0.268  23.701  0.00  0.00    +0.174 C 
ATOM      2  O   UNL     1       5.830   0.092  23.085  0.00  0.00    -0.350 OA
ENDBRANCH   3   2
ENDBRANCH   4   3
ENDBRANCH   5   4
ENDBRANCH  13  11
ENDBRANCH  14  13
TORSDOF 6
ENDMDL
MODEL 2
REMARK VINA RESULT:      -6.2      1.193      2.047
REMARK  Name = 
REMARK  6 active torsions:
REMARK  status: ('A' for Active; 'I' for Inactive)
REMARK    1  A    between atoms: O_2  and  C_3
REMARK    2  A    between atoms: C_3  and  C_4
REMARK    3  A    between atoms: C_4  and  N_5
REMARK    4  A    between atoms: C_11  and  C_13
REMARK    5  A    between atoms: C_13  and  C_14
REMARK    6  A    between atoms: C_32  and  N_35
REMARK                            x       y       z     vdW  Elec       q    Type
REMARK                         _______ _______ _______ _____ _____    ______ ____
ROOT
ATOM     14  C   UNL     1       0.321   1.030  23.937  0.00  0.00    +0.012 C 
ATOM     15  C   UNL     1       0.642   1.789  23.916  0.00  0.00    +0.022 C 
ATOM     16  C   UNL     1       0.162   2.444  24.069  0.00  0.00    +0.093 C 
ATOM     17  N   UNL     1      -0.607   2.409  24.240  0.00  0.00    -0.278 N 
ATOM     18  C   UNL     1      -0.958   1.578  24.263  0.00  0.00    +0.093 C 
ATOM     19  C   UNL     1      -0.735   0.790  24.159  0.00  0.00    +0.021 C 
ATOM     20  C   UNL     1      -1.402   0.318  24.277  0.00  0.00    +0.006 C 
ATOM     21  C   UNL     1      -2.036   0.816  24.455  0.00  0.00    +0.047 C 
ATOM     22  C   UNL     1      -2.917   0.777  24.651  0.00  0.00    +0.205 C 
ATOM     23  O   UNL     1      -3.256   1.124  24.751  0.00  0.00    -0.476 OA
ATOM     24  C   UNL     1      -3.015   2.197  24.770  0.00  0.00    +0.136 A 
ATOM     25  C   UNL     1      -3.466   2.873  24.918  0.00  0.00    +0.030 A 
ATOM     26  C   UNL     1      -3.114   3.618  24.889  0.00  0.00    +0.119 C 
ATOM     27  N   UNL     1      -2.311   3.689  24.712  0.00  0.00    -0.204 NA
ATOM     28  C   UNL     1      -1.860   3.013  24.564  0.00  0.00    +0.174 C 
ATOM     29  C   UNL     1      -1.058   3.084  24.388  0.00  0.00    +0.243 C 
ATOM     30  O   UNL     1      -0.706   3.829  24.359  0.00  0.00    -0.273 OA
ATOM     31  C   UNL     1      -4.269   2.802  25.094  0.00  0.00    +0.015 A 
ATOM     32  C   UNL     1      -4.621   2.057  25.123  0.00  0.00    +0.048 A 
ATOM     33  C   UNL     1      -4.170   1.381  24.975  0.00  0.00    +0.018 A 
ATOM     34  C   UNL     1      -3.368   1.452  24.799  0.00  0.00    +0.038 A 
ENDROOT
BRANCH  32  35
ATOM     35  N   UNL     1      -5.424   1.986  25.300  0.00  0.00    -0.303 N 
ATOM     36  C   UNL     1      -5.969   1.853  24.695  0.00  0.00    +0.123 C 
ATOM     37  C   UNL     1      -6.772   1.782  24.872  0.00  0.00    +0.164 C 
ATOM     38  O   UNL     1      -7.029   1.845  25.653  0.00  0.00    -0.350 OA
ATOM     39  C   UNL     1      -6.484   1.979  26.257  0.00  0.00    +0.164 C 
ATOM     40  C   UNL     1      -5.681   2.049  26.081  0.00  0.00    +0.123 C 
ENDBRANCH  32  35
BRANCH  14  13
ATOM     13  C   UNL     1       0.829   0.398  23.779  0.00  0.00    +0.085 C 
BRANCH  13  11
ATOM      5  N   UNL     1       3.570   0.213  22.639  0.00  0.00    -0.268 NA
ATOM      6  C   UNL     1       3.273   0.323  23.401  0.00  0.00    +0.094 C 
ATOM      7  C   UNL     1       2.458   0.348  23.527  0.00  0.00    +0.111 C 
ATOM      8  N   UNL     1       1.939   0.263  22.891  0.00  0.00    -0.277 N 
ATOM      9  C   UNL     1       2.237   0.153  22.128  0.00  0.00    +0.111 C 
ATOM     10  C   UNL     1       3.051   0.128  22.003  0.00  0.00    +0.094 C 
ATOM     11  C   UNL     1       1.125   0.288  23.016  0.00  0.00    +0.226 C 
ATOM     12  O   UNL     1       0.606   0.204  22.380  0.00  0.00    -0.275 OA
BRANCH   5   4
ATOM      4  C   UNL     1       4.385   0.188  22.513  0.00  0.00    +0.105 C 
BRANCH   4   3
ATOM      3  C   UNL     1       4.900   0.128  23.155  0.00  0.00    +0.160 C 
BRANCH   3   2
ATOM      1  C   UNL     1       6.200  -0.257  23.607  0.00  0.00    +0.174 C 
ATOM      2  O   UNL     1       5.713   0.071  23.027  0.00  0.00    -0.350 OA
ENDBRANCH   3   2
ENDBRANCH   4   3
ENDBRANCH   5   4
ENDBRANCH  13  11
ENDBRANCH  14  13
TORSDOF 6
ENDMDL
MODEL 3
REMARK VINA RESULT:      -6.1     17.008     18.721
REMARK  Name = 
REMARK  6 active torsions:
REMARK  status: ('A' for Active; 'I' for Inactive)
REMARK    1  A    between atoms: O_2  and  C_3
REMARK    2  A    between atoms: C_3  and  C_4
REMARK    3  A    between atoms: C_4  and  N_5
REMARK    4  A    between atoms: C_11  and  C_13
REMARK    5  A    between atoms: C_13  and  C_14
REMARK    6  A    between atoms: C_32  and  N_35
REMARK                            x       y       z     vdW  Elec       q    Type
REMARK                         _______ _______ _______ _____ _____    ______ ____
ROOT
ATOM     14  C   UNL     1      -7.814  -8.611   9.506  0.00  0.00    +0.012 C 
ATOM     15  C   UNL     1      -8.296  -9.007  10.046  0.00  0.00    +0.022 C 
ATOM     16  C   UNL     1      -7.956  -9.435  10.665  0.00  0.00    +0.093 C 
ATOM     17  N   UNL     1      -7.181  -9.503  10.793  0.00  0.00    -0.278 N 
ATOM     18  C   UNL     1      -6.654  -9.070  10.202  0.00  0.00    +0.093 C 
ATOM     19  C   UNL     1      -6.710  -8.595   9.529  0.00  0.00    +0.021 C 
ATOM     20  C   UNL     1      -5.943  -8.404   9.289  0.00  0.00    +0.006 C 
ATOM     21  C   UNL     1      -5.416  -8.760   9.814  0.00  0.00    +0.047 C 
ATOM     22  C   UNL     1      -4.529  -8.839   9.962  0.00  0.00    +0.205 C 
ATOM     23  O   UNL     1      -4.263  -9.076  10.307  0.00  0.00    -0.476 OA
ATOM     24  C   UNL     1      -4.732  -9.660  11.114  0.00  0.00    +0.136 A 
ATOM     25  C   UNL     1      -4.425 -10.097  11.744  0.00  0.00    +0.030 A 
ATOM     26  C   UNL     1      -4.935 -10.481  12.266  0.00  0.00    +0.119 C 
ATOM     27  N   UNL     1      -5.752 -10.429  12.159  0.00  0.00    -0.204 NA
ATOM     28  C   UNL     1      -6.058  -9.992  11.529  0.00  0.00    +0.174 C 
ATOM     29  C   UNL     1      -6.874  -9.940  11.423  0.00  0.00    +0.243 C 
ATOM     30  O   UNL     1      -7.384 -10.324  11.945  0.00  0.00    -0.273 OA
ATOM     31  C   UNL     1      -3.609 -10.149  11.850  0.00  0.00    +0.015 A 
ATOM     32  C   UNL     1      -3.099  -9.764  11.328  0.00  0.00    +0.048 A 
ATOM     33  C   UNL     1      -3.406  -9.328  10.698  0.00  0.00    +0.018 A 
ATOM     34  C   UNL     1      -4.222  -9.276  10.591  0.00  0.00    +0.038 A 
ENDROOT
BRANCH  32  35
ATOM     35  N   UNL     1      -2.283  -9.816  11.435  0.00  0.00    -0.303 N 
ATOM     36  C   UNL     1      -1.967 -10.398  11.928  0.00  0.00    +0.123 C 
ATOM     37  C   UNL     1      -1.151 -10.450  12.035  0.00  0.00    +0.164 C 
ATOM     38  O   UNL     1      -0.650  -9.920  11.648  0.00  0.00    -0.350 OA
ATOM     39  C   UNL     1      -0.966  -9.339  11.155  0.00  0.00    +0.164 C 
ATOM     40  C   UNL     1      -1.782  -9.287  11.048  0.00  0.00    +0.123 C 
ENDBRANCH  32  35
BRANCH  14  13
ATOM     13  C   UNL     1      -8.187  -8.193   8.900  0.00  0.00    +0.085 C 
BRANCH  13  11
ATOM      5  N   UNL     1      -9.983  -5.868   8.432  0.00  0.00    -0.268 NA
ATOM      6  C   UNL     1      -9.165  -5.971   8.419  0.00  0.00    +0.094 C 
ATOM      7  C   UNL     1      -8.839  -6.711   8.579  0.00  0.00    +0.111 C 
ATOM      8  N   UNL     1      -9.332  -7.351   8.752  0.00  0.00    -0.277 N 
ATOM      9  C   UNL     1     -10.151  -7.248   8.765  0.00  0.00    +0.111 C 
ATOM     10  C   UNL     1     -10.476  -6.507   8.605  0.00  0.00    +0.094 C 
ATOM     11  C   UNL     1      -9.007  -8.091   8.912  0.00  0.00    +0.226 C 
ATOM     12  O   UNL     1      -9.499  -8.730   9.086  0.00  0.00    -0.275 OA
BRANCH   5   4
ATOM      4  C   UNL     1     -10.309  -5.128   8.271  0.00  0.00    +0.105 C 
BRANCH   4   3
ATOM      3  C   UNL     1     -10.484  -4.612   8.891  0.00  0.00    +0.160 C 
BRANCH   3   2
ATOM      1  C   UNL     1     -10.625  -3.249   9.299  0.00  0.00    +0.174 C 
ATOM      2  O   UNL     1     -10.720  -3.837   8.728  0.00  0.00    -0.350 OA
ENDBRANCH   3   2
ENDBRANCH   4   3
ENDBRANCH   5   4
ENDBRANCH  13  11
ENDBRANCH  14  13
TORSDOF 6
ENDMDL
MODEL 4
REMARK VINA RESULT:      -5.5     16.077     17.660
REMARK  Name = 
REMARK  6 active torsions:
REMARK  status: ('A' for Active; 'I' for Inactive)
REMARK    1  A    between atoms: O_2  and  C_3
REMARK    2  A    between atoms: C_3  and  C_4
REMARK    3  A    between atoms: C_4  and  N_5
REMARK    4  A    between atoms: C_11  and  C_13
REMARK    5  A    between atoms: C_13  and  C_14
REMARK    6  A    between atoms: C_32  and  N_35
REMARK                            x       y       z     vdW  Elec       q    Type
REMARK                         _______ _______ _______ _____ _____    ______ ____
ROOT
ATOM     14  C   UNL     1      -7.727  -9.565  11.244  0.00  0.00    +0.012 C 
ATOM     15  C   UNL     1      -8.368  -9.682  11.750  0.00  0.00    +0.022 C 
ATOM     16  C   UNL     1      -8.239  -9.888  12.539  0.00  0.00    +0.093 C 
ATOM     17  N   UNL     1      -7.529  -9.987  12.868  0.00  0.00    -0.278 N 
ATOM     18  C   UNL     1      -6.827  -9.859  12.315  0.00  0.00    +0.093 C 
ATOM     19  C   UNL     1      -6.664  -9.660  11.530  0.00  0.00    +0.021 C 
ATOM     20  C   UNL     1      -5.844  -9.653  11.436  0.00  0.00    +0.006 C 
ATOM     21  C   UNL     1      -5.502  -9.846  12.161  0.00  0.00    +0.047 C 
ATOM     22  C   UNL     1      -4.690  -9.960  12.540  0.00  0.00    +0.205 C 
ATOM     23  O   UNL     1      -4.544 -10.081  12.998  0.00  0.00    -0.476 OA
ATOM     24  C   UNL     1      -5.259 -10.276  13.812  0.00  0.00    +0.136 A 
ATOM     25  C   UNL     1      -5.165 -10.482  14.606  0.00  0.00    +0.030 A 
ATOM     26  C   UNL     1      -5.828 -10.591  15.085  0.00  0.00    +0.119 C 
ATOM     27  N   UNL     1      -6.585 -10.495  14.770  0.00  0.00    -0.204 NA
ATOM     28  C   UNL     1      -6.678 -10.289  13.976  0.00  0.00    +0.174 C 
ATOM     29  C   UNL     1      -7.435 -10.193  13.662  0.00  0.00    +0.243 C 
ATOM     30  O   UNL     1      -8.097 -10.303  14.141  0.00  0.00    -0.273 OA
ATOM     31  C   UNL     1      -4.409 -10.578  14.920  0.00  0.00    +0.015 A 
ATOM     32  C   UNL     1      -3.746 -10.468  14.441  0.00  0.00    +0.048 A 
ATOM     33  C   UNL     1      -3.839 -10.262  13.647  0.00  0.00    +0.018 A 
ATOM     34  C   UNL     1      -4.596 -10.166  13.333  0.00  0.00    +0.038 A 
ENDROOT
BRANCH  32  35
ATOM     35  N   UNL     1      -2.989 -10.565  14.755  0.00  0.00    -0.303 N 
ATOM     36  C   UNL     1      -2.875 -10.542  15.572  0.00  0.00    +0.123 C 
ATOM     37  C   UNL     1      -2.119 -10.638  15.886  0.00  0.00    +0.164 C 
ATOM     38  O   UNL     1      -1.476 -10.757  15.384  0.00  0.00    -0.350 OA
ATOM     39  C   UNL     1      -1.590 -10.780  14.567  0.00  0.00    +0.164 C 
ATOM     40  C   UNL     1      -2.346 -10.683  14.253  0.00  0.00    +0.123 C 
ENDBRANCH  32  35
BRANCH  14  13
ATOM     13  C   UNL     1      -7.892  -9.361  10.462  0.00  0.00    +0.085 C 
BRANCH  13  11
ATOM      5  N   UNL     1      -9.074  -7.255   8.725  0.00  0.00    -0.268 NA
ATOM      6  C   UNL     1      -8.303  -7.448   8.946  0.00  0.00    +0.094 C 
ATOM      7  C   UNL     1      -8.166  -8.086   9.451  0.00  0.00    +0.111 C 
ATOM      8  N   UNL     1      -8.800  -8.530   9.736  0.00  0.00    -0.277 N 
ATOM      9  C   UNL     1      -9.572  -8.337   9.514  0.00  0.00    +0.111 C 
ATOM     10  C   UNL     1      -9.708  -7.699   9.009  0.00  0.00    +0.094 C 
ATOM     11  C   UNL     1      -8.664  -9.168  10.241  0.00  0.00    +0.226 C 
ATOM     12  O   UNL     1      -9.298  -9.612  10.525  0.00  0.00    -0.275 OA
BRANCH   5   4
ATOM      4  C   UNL     1      -9.210  -6.617   8.219  0.00  0.00    +0.105 C 
BRANCH   4   3
ATOM      3  C   UNL     1      -9.729  -6.017   8.445  0.00  0.00    +0.160 C 
BRANCH   3   2
ATOM      1  C   UNL     1     -10.141  -4.650   8.382  0.00  0.00    +0.174 C 
ATOM      2  O   UNL     1      -9.628  -5.252   8.149  0.00  0.00    -0.350 OA
ENDBRANCH   3   2
ENDBRANCH   4   3
ENDBRANCH   5   4
ENDBRANCH  13  11
ENDBRANCH  14  13
TORSDOF 6
ENDMDL
