MODEL 1
REMARK VINA RESULT:      -9.2      0.000      0.000
REMARK  Name = 
REMARK  7 active torsions:
REMARK  status: ('A' for Active; 'I' for Inactive)
REMARK    1  A    between atoms: O_2  and  C_3
REMARK    2  A    between atoms: C_3  and  C_4
REMARK    3  A    between atoms: N_6  and  C_9
REMARK    4  A    between atoms: C_13  and  O_17
REMARK    5  A    between atoms: O_17  and  C_18
REMARK    6  A    between atoms: N_20  and  C_21
REMARK    7  A    between atoms: C_23  and  C_27
REMARK                            x       y       z     vdW  Elec       q    Type
REMARK                         _______ _______ _______ _____ _____    ______ ____
ROOT
ATOM      9  C   UNL     1      -1.270  -0.743  25.093  0.00  0.00    +0.166 C 
ATOM     10  C   UNL     1      -1.096  -0.507  25.864  0.00  0.00    +0.169 C 
ATOM     11  O   UNL     1      -0.721   0.226  25.827  0.00  0.00    -0.348 OA
ATOM     12  C   UNL     1      -0.663   0.444  25.035  0.00  0.00    +0.187 C 
ATOM     13  C   UNL     1      -0.395   1.031  24.521  0.00  0.00    +0.229 C 
ATOM     14  C   UNL     1      -0.568   0.796  23.750  0.00  0.00    +0.188 C 
ATOM     15  O   UNL     1      -0.943   0.062  23.786  0.00  0.00    -0.348 OA
ATOM     16  C   UNL     1      -1.002  -0.155  24.580  0.00  0.00    +0.171 C 
ENDROOT
BRANCH   9   6
ATOM      4  C   UNL     1      -2.590  -2.332  24.554  0.00  0.00    +0.131 A 
ATOM      5  C   UNL     1      -2.459  -1.549  24.775  0.00  0.00    +0.116 A 
ATOM      6  N   UNL     1      -1.646  -1.444  24.873  0.00  0.00    -0.227 N 
ATOM      7  N   UNL     1      -1.275  -2.163  24.712  0.00  0.00    -0.064 NA
ATOM      8  N   UNL     1      -1.859  -2.712  24.515  0.00  0.00    -0.131 NA
BRANCH   4   3
ATOM      3  C   UNL     1      -3.325  -2.676  24.399  0.00  0.00    +0.191 C 
BRANCH   3   2
ATOM      1  C   UNL     1      -4.607  -2.613  23.772  0.00  0.00    +0.175 C 
ATOM      2  O   UNL     1      -3.839  -2.322  23.860  0.00  0.00    -0.345 OA
ENDBRANCH   3   2
ENDBRANCH   4   3
ENDBRANCH   9   6
BRANCH  13  17
ATOM     17  O   UNL     1      -0.019   1.732  24.741  0.00  0.00    -0.432 OA
BRANCH  17  18
ATOM     18  C   UNL     1      -0.423   2.450  24.693  0.00  0.00    +0.425 C 
ATOM     19  O   UNL     1      -0.750   2.692  23.976  0.00  0.00    -0.224 OA
ATOM     20  N   UNL     1      -0.500   2.926  25.362  0.00  0.00    -0.142 NA
BRANCH  20  21
ATOM     21  C   UNL     1      -0.904   3.644  25.315  0.00  0.00    +0.077 A 
ATOM     22  C   UNL     1      -1.671   3.706  25.610  0.00  0.00    +0.027 A 
ATOM     23  C   UNL     1      -2.075   4.423  25.563  0.00  0.00    +0.070 A 
ATOM     24  C   UNL     1      -1.711   5.079  25.219  0.00  0.00    +0.010 A 
ATOM     25  C   UNL     1      -0.944   5.017  24.922  0.00  0.00    +0.002 A 
ATOM     26  C   UNL     1      -0.540   4.299  24.971  0.00  0.00    +0.017 A 
BRANCH  23  27
ATOM     27  C   UNL     1      -2.843   4.485  25.859  0.00  0.00    +0.100 C 
ATOM     28  N   UNL     1      -3.610   4.547  26.155  0.00  0.00    -0.191 NA
ENDBRANCH  23  27
ENDBRANCH  20  21
ENDBRANCH  17  18
ENDBRANCH  13  17
TORSDOF 7
ENDMDL
MODEL 2
REMARK VINA RESULT:      -9.1      1.937      6.214
REMARK  Name = 
REMARK  7 active torsions:
REMARK  status: ('A' for Active; 'I' for Inactive)
REMARK    1  A    between atoms: O_2  and  C_3
REMARK    2  A    between atoms: C_3  and  C_4
REMARK    3  A    between atoms: N_6  and  C_9
REMARK    4  A    between atoms: C_13  and  O_17
REMARK    5  A    between atoms: O_17  and  C_18
REMARK    6  A    between atoms: N_20  and  C_21
REMARK    7  A    between atoms: C_23  and  C_27
REMARK                            x       y       z     vdW  Elec       q    Type
REMARK                         _______ _______ _______ _____ _____    ______ ____
ROOT
ATOM      9  C   UNL     1      -3.774   3.174  25.205  0.00  0.00    +0.166 C 
ATOM     10  C   UNL     1      -4.587   3.230  25.081  0.00  0.00    +0.169 C 
ATOM     11  O   UNL     1      -4.862   2.486  24.857  0.00  0.00    -0.348 OA
ATOM     12  C   UNL     1      -4.219   1.970  24.842  0.00  0.00    +0.187 C 
ATOM     13  C   UNL     1      -3.990   1.191  24.695  0.00  0.00    +0.229 C 
ATOM     14  C   UNL     1      -3.177   1.135  24.819  0.00  0.00    +0.188 C 
ATOM     15  O   UNL     1      -2.902   1.880  25.043  0.00  0.00    -0.348 OA
ATOM     16  C   UNL     1      -3.546   2.396  25.057  0.00  0.00    +0.171 C 
ENDROOT
BRANCH   9   6
ATOM      4  C   UNL     1      -2.325   4.728  25.421  0.00  0.00    +0.131 A 
ATOM      5  C   UNL     1      -2.686   4.137  24.973  0.00  0.00    +0.116 A 
ATOM      6  N   UNL     1      -3.275   3.790  25.436  0.00  0.00    -0.227 N 
ATOM      7  N   UNL     1      -3.278   4.167  26.169  0.00  0.00    -0.064 NA
ATOM      8  N   UNL     1      -2.691   4.747  26.161  0.00  0.00    -0.131 NA
BRANCH   4   3
ATOM      3  C   UNL     1      -1.706   5.215  25.173  0.00  0.00    +0.191 C 
BRANCH   3   2
ATOM      1  C   UNL     1      -0.388   5.337  24.635  0.00  0.00    +0.175 C 
ATOM      2  O   UNL     1      -0.960   4.893  25.033  0.00  0.00    -0.345 OA
ENDBRANCH   3   2
ENDBRANCH   4   3
ENDBRANCH   9   6
BRANCH  13  17
ATOM     17  O   UNL     1      -4.489   0.575  24.464  0.00  0.00    -0.432 OA
BRANCH  17  18
ATOM     18  C   UNL     1      -4.260  -0.209  24.582  0.00  0.00    +0.425 C 
ATOM     19  O   UNL     1      -4.255  -0.526  25.343  0.00  0.00    -0.224 OA
ATOM     20  N   UNL     1      -4.035  -0.674  23.939  0.00  0.00    -0.142 NA
BRANCH  20  21
ATOM     21  C   UNL     1      -3.806  -1.458  24.057  0.00  0.00    +0.077 A 
ATOM     22  C   UNL     1      -3.021  -1.635  24.240  0.00  0.00    +0.027 A 
ATOM     23  C   UNL     1      -2.792  -2.418  24.358  0.00  0.00    +0.070 A 
ATOM     24  C   UNL     1      -3.347  -3.025  24.293  0.00  0.00    +0.010 A 
ATOM     25  C   UNL     1      -4.133  -2.848  24.111  0.00  0.00    +0.002 A 
ATOM     26  C   UNL     1      -4.361  -2.064  23.993  0.00  0.00    +0.017 A 
BRANCH  23  27
ATOM     27  C   UNL     1      -2.007  -2.595  24.540  0.00  0.00    +0.100 C 
ATOM     28  N   UNL     1      -1.222  -2.773  24.722  0.00  0.00    -0.191 NA
ENDBRANCH  23  27
ENDBRANCH  20  21
ENDBRANCH  17  18
ENDBRANCH  13  17
TORSDOF 7
ENDMDL
MODEL 3
REMARK VINA RESULT:      -8.7      2.760      4.033
REMARK  Name = 
REMARK  7 active torsions:
REMARK  status: ('A' for Active; 'I' for Inactive)
REMARK    1  A    between atoms: O_2  and  C_3
REMARK    2  A    between atoms: C_3  and  C_4
REMARK    3  A    between atoms: N_6  and  C_9
REMARK    4  A    between atoms: C_13  and  O_17
REMARK    5  A    between atoms: O_17  and  C_18
REMARK    6  A    between atoms: N_20  and  C_21
REMARK    7  A    between atoms: C_23  and  C_27
REMARK                            x       y       z     vdW  Elec       q    Type
REMARK                         _______ _______ _______ _____ _____    ______ ____
ROOT
ATOM      9  C   UNL     1       0.472  -0.034  23.472  0.00  0.00    +0.166 C 
ATOM     10  C   UNL     1       0.050  -0.697  23.722  0.00  0.00    +0.169 C 
ATOM     11  O   UNL     1      -0.571  -0.438  24.199  0.00  0.00    -0.348 OA
ATOM     12  C   UNL     1      -0.532   0.384  24.244  0.00  0.00    +0.187 C 
ATOM     13  C   UNL     1      -0.891   1.054  24.567  0.00  0.00    +0.229 C 
ATOM     14  C   UNL     1      -0.469   1.716  24.316  0.00  0.00    +0.188 C 
ATOM     15  O   UNL     1       0.152   1.457  23.839  0.00  0.00    -0.348 OA
ATOM     16  C   UNL     1       0.113   0.634  23.794  0.00  0.00    +0.171 C 
ENDROOT
BRANCH   9   6
ATOM      4  C   UNL     1       2.402   0.025  22.561  0.00  0.00    +0.131 A 
ATOM      5  C   UNL     1       1.918   0.074  23.227  0.00  0.00    +0.116 A 
ATOM      6  N   UNL     1       1.138  -0.040  22.984  0.00  0.00    -0.227 N 
ATOM      7  N   UNL     1       1.139  -0.159  22.168  0.00  0.00    -0.064 NA
ATOM      8  N   UNL     1       1.921  -0.119  21.906  0.00  0.00    -0.131 NA
BRANCH   4   3
ATOM      3  C   UNL     1       3.224   0.105  22.551  0.00  0.00    +0.191 C 
BRANCH   3   2
ATOM      1  C   UNL     1       4.392   0.876  22.838  0.00  0.00    +0.175 C 
ATOM      2  O   UNL     1       3.570   0.816  22.784  0.00  0.00    -0.345 OA
ENDBRANCH   3   2
ENDBRANCH   4   3
ENDBRANCH   9   6
BRANCH  13  17
ATOM     17  O   UNL     1      -1.557   1.059  25.055  0.00  0.00    -0.432 OA
BRANCH  17  18
ATOM     18  C   UNL     1      -2.138   1.636  24.954  0.00  0.00    +0.425 C 
ATOM     19  O   UNL     1      -1.971   2.424  25.133  0.00  0.00    -0.224 OA
ATOM     20  N   UNL     1      -2.885   1.426  24.675  0.00  0.00    -0.142 NA
BRANCH  20  21
ATOM     21  C   UNL     1      -3.466   2.003  24.575  0.00  0.00    +0.077 A 
ATOM     22  C   UNL     1      -4.044   2.111  25.152  0.00  0.00    +0.027 A 
ATOM     23  C   UNL     1      -4.624   2.688  25.052  0.00  0.00    +0.070 A 
ATOM     24  C   UNL     1      -4.627   3.157  24.373  0.00  0.00    +0.010 A 
ATOM     25  C   UNL     1      -4.049   3.049  23.795  0.00  0.00    +0.002 A 
ATOM     26  C   UNL     1      -3.468   2.471  23.896  0.00  0.00    +0.017 A 
BRANCH  23  27
ATOM     27  C   UNL     1      -5.203   2.796  25.631  0.00  0.00    +0.100 C 
ATOM     28  N   UNL     1      -5.781   2.905  26.209  0.00  0.00    -0.191 NA
ENDBRANCH  23  27
ENDBRANCH  20  21
ENDBRANCH  17  18
ENDBRANCH  13  17
TORSDOF 7
ENDMDL
MODEL 4
REMARK VINA RESULT:      -8.1      2.154      2.740
REMARK  Name = 
REMARK  7 active torsions:
REMARK  status: ('A' for Active; 'I' for Inactive)
REMARK    1  A    between atoms: O_2  and  C_3
REMARK    2  A    between atoms: C_3  and  C_4
REMARK    3  A    between atoms: N_6  and  C_9
REMARK    4  A    between atoms: C_13  and  O_17
REMARK    5  A    between atoms: O_17  and  C_18
REMARK    6  A    between atoms: N_20  and  C_21
REMARK    7  A    between atoms: C_23  and  C_27
REMARK                            x       y       z     vdW  Elec       q    Type
REMARK                         _______ _______ _______ _____ _____    ______ ____
ROOT
ATOM      9  C   UNL     1      -4.259  -0.145  24.653  0.00  0.00    +0.166 C 
ATOM     10  C   UNL     1      -4.673   0.121  25.315  0.00  0.00    +0.169 C 
ATOM     11  O   UNL     1      -4.667   0.946  25.305  0.00  0.00    -0.348 OA
ATOM     12  C   UNL     1      -4.250   1.190  24.637  0.00  0.00    +0.187 C 
ATOM     13  C   UNL     1      -3.988   1.850  24.217  0.00  0.00    +0.229 C 
ATOM     14  C   UNL     1      -3.574   1.584  23.555  0.00  0.00    +0.188 C 
ATOM     15  O   UNL     1      -3.580   0.759  23.565  0.00  0.00    -0.348 OA
ATOM     16  C   UNL     1      -3.998   0.515  24.234  0.00  0.00    +0.171 C 
ENDROOT
BRANCH   9   6
ATOM      4  C   UNL     1      -3.567  -2.138  24.324  0.00  0.00    +0.131 A 
ATOM      5  C   UNL     1      -3.465  -1.383  24.641  0.00  0.00    +0.116 A 
ATOM      6  N   UNL     1      -4.130  -0.933  24.446  0.00  0.00    -0.227 N 
ATOM      7  N   UNL     1      -4.642  -1.410  24.010  0.00  0.00    -0.064 NA
ATOM      8  N   UNL     1      -4.294  -2.155  23.934  0.00  0.00    -0.131 NA
BRANCH   4   3
ATOM      3  C   UNL     1      -3.034  -2.765  24.386  0.00  0.00    +0.191 C 
BRANCH   3   2
ATOM      1  C   UNL     1      -1.668  -3.181  24.343  0.00  0.00    +0.175 C 
ATOM      2  O   UNL     1      -2.238  -2.616  24.538  0.00  0.00    -0.345 OA
ENDBRANCH   3   2
ENDBRANCH   4   3
ENDBRANCH   9   6
BRANCH  13  17
ATOM     17  O   UNL     1      -4.118   2.638  24.423  0.00  0.00    -0.432 OA
BRANCH  17  18
ATOM     18  C   UNL     1      -3.485   3.167  24.450  0.00  0.00    +0.425 C 
ATOM     19  O   UNL     1      -3.200   3.503  23.753  0.00  0.00    -0.224 OA
ATOM     20  N   UNL     1      -3.138   3.360  25.172  0.00  0.00    -0.142 NA
BRANCH  20  21
ATOM     21  C   UNL     1      -2.506   3.890  25.199  0.00  0.00    +0.077 A 
ATOM     22  C   UNL     1      -1.732   3.607  25.239  0.00  0.00    +0.027 A 
ATOM     23  C   UNL     1      -1.101   4.135  25.265  0.00  0.00    +0.070 A 
ATOM     24  C   UNL     1      -1.242   4.949  25.251  0.00  0.00    +0.010 A 
ATOM     25  C   UNL     1      -2.016   5.232  25.211  0.00  0.00    +0.002 A 
ATOM     26  C   UNL     1      -2.648   4.702  25.185  0.00  0.00    +0.017 A 
BRANCH  23  27
ATOM     27  C   UNL     1      -0.326   3.852  25.305  0.00  0.00    +0.100 C 
ATOM     28  N   UNL     1       0.447   3.569  25.345  0.00  0.00    -0.191 NA
ENDBRANCH  23  27
ENDBRANCH  20  21
ENDBRANCH  17  18
ENDBRANCH  13  17
TORSDOF 7
ENDMDL
MODEL 5
REMARK VINA RESULT:      -6.4     17.255     18.922
REMARK  Name = 
REMARK  7 active torsions:
REMARK  status: ('A' for Active; 'I' for Inactive)
REMARK    1  A    between atoms: O_2  and  C_3
REMARK    2  A    between atoms: C_3  and  C_4
REMARK    3  A    between atoms: N_6  and  C_9
REMARK    4  A    between atoms: C_13  and  O_17
REMARK    5  A    between atoms: O_17  and  C_18
REMARK    6  A    between atoms: N_20  and  C_21
REMARK    7  A    between atoms: C_23  and  C_27
REMARK                            x       y       z     vdW  Elec       q    Type
REMARK                         _______ _______ _______ _____ _____    ______ ____
ROOT
ATOM      9  C   UNL     1      -7.072  -8.542   8.749  0.00  0.00    +0.166 C 
ATOM     10  C   UNL     1      -6.916  -9.173   8.242  0.00  0.00    +0.169 C 
ATOM     11  O   UNL     1      -6.132  -9.402   8.354  0.00  0.00    -0.348 OA
ATOM     12  C   UNL     1      -5.803  -8.913   8.930  0.00  0.00    +0.187 C 
ATOM     13  C   UNL     1      -5.115  -8.752   9.356  0.00  0.00    +0.229 C 
ATOM     14  C   UNL     1      -5.270  -8.120   9.863  0.00  0.00    +0.188 C 
ATOM     15  O   UNL     1      -6.055  -7.891   9.751  0.00  0.00    -0.348 OA
ATOM     16  C   UNL     1      -6.384  -8.381   9.174  0.00  0.00    +0.171 C 
ENDROOT
BRANCH   9   6
ATOM      4  C   UNL     1      -8.778  -7.263   8.630  0.00  0.00    +0.131 A 
ATOM      5  C   UNL     1      -8.022  -7.482   8.381  0.00  0.00    +0.116 A 
ATOM      6  N   UNL     1      -7.790  -8.142   8.819  0.00  0.00    -0.227 N 
ATOM      7  N   UNL     1      -8.401  -8.330   9.340  0.00  0.00    -0.064 NA
ATOM      8  N   UNL     1      -9.012  -7.788   9.223  0.00  0.00    -0.131 NA
BRANCH   4   3
ATOM      3  C   UNL     1      -9.221  -6.631   8.338  0.00  0.00    +0.191 C 
BRANCH   3   2
ATOM      1  C   UNL     1      -9.738  -5.311   8.510  0.00  0.00    +0.175 C 
ATOM      2  O   UNL     1      -9.401  -5.993   8.829  0.00  0.00    -0.345 OA
ENDBRANCH   3   2
ENDBRANCH   4   3
ENDBRANCH   9   6
BRANCH  13  17
ATOM     17  O   UNL     1      -4.396  -9.152   9.286  0.00  0.00    -0.432 OA
BRANCH  17  18
ATOM     18  C   UNL     1      -3.899  -9.226   9.940  0.00  0.00    +0.425 C 
ATOM     19  O   UNL     1      -3.962  -8.694  10.567  0.00  0.00    -0.224 OA
ATOM     20  N   UNL     1      -3.341  -9.832   9.968  0.00  0.00    -0.142 NA
BRANCH  20  21
ATOM     21  C   UNL     1      -2.844  -9.905  10.623  0.00  0.00    +0.077 A 
ATOM     22  C   UNL     1      -2.127  -9.499  10.645  0.00  0.00    +0.027 A 
ATOM     23  C   UNL     1      -1.630  -9.573  11.298  0.00  0.00    +0.070 A 
ATOM     24  C   UNL     1      -1.851 -10.054  11.932  0.00  0.00    +0.010 A 
ATOM     25  C   UNL     1      -2.569 -10.460  11.911  0.00  0.00    +0.002 A 
ATOM     26  C   UNL     1      -3.065 -10.386  11.256  0.00  0.00    +0.017 A 
BRANCH  23  27
ATOM     27  C   UNL     1      -0.912  -9.167  11.320  0.00  0.00    +0.100 C 
ATOM     28  N   UNL     1      -0.195  -8.761  11.341  0.00  0.00    -0.191 NA
ENDBRANCH  23  27
ENDBRANCH  20  21
ENDBRANCH  17  18
ENDBRANCH  13  17
TORSDOF 7
ENDMDL
MODEL 6
REMARK VINA RESULT:      -6.3     14.126     16.839
REMARK  Name = 
REMARK  7 active torsions:
REMARK  status: ('A' for Active; 'I' for Inactive)
REMARK    1  A    between atoms: O_2  and  C_3
REMARK    2  A    between atoms: C_3  and  C_4
REMARK    3  A    between atoms: N_6  and  C_9
REMARK    4  A    between atoms: C_13  and  O_17
REMARK    5  A    between atoms: O_17  and  C_18
REMARK    6  A    between atoms: N_20  and  C_21
REMARK    7  A    between atoms: C_23  and  C_27
REMARK                            x       y       z     vdW  Elec       q    Type
REMARK                         _______ _______ _______ _____ _____    ______ ____
ROOT
ATOM      9  C   UNL     1      -4.920 -10.431  15.482  0.00  0.00    +0.166 C 
ATOM     10  C   UNL     1      -4.141 -10.685  15.578  0.00  0.00    +0.169 C 
ATOM     11  O   UNL     1      -3.810 -10.781  14.829  0.00  0.00    -0.348 OA
ATOM     12  C   UNL     1      -4.383 -10.586  14.270  0.00  0.00    +0.187 C 
ATOM     13  C   UNL     1      -4.535 -10.525  13.461  0.00  0.00    +0.229 C 
ATOM     14  C   UNL     1      -5.313 -10.271  13.365  0.00  0.00    +0.188 C 
ATOM     15  O   UNL     1      -5.644 -10.175  14.114  0.00  0.00    -0.348 OA
ATOM     16  C   UNL     1      -5.070 -10.370  14.674  0.00  0.00    +0.171 C 
ENDROOT
BRANCH   9   6
ATOM      4  C   UNL     1      -6.164 -10.361  17.216  0.00  0.00    +0.131 A 
ATOM      5  C   UNL     1      -5.585 -10.730  16.759  0.00  0.00    +0.116 A 
ATOM      6  N   UNL     1      -5.455 -10.267  16.089  0.00  0.00    -0.227 N 
ATOM      7  N   UNL     1      -5.953  -9.611  16.131  0.00  0.00    -0.064 NA
ATOM      8  N   UNL     1      -6.392  -9.669  16.828  0.00  0.00    -0.131 NA
BRANCH   4   3
ATOM      3  C   UNL     1      -6.463 -10.635  17.935  0.00  0.00    +0.191 C 
BRANCH   3   2
ATOM      1  C   UNL     1      -6.569 -10.504  19.354  0.00  0.00    +0.175 C 
ATOM      2  O   UNL     1      -6.359 -10.188  18.620  0.00  0.00    -0.345 OA
ENDBRANCH   3   2
ENDBRANCH   4   3
ENDBRANCH   9   6
BRANCH  13  17
ATOM     17  O   UNL     1      -4.000 -10.689  12.854  0.00  0.00    -0.432 OA
BRANCH  17  18
ATOM     18  C   UNL     1      -4.056 -10.289  12.135  0.00  0.00    +0.425 C 
ATOM     19  O   UNL     1      -4.617  -9.693  12.037  0.00  0.00    -0.224 OA
ATOM     20  N   UNL     1      -3.552 -10.486  11.513  0.00  0.00    -0.142 NA
BRANCH  20  21
ATOM     21  C   UNL     1      -3.608 -10.086  10.793  0.00  0.00    +0.077 A 
ATOM     22  C   UNL     1      -3.975 -10.446  10.149  0.00  0.00    +0.027 A 
ATOM     23  C   UNL     1      -4.032 -10.047   9.430  0.00  0.00    +0.070 A 
ATOM     24  C   UNL     1      -3.720  -9.286   9.354  0.00  0.00    +0.010 A 
ATOM     25  C   UNL     1      -3.352  -8.926   9.999  0.00  0.00    +0.002 A 
ATOM     26  C   UNL     1      -3.296  -9.326  10.718  0.00  0.00    +0.017 A 
BRANCH  23  27
ATOM     27  C   UNL     1      -4.400 -10.407   8.785  0.00  0.00    +0.100 C 
ATOM     28  N   UNL     1      -4.767 -10.767   8.140  0.00  0.00    -0.191 NA
ENDBRANCH  23  27
ENDBRANCH  20  21
ENDBRANCH  17  18
ENDBRANCH  13  17
TORSDOF 7
ENDMDL
MODEL 7
REMARK VINA RESULT:      -6.0     14.224     15.136
REMARK  Name = 
REMARK  7 active torsions:
REMARK  status: ('A' for Active; 'I' for Inactive)
REMARK    1  A    between atoms: O_2  and  C_3
REMARK    2  A    between atoms: C_3  and  C_4
REMARK    3  A    between atoms: N_6  and  C_9
REMARK    4  A    between atoms: C_13  and  O_17
REMARK    5  A    between atoms: O_17  and  C_18
REMARK    6  A    between atoms: N_20  and  C_21
REMARK    7  A    between atoms: C_23  and  C_27
REMARK                            x       y       z     vdW  Elec       q    Type
REMARK                         _______ _______ _______ _____ _____    ______ ____
ROOT
ATOM      9  C   UNL     1      -7.235  -9.734  17.055  0.00  0.00    +0.166 C 
ATOM     10  C   UNL     1      -7.083  -9.919  17.844  0.00  0.00    +0.169 C 
ATOM     11  O   UNL     1      -6.274 -10.059  17.922  0.00  0.00    -0.348 OA
ATOM     12  C   UNL     1      -5.926  -9.961  17.181  0.00  0.00    +0.187 C 
ATOM     13  C   UNL     1      -5.211  -9.987  16.770  0.00  0.00    +0.229 C 
ATOM     14  C   UNL     1      -5.362  -9.802  15.981  0.00  0.00    +0.188 C 
ATOM     15  O   UNL     1      -6.171  -9.662  15.904  0.00  0.00    -0.348 OA
ATOM     16  C   UNL     1      -6.520  -9.760  16.645  0.00  0.00    +0.171 C 
ENDROOT
BRANCH   9   6
ATOM      4  C   UNL     1      -9.099  -8.909  16.420  0.00  0.00    +0.131 A 
ATOM      5  C   UNL     1      -8.392  -8.852  16.841  0.00  0.00    +0.116 A 
ATOM      6  N   UNL     1      -7.973  -9.554  16.732  0.00  0.00    -0.227 N 
ATOM      7  N   UNL     1      -8.420 -10.045  16.244  0.00  0.00    -0.064 NA
ATOM      8  N   UNL     1      -9.117  -9.647  16.050  0.00  0.00    -0.131 NA
BRANCH   4   3
ATOM      3  C   UNL     1      -9.686  -8.330  16.376  0.00  0.00    +0.191 C 
BRANCH   3   2
ATOM      1  C   UNL     1     -10.037  -6.968  16.126  0.00  0.00    +0.175 C 
ATOM      2  O   UNL     1      -9.521  -7.604  16.022  0.00  0.00    -0.345 OA
ENDBRANCH   3   2
ENDBRANCH   4   3
ENDBRANCH   9   6
BRANCH  13  17
ATOM     17  O   UNL     1      -4.473 -10.166  17.093  0.00  0.00    -0.432 OA
BRANCH  17  18
ATOM     18  C   UNL     1      -3.793 -10.102  16.631  0.00  0.00    +0.425 C 
ATOM     19  O   UNL     1      -3.467  -9.359  16.478  0.00  0.00    -0.224 OA
ATOM     20  N   UNL     1      -3.438 -10.778  16.321  0.00  0.00    -0.142 NA
BRANCH  20  21
ATOM     21  C   UNL     1      -2.758 -10.714  15.858  0.00  0.00    +0.077 A 
ATOM     22  C   UNL     1      -2.812 -10.757  15.036  0.00  0.00    +0.027 A 
ATOM     23  C   UNL     1      -2.133 -10.693  14.574  0.00  0.00    +0.070 A 
ATOM     24  C   UNL     1      -1.398 -10.584  14.933  0.00  0.00    +0.010 A 
ATOM     25  C   UNL     1      -1.343 -10.540  15.756  0.00  0.00    +0.002 A 
ATOM     26  C   UNL     1      -2.024 -10.605  16.217  0.00  0.00    +0.017 A 
BRANCH  23  27
ATOM     27  C   UNL     1      -2.187 -10.737  13.752  0.00  0.00    +0.100 C 
ATOM     28  N   UNL     1      -2.241 -10.781  12.930  0.00  0.00    -0.191 NA
ENDBRANCH  23  27
ENDBRANCH  20  21
ENDBRANCH  17  18
ENDBRANCH  13  17
TORSDOF 7
ENDMDL
MODEL 8
REMARK VINA RESULT:      -5.6     14.643     16.605
REMARK  Name = 
REMARK  7 active torsions:
REMARK  status: ('A' for Active; 'I' for Inactive)
REMARK    1  A    between atoms: O_2  and  C_3
REMARK    2  A    between atoms: C_3  and  C_4
REMARK    3  A    between atoms: N_6  and  C_9
REMARK    4  A    between atoms: C_13  and  O_17
REMARK    5  A    between atoms: O_17  and  C_18
REMARK    6  A    between atoms: N_20  and  C_21
REMARK    7  A    between atoms: C_23  and  C_27
REMARK                            x       y       z     vdW  Elec       q    Type
REMARK                         _______ _______ _______ _____ _____    ______ ____
ROOT
ATOM      9  C   UNL     1      -6.535  -9.821  15.952  0.00  0.00    +0.166 C 
ATOM     10  C   UNL     1      -5.739  -9.660  16.092  0.00  0.00    +0.169 C 
ATOM     11  O   UNL     1      -5.325  -9.798  15.392  0.00  0.00    -0.348 OA
ATOM     12  C   UNL     1      -5.864 -10.045  14.821  0.00  0.00    +0.187 C 
ATOM     13  C   UNL     1      -5.944 -10.283  14.035  0.00  0.00    +0.229 C 
ATOM     14  C   UNL     1      -6.740 -10.444  13.895  0.00  0.00    +0.188 C 
ATOM     15  O   UNL     1      -7.154 -10.306  14.594  0.00  0.00    -0.348 OA
ATOM     16  C   UNL     1      -6.613 -10.059  15.167  0.00  0.00    +0.171 C 
ENDROOT
BRANCH   9   6
ATOM      4  C   UNL     1      -8.183  -9.282  17.199  0.00  0.00    +0.131 A 
ATOM      5  C   UNL     1      -7.659  -9.114  16.584  0.00  0.00    +0.116 A 
ATOM      6  N   UNL     1      -7.147  -9.756  16.502  0.00  0.00    -0.227 N 
ATOM      7  N   UNL     1      -7.354 -10.320  17.067  0.00  0.00    -0.064 NA
ATOM      8  N   UNL     1      -7.994 -10.028  17.498  0.00  0.00    -0.131 NA
BRANCH   4   3
ATOM      3  C   UNL     1      -8.789  -8.790  17.469  0.00  0.00    +0.191 C 
BRANCH   3   2
ATOM      1  C   UNL     1      -9.870  -7.898  17.196  0.00  0.00    +0.175 C 
ATOM      2  O   UNL     1      -9.248  -8.369  16.928  0.00  0.00    -0.345 OA
ENDBRANCH   3   2
ENDBRANCH   4   3
ENDBRANCH   9   6
BRANCH  13  17
ATOM     17  O   UNL     1      -5.332 -10.348  13.484  0.00  0.00    -0.432 OA
BRANCH  17  18
ATOM     18  C   UNL     1      -5.456 -10.124  12.700  0.00  0.00    +0.425 C 
ATOM     19  O   UNL     1      -6.141 -10.361  12.307  0.00  0.00    -0.224 OA
ATOM     20  N   UNL     1      -4.895  -9.663  12.309  0.00  0.00    -0.142 NA
BRANCH  20  21
ATOM     21  C   UNL     1      -5.020  -9.439  11.525  0.00  0.00    +0.077 A 
ATOM     22  C   UNL     1      -4.710  -9.895  10.911  0.00  0.00    +0.027 A 
ATOM     23  C   UNL     1      -4.834  -9.671  10.128  0.00  0.00    +0.070 A 
ATOM     24  C   UNL     1      -5.269  -8.990   9.956  0.00  0.00    +0.010 A 
ATOM     25  C   UNL     1      -5.578  -8.534  10.570  0.00  0.00    +0.002 A 
ATOM     26  C   UNL     1      -5.454  -8.759  11.354  0.00  0.00    +0.017 A 
BRANCH  23  27
ATOM     27  C   UNL     1      -4.524 -10.127   9.514  0.00  0.00    +0.100 C 
ATOM     28  N   UNL     1      -4.215 -10.583   8.900  0.00  0.00    -0.191 NA
ENDBRANCH  23  27
ENDBRANCH  20  21
ENDBRANCH  17  18
ENDBRANCH  13  17
TORSDOF 7
ENDMDL
MODEL 9
REMARK VINA RESULT:      -5.5     15.281     18.053
REMARK  Name = 
REMARK  7 active torsions:
REMARK  status: ('A' for Active; 'I' for Inactive)
REMARK    1  A    between atoms: O_2  and  C_3
REMARK    2  A    between atoms: C_3  and  C_4
REMARK    3  A    between atoms: N_6  and  C_9
REMARK    4  A    between atoms: C_13  and  O_17
REMARK    5  A    between atoms: O_17  and  C_18
REMARK    6  A    between atoms: N_20  and  C_21
REMARK    7  A    between atoms: C_23  and  C_27
REMARK                            x       y       z     vdW  Elec       q    Type
REMARK                         _______ _______ _______ _____ _____    ______ ____
ROOT
ATOM      9  C   UNL     1      -3.418 -10.430  11.958  0.00  0.00    +0.166 C 
ATOM     10  C   UNL     1      -3.072 -10.750  11.282  0.00  0.00    +0.169 C 
ATOM     11  O   UNL     1      -3.523 -10.519  10.632  0.00  0.00    -0.348 OA
ATOM     12  C   UNL     1      -4.148 -10.057  10.905  0.00  0.00    +0.187 C 
ATOM     13  C   UNL     1      -4.814  -9.628  10.673  0.00  0.00    +0.229 C 
ATOM     14  C   UNL     1      -5.160  -9.308  11.350  0.00  0.00    +0.188 C 
ATOM     15  O   UNL     1      -4.709  -9.538  12.000  0.00  0.00    -0.348 OA
ATOM     16  C   UNL     1      -4.083 -10.002  11.726  0.00  0.00    +0.171 C 
ENDROOT
BRANCH   9   6
ATOM      4  C   UNL     1      -2.351 -10.546  13.804  0.00  0.00    +0.131 A 
ATOM      5  C   UNL     1      -2.376 -10.386  12.996  0.00  0.00    +0.116 A 
ATOM      6  N   UNL     1      -3.146 -10.522  12.732  0.00  0.00    -0.227 N 
ATOM      7  N   UNL     1      -3.597 -10.766  13.378  0.00  0.00    -0.064 NA
ATOM      8  N   UNL     1      -3.106 -10.781  14.041  0.00  0.00    -0.131 NA
BRANCH   4   3
ATOM      3  C   UNL     1      -1.687 -10.482  14.291  0.00  0.00    +0.191 C 
BRANCH   3   2
ATOM      1  C   UNL     1      -1.132 -10.324  15.598  0.00  0.00    +0.175 C 
ATOM      2  O   UNL     1      -1.775 -10.499  15.111  0.00  0.00    -0.345 OA
ENDBRANCH   3   2
ENDBRANCH   4   3
ENDBRANCH   9   6
BRANCH  13  17
ATOM     17  O   UNL     1      -5.085  -9.536   9.900  0.00  0.00    -0.432 OA
BRANCH  17  18
ATOM     18  C   UNL     1      -5.721  -9.035   9.742  0.00  0.00    +0.425 C 
ATOM     19  O   UNL     1      -5.691  -8.245   9.978  0.00  0.00    -0.224 OA
ATOM     20  N   UNL     1      -6.387  -9.323   9.350  0.00  0.00    -0.142 NA
BRANCH  20  21
ATOM     21  C   UNL     1      -7.023  -8.821   9.192  0.00  0.00    +0.077 A 
ATOM     22  C   UNL     1      -7.756  -8.962   9.542  0.00  0.00    +0.027 A 
ATOM     23  C   UNL     1      -8.391  -8.462   9.385  0.00  0.00    +0.070 A 
ATOM     24  C   UNL     1      -8.294  -7.818   8.877  0.00  0.00    +0.010 A 
ATOM     25  C   UNL     1      -7.560  -7.677   8.526  0.00  0.00    +0.002 A 
ATOM     26  C   UNL     1      -6.925  -8.179   8.684  0.00  0.00    +0.017 A 
BRANCH  23  27
ATOM     27  C   UNL     1      -9.125  -8.603   9.735  0.00  0.00    +0.100 C 
ATOM     28  N   UNL     1      -9.858  -8.744  10.085  0.00  0.00    -0.191 NA
ENDBRANCH  23  27
ENDBRANCH  20  21
ENDBRANCH  17  18
ENDBRANCH  13  17
TORSDOF 7
ENDMDL
MODEL 10
REMARK VINA RESULT:      -5.3     14.750     17.533
REMARK  Name = 
REMARK  7 active torsions:
REMARK  status: ('A' for Active; 'I' for Inactive)
REMARK    1  A    between atoms: O_2  and  C_3
REMARK    2  A    between atoms: C_3  and  C_4
REMARK    3  A    between atoms: N_6  and  C_9
REMARK    4  A    between atoms: C_13  and  O_17
REMARK    5  A    between atoms: O_17  and  C_18
REMARK    6  A    between atoms: N_20  and  C_21
REMARK    7  A    between atoms: C_23  and  C_27
REMARK                            x       y       z     vdW  Elec       q    Type
REMARK                         _______ _______ _______ _____ _____    ______ ____
ROOT
ATOM      9  C   UNL     1      -7.051  -9.487  10.489  0.00  0.00    +0.166 C 
ATOM     10  C   UNL     1      -7.352 -10.254  10.527  0.00  0.00    +0.169 C 
ATOM     11  O   UNL     1      -7.076 -10.601  11.222  0.00  0.00    -0.348 OA
ATOM     12  C   UNL     1      -6.605 -10.050  11.614  0.00  0.00    +0.187 C 
ATOM     13  C   UNL     1      -6.143  -9.922  12.286  0.00  0.00    +0.229 C 
ATOM     14  C   UNL     1      -5.842  -9.156  12.248  0.00  0.00    +0.188 C 
ATOM     15  O   UNL     1      -6.118  -8.808  11.552  0.00  0.00    -0.348 OA
ATOM     16  C   UNL     1      -6.589  -9.361  11.161  0.00  0.00    +0.171 C 
ENDROOT
BRANCH   9   6
ATOM      4  C   UNL     1      -7.786  -8.053   9.088  0.00  0.00    +0.131 A 
ATOM      5  C   UNL     1      -7.895  -8.541   9.745  0.00  0.00    +0.116 A 
ATOM      6  N   UNL     1      -7.188  -8.942   9.885  0.00  0.00    -0.227 N 
ATOM      7  N   UNL     1      -6.641  -8.703   9.315  0.00  0.00    -0.064 NA
ATOM      8  N   UNL     1      -7.011  -8.153   8.822  0.00  0.00    -0.131 NA
BRANCH   4   3
ATOM      3  C   UNL     1      -8.352  -7.553   8.755  0.00  0.00    +0.191 C 
BRANCH   3   2
ATOM      1  C   UNL     1      -8.700  -6.304   8.156  0.00  0.00    +0.175 C 
ATOM      2  O   UNL     1      -8.138  -6.797   8.506  0.00  0.00    -0.345 OA
ENDBRANCH   3   2
ENDBRANCH   4   3
ENDBRANCH   9   6
BRANCH  13  17
ATOM     17  O   UNL     1      -6.006 -10.468  12.890  0.00  0.00    -0.432 OA
BRANCH  17  18
ATOM     18  C   UNL     1      -5.824 -10.204  13.651  0.00  0.00    +0.425 C 
ATOM     19  O   UNL     1      -5.371  -9.523  13.753  0.00  0.00    -0.224 OA
ATOM     20  N   UNL     1      -6.095 -10.621  14.308  0.00  0.00    -0.142 NA
BRANCH  20  21
ATOM     21  C   UNL     1      -5.913 -10.358  15.068  0.00  0.00    +0.077 A 
ATOM     22  C   UNL     1      -6.510 -10.068  15.559  0.00  0.00    +0.027 A 
ATOM     23  C   UNL     1      -6.328  -9.805  16.318  0.00  0.00    +0.070 A 
ATOM     24  C   UNL     1      -5.549  -9.831  16.589  0.00  0.00    +0.010 A 
ATOM     25  C   UNL     1      -4.952 -10.121  16.098  0.00  0.00    +0.002 A 
ATOM     26  C   UNL     1      -5.134 -10.384  15.338  0.00  0.00    +0.017 A 
BRANCH  23  27
ATOM     27  C   UNL     1      -6.925  -9.515  16.809  0.00  0.00    +0.100 C 
ATOM     28  N   UNL     1      -7.522  -9.226  17.299  0.00  0.00    -0.191 NA
ENDBRANCH  23  27
ENDBRANCH  20  21
ENDBRANCH  17  18
ENDBRANCH  13  17
TORSDOF 7
ENDMDL
