MODEL 1
REMARK VINA RESULT:     -10.4      0.000      0.000
REMARK  Name = 
REMARK  5 active torsions:
REMARK  status: ('A' for Active; 'I' for Inactive)
REMARK    1  A    between atoms: C_2  and  C_5
REMARK    2  A    between atoms: C_8  and  C_11
REMARK    3  A    between atoms: N_13  and  C_14
REMARK    4  A    between atoms: C_18  and  N_22
REMARK    5  A    between atoms: C_25  and  C_29
REMARK                            x       y       z     vdW  Elec       q    Type
REMARK                         _______ _______ _______ _____ _____    ______ ____
ROOT
ATOM     14  C   UNL     1      -1.773   1.946  24.276  0.00  0.00    +0.155 C 
ATOM     15  C   UNL     1      -1.358   2.655  24.348  0.00  0.00    +0.166 C 
ATOM     16  O   UNL     1      -0.553   2.486  24.284  0.00  0.00    -0.350 OA
ATOM     17  C   UNL     1      -0.471   1.673  24.172  0.00  0.00    +0.166 C 
ATOM     18  C   UNL     1       0.076   1.066  24.064  0.00  0.00    +0.154 C 
ATOM     19  C   UNL     1      -0.339   0.357  23.992  0.00  0.00    +0.166 C 
ATOM     20  O   UNL     1      -1.144   0.526  24.056  0.00  0.00    -0.350 OA
ATOM     21  C   UNL     1      -1.225   1.340  24.168  0.00  0.00    +0.166 C 
ENDROOT
BRANCH  18  22
ATOM     22  N   UNL     1       0.897   1.152  24.033  0.00  0.00    -0.200 NA
ATOM     23  C   UNL     1       1.336   0.724  23.481  0.00  0.00    +0.237 A 
ATOM     24  N   UNL     1       2.156   0.811  23.450  0.00  0.00    -0.209 NA
ATOM     25  C   UNL     1       2.596   0.383  22.898  0.00  0.00    +0.120 A 
ATOM     26  C   UNL     1       2.215  -0.132  22.378  0.00  0.00    +0.043 A 
ATOM     27  C   UNL     1       1.395  -0.219  22.409  0.00  0.00    +0.104 A 
ATOM     28  N   UNL     1       0.956   0.210  22.961  0.00  0.00    -0.211 NA
BRANCH  25  29
ATOM     29  C   UNL     1       3.415   0.469  22.867  0.00  0.00    +0.163 A 
ATOM     30  C   UNL     1       3.823   1.113  22.551  0.00  0.00    +0.042 A 
ATOM     31  C   UNL     1       4.631   0.969  22.634  0.00  0.00    +0.044 A 
ATOM     32  C   UNL     1       4.722   0.237  23.002  0.00  0.00    +0.180 A 
ATOM     33  O   UNL     1       3.971  -0.072  23.145  0.00  0.00    -0.449 OA
ENDBRANCH  25  29
ENDBRANCH  18  22
BRANCH  14  13
ATOM     11  C   UNL     1      -3.028   2.250  24.890  0.00  0.00    +0.265 C 
ATOM     12  O   UNL     1      -2.641   2.727  25.442  0.00  0.00    -0.268 OA
ATOM     13  N   UNL     1      -2.593   1.859  24.307  0.00  0.00    -0.198 NA
BRANCH  11   8
ATOM      5  C   UNL     1      -5.487   1.990  24.984  0.00  0.00    +0.071 A 
ATOM      6  C   UNL     1      -5.002   1.323  24.986  0.00  0.00    +0.004 A 
ATOM      7  C   UNL     1      -4.182   1.410  24.954  0.00  0.00    +0.005 A 
ATOM      8  C   UNL     1      -3.847   2.163  24.921  0.00  0.00    +0.055 A 
ATOM      9  C   UNL     1      -4.333   2.830  24.920  0.00  0.00    +0.005 A 
ATOM     10  C   UNL     1      -5.153   2.744  24.952  0.00  0.00    +0.004 A 
BRANCH   5   2
ATOM      1  F   UNL     1      -7.127   1.818  25.047  0.00  0.00    -0.166 F 
ATOM      2  C   UNL     1      -6.307   1.904  25.016  0.00  0.00    +0.419 C 
ATOM      3  F   UNL     1      -6.277   1.913  25.840  0.00  0.00    -0.166 F 
ATOM      4  F   UNL     1      -6.338   1.895  24.191  0.00  0.00    -0.166 F 
ENDBRANCH   5   2
ENDBRANCH  11   8
ENDBRANCH  14  13
TORSDOF 5
ENDMDL
MODEL 2
REMARK VINA RESULT:      -9.6      3.737      7.487
REMARK  Name = 
REMARK  5 active torsions:
REMARK  status: ('A' for Active; 'I' for Inactive)
REMARK    1  A    between atoms: C_2  and  C_5
REMARK    2  A    between atoms: C_8  and  C_11
REMARK    3  A    between atoms: N_13  and  C_14
REMARK    4  A    between atoms: C_18  and  N_22
REMARK    5  A    between atoms: C_25  and  C_29
REMARK                            x       y       z     vdW  Elec       q    Type
REMARK                         _______ _______ _______ _____ _____    ______ ____
ROOT
ATOM     14  C   UNL     1       0.627   0.681  23.650  0.00  0.00    +0.155 C 
ATOM     15  C   UNL     1       0.141   0.357  23.067  0.00  0.00    +0.166 C 
ATOM     16  O   UNL     1      -0.643   0.481  23.291  0.00  0.00    -0.350 OA
ATOM     17  C   UNL     1      -0.642   0.881  24.012  0.00  0.00    +0.166 C 
ATOM     18  C   UNL     1      -1.126   1.206  24.597  0.00  0.00    +0.154 C 
ATOM     19  C   UNL     1      -0.640   1.530  25.180  0.00  0.00    +0.166 C 
ATOM     20  O   UNL     1       0.144   1.405  24.955  0.00  0.00    -0.350 OA
ATOM     21  C   UNL     1       0.143   1.005  24.234  0.00  0.00    +0.166 C 
ENDROOT
BRANCH  18  22
ATOM     22  N   UNL     1      -1.951   1.206  24.598  0.00  0.00    -0.200 NA
ATOM     23  C   UNL     1      -2.363   1.878  24.841  0.00  0.00    +0.237 A 
ATOM     24  N   UNL     1      -3.188   1.879  24.842  0.00  0.00    -0.209 NA
ATOM     25  C   UNL     1      -3.600   2.551  25.086  0.00  0.00    +0.120 A 
ATOM     26  C   UNL     1      -3.187   3.222  25.328  0.00  0.00    +0.043 A 
ATOM     27  C   UNL     1      -2.362   3.222  25.327  0.00  0.00    +0.104 A 
ATOM     28  N   UNL     1      -1.950   2.550  25.083  0.00  0.00    -0.211 NA
BRANCH  25  29
ATOM     29  C   UNL     1      -4.425   2.551  25.087  0.00  0.00    +0.163 A 
ATOM     30  C   UNL     1      -4.909   3.023  25.560  0.00  0.00    +0.042 A 
ATOM     31  C   UNL     1      -5.694   2.844  25.381  0.00  0.00    +0.044 A 
ATOM     32  C   UNL     1      -5.695   2.262  24.797  0.00  0.00    +0.180 A 
ATOM     33  O   UNL     1      -4.911   2.081  24.615  0.00  0.00    -0.449 OA
ENDBRANCH  25  29
ENDBRANCH  18  22
BRANCH  14  13
ATOM     11  C   UNL     1       1.864   0.297  23.046  0.00  0.00    +0.265 C 
ATOM     12  O   UNL     1       1.450  -0.087  22.444  0.00  0.00    -0.268 OA
ATOM     13  N   UNL     1       1.452   0.681  23.649  0.00  0.00    -0.198 NA
BRANCH  11   8
ATOM      5  C   UNL     1       4.338   0.296  23.042  0.00  0.00    +0.071 A 
ATOM      6  C   UNL     1       3.926  -0.378  23.280  0.00  0.00    +0.004 A 
ATOM      7  C   UNL     1       3.102  -0.377  23.281  0.00  0.00    +0.005 A 
ATOM      8  C   UNL     1       2.688   0.297  23.045  0.00  0.00    +0.055 A 
ATOM      9  C   UNL     1       3.101   0.970  22.807  0.00  0.00    +0.005 A 
ATOM     10  C   UNL     1       3.926   0.970  22.805  0.00  0.00    +0.004 A 
BRANCH   5   2
ATOM      1  F   UNL     1       5.989   0.296  23.039  0.00  0.00    -0.166 F 
ATOM      2  C   UNL     1       5.164   0.296  23.041  0.00  0.00    +0.419 C 
ATOM      3  F   UNL     1       5.162   0.217  22.220  0.00  0.00    -0.166 F 
ATOM      4  F   UNL     1       5.165   0.375  23.862  0.00  0.00    -0.166 F 
ENDBRANCH   5   2
ENDBRANCH  11   8
ENDBRANCH  14  13
TORSDOF 5
ENDMDL
MODEL 3
REMARK VINA RESULT:      -7.5     15.328     16.859
REMARK  Name = 
REMARK  5 active torsions:
REMARK  status: ('A' for Active; 'I' for Inactive)
REMARK    1  A    between atoms: C_2  and  C_5
REMARK    2  A    between atoms: C_8  and  C_11
REMARK    3  A    between atoms: N_13  and  C_14
REMARK    4  A    between atoms: C_18  and  N_22
REMARK    5  A    between atoms: C_25  and  C_29
REMARK                            x       y       z     vdW  Elec       q    Type
REMARK                         _______ _______ _______ _____ _____    ______ ____
ROOT
ATOM     14  C   UNL     1      -5.904  -9.982  13.121  0.00  0.00    +0.155 C 
ATOM     15  C   UNL     1      -6.682  -9.767  13.291  0.00  0.00    +0.166 C 
ATOM     16  O   UNL     1      -6.824  -9.931  14.086  0.00  0.00    -0.350 OA
ATOM     17  C   UNL     1      -6.134 -10.247  14.409  0.00  0.00    +0.166 C 
ATOM     18  C   UNL     1      -5.794 -10.544  15.099  0.00  0.00    +0.154 C 
ATOM     19  C   UNL     1      -5.016 -10.759  14.929  0.00  0.00    +0.166 C 
ATOM     20  O   UNL     1      -4.874 -10.595  14.134  0.00  0.00    -0.350 OA
ATOM     21  C   UNL     1      -5.565 -10.279  13.811  0.00  0.00    +0.166 C 
ENDROOT
BRANCH  18  22
ATOM     22  N   UNL     1      -6.167 -10.614  15.832  0.00  0.00    -0.200 NA
ATOM     23  C   UNL     1      -5.730 -10.537  16.527  0.00  0.00    +0.237 A 
ATOM     24  N   UNL     1      -6.103 -10.606  17.259  0.00  0.00    -0.209 NA
ATOM     25  C   UNL     1      -5.665 -10.529  17.955  0.00  0.00    +0.120 A 
ATOM     26  C   UNL     1      -4.854 -10.382  17.917  0.00  0.00    +0.043 A 
ATOM     27  C   UNL     1      -4.481 -10.312  17.185  0.00  0.00    +0.104 A 
ATOM     28  N   UNL     1      -4.919 -10.390  16.490  0.00  0.00    -0.211 NA
BRANCH  25  29
ATOM     29  C   UNL     1      -6.038 -10.599  18.687  0.00  0.00    +0.163 A 
ATOM     30  C   UNL     1      -5.667 -10.758  19.407  0.00  0.00    +0.042 A 
ATOM     31  C   UNL     1      -6.247 -10.779  19.993  0.00  0.00    +0.044 A 
ATOM     32  C   UNL     1      -6.976 -10.633  19.636  0.00  0.00    +0.180 A 
ATOM     33  O   UNL     1      -6.846 -10.521  18.828  0.00  0.00    -0.449 OA
ENDBRANCH  25  29
ENDBRANCH  18  22
BRANCH  14  13
ATOM     11  C   UNL     1      -5.790  -9.348  11.845  0.00  0.00    +0.265 C 
ATOM     12  O   UNL     1      -6.423  -8.853  12.035  0.00  0.00    -0.268 OA
ATOM     13  N   UNL     1      -5.531  -9.912  12.388  0.00  0.00    -0.198 NA
BRANCH  11   8
ATOM      5  C   UNL     1      -4.671  -9.138   9.648  0.00  0.00    +0.071 A 
ATOM      6  C   UNL     1      -4.383  -8.722  10.299  0.00  0.00    +0.004 A 
ATOM      7  C   UNL     1      -4.756  -8.792  11.031  0.00  0.00    +0.005 A 
ATOM      8  C   UNL     1      -5.417  -9.278  11.113  0.00  0.00    +0.055 A 
ATOM      9  C   UNL     1      -5.706  -9.695  10.462  0.00  0.00    +0.005 A 
ATOM     10  C   UNL     1      -5.332  -9.625   9.729  0.00  0.00    +0.004 A 
BRANCH   5   2
ATOM      1  F   UNL     1      -3.925  -8.999   8.182  0.00  0.00    -0.166 F 
ATOM      2  C   UNL     1      -4.298  -9.068   8.915  0.00  0.00    +0.419 C 
ATOM      3  F   UNL     1      -5.016  -9.212   8.536  0.00  0.00    -0.166 F 
ATOM      4  F   UNL     1      -3.579  -8.925   9.295  0.00  0.00    -0.166 F 
ENDBRANCH   5   2
ENDBRANCH  11   8
ENDBRANCH  14  13
TORSDOF 5
ENDMDL
MODEL 4
REMARK VINA RESULT:      -7.4     15.567     17.382
REMARK  Name = 
REMARK  5 active torsions:
REMARK  status: ('A' for Active; 'I' for Inactive)
REMARK    1  A    between atoms: C_2  and  C_5
REMARK    2  A    between atoms: C_8  and  C_11
REMARK    3  A    between atoms: N_13  and  C_14
REMARK    4  A    between atoms: C_18  and  N_22
REMARK    5  A    between atoms: C_25  and  C_29
REMARK                            x       y       z     vdW  Elec       q    Type
REMARK                         _______ _______ _______ _____ _____    ______ ____
ROOT
ATOM     14  C   UNL     1      -6.643  -9.633  13.074  0.00  0.00    +0.155 C 
ATOM     15  C   UNL     1      -7.427  -9.532  12.839  0.00  0.00    +0.166 C 
ATOM     16  O   UNL     1      -7.911  -9.719  13.481  0.00  0.00    -0.350 OA
ATOM     17  C   UNL     1      -7.426  -9.935  14.111  0.00  0.00    +0.166 C 
ATOM     18  C   UNL     1      -7.424 -10.184  14.898  0.00  0.00    +0.154 C 
ATOM     19  C   UNL     1      -6.639 -10.285  15.132  0.00  0.00    +0.166 C 
ATOM     20  O   UNL     1      -6.156 -10.098  14.491  0.00  0.00    -0.350 OA
ATOM     21  C   UNL     1      -6.642  -9.882  13.859  0.00  0.00    +0.166 C 
ENDROOT
BRANCH  18  22
ATOM     22  N   UNL     1      -8.090 -10.311  15.368  0.00  0.00    -0.200 NA
ATOM     23  C   UNL     1      -8.141  -9.963  16.114  0.00  0.00    +0.237 A 
ATOM     24  N   UNL     1      -8.807 -10.089  16.584  0.00  0.00    -0.209 NA
ATOM     25  C   UNL     1      -8.858  -9.741  17.330  0.00  0.00    +0.120 A 
ATOM     26  C   UNL     1      -8.242  -9.267  17.607  0.00  0.00    +0.043 A 
ATOM     27  C   UNL     1      -7.575  -9.140  17.137  0.00  0.00    +0.104 A 
ATOM     28  N   UNL     1      -7.525  -9.489  16.391  0.00  0.00    -0.211 NA
BRANCH  25  29
ATOM     29  C   UNL     1      -9.524  -9.867  17.800  0.00  0.00    +0.163 A 
ATOM     30  C   UNL     1     -10.191  -9.383  17.835  0.00  0.00    +0.042 A 
ATOM     31  C   UNL     1     -10.719  -9.716  18.374  0.00  0.00    +0.044 A 
ATOM     32  C   UNL     1     -10.379 -10.405  18.672  0.00  0.00    +0.180 A 
ATOM     33  O   UNL     1      -9.640 -10.499  18.317  0.00  0.00    -0.449 OA
ENDBRANCH  25  29
ENDBRANCH  18  22
BRANCH  14  13
ATOM     11  C   UNL     1      -6.037  -9.546  11.782  0.00  0.00    +0.265 C 
ATOM     12  O   UNL     1      -6.766  -9.712  11.430  0.00  0.00    -0.268 OA
ATOM     13  N   UNL     1      -5.976  -9.506  12.604  0.00  0.00    -0.198 NA
BRANCH  11   8
ATOM      5  C   UNL     1      -4.039  -9.167  10.372  0.00  0.00    +0.071 A 
ATOM      6  C   UNL     1      -4.163  -9.903  10.722  0.00  0.00    +0.004 A 
ATOM      7  C   UNL     1      -4.829 -10.029  11.192  0.00  0.00    +0.005 A 
ATOM      8  C   UNL     1      -5.371  -9.419  11.312  0.00  0.00    +0.055 A 
ATOM      9  C   UNL     1      -5.248  -8.683  10.962  0.00  0.00    +0.005 A 
ATOM     10  C   UNL     1      -4.581  -8.556  10.492  0.00  0.00    +0.004 A 
BRANCH   5   2
ATOM      1  F   UNL     1      -2.707  -8.913   9.432  0.00  0.00    -0.166 F 
ATOM      2  C   UNL     1      -3.373  -9.040   9.902  0.00  0.00    +0.419 C 
ATOM      3  F   UNL     1      -2.906  -8.983  10.579  0.00  0.00    -0.166 F 
ATOM      4  F   UNL     1      -3.840  -9.097   9.224  0.00  0.00    -0.166 F 
ENDBRANCH   5   2
ENDBRANCH  11   8
ENDBRANCH  14  13
TORSDOF 5
ENDMDL
MODEL 5
REMARK VINA RESULT:      -6.4     17.566     19.428
REMARK  Name = 
REMARK  5 active torsions:
REMARK  status: ('A' for Active; 'I' for Inactive)
REMARK    1  A    between atoms: C_2  and  C_5
REMARK    2  A    between atoms: C_8  and  C_11
REMARK    3  A    between atoms: N_13  and  C_14
REMARK    4  A    between atoms: C_18  and  N_22
REMARK    5  A    between atoms: C_25  and  C_29
REMARK                            x       y       z     vdW  Elec       q    Type
REMARK                         _______ _______ _______ _____ _____    ______ ____
ROOT
ATOM     14  C   UNL     1      -4.287  -9.758  10.484  0.00  0.00    +0.155 C 
ATOM     15  C   UNL     1      -4.639 -10.392  10.875  0.00  0.00    +0.166 C 
ATOM     16  O   UNL     1      -5.375 -10.528  10.529  0.00  0.00    -0.350 OA
ATOM     17  C   UNL     1      -5.478  -9.978   9.924  0.00  0.00    +0.166 C 
ATOM     18  C   UNL     1      -5.996  -9.720   9.336  0.00  0.00    +0.154 C 
ATOM     19  C   UNL     1      -5.644  -9.086   8.944  0.00  0.00    +0.166 C 
ATOM     20  O   UNL     1      -4.908  -8.950   9.291  0.00  0.00    -0.350 OA
ATOM     21  C   UNL     1      -4.805  -9.501   9.896  0.00  0.00    +0.166 C 
ENDROOT
BRANCH  18  22
ATOM     22  N   UNL     1      -6.737 -10.042   9.168  0.00  0.00    -0.200 NA
ATOM     23  C   UNL     1      -7.409  -9.563   9.183  0.00  0.00    +0.237 A 
ATOM     24  N   UNL     1      -8.149  -9.884   9.015  0.00  0.00    -0.209 NA
ATOM     25  C   UNL     1      -8.820  -9.405   9.030  0.00  0.00    +0.120 A 
ATOM     26  C   UNL     1      -8.750  -8.603   9.211  0.00  0.00    +0.043 A 
ATOM     27  C   UNL     1      -8.009  -8.281   9.379  0.00  0.00    +0.104 A 
ATOM     28  N   UNL     1      -7.339  -8.761   9.364  0.00  0.00    -0.211 NA
BRANCH  25  29
ATOM     29  C   UNL     1      -9.561  -9.726   8.862  0.00  0.00    +0.163 A 
ATOM     30  C   UNL     1      -9.968  -9.661   8.147  0.00  0.00    +0.042 A 
ATOM     31  C   UNL     1     -10.684 -10.064   8.224  0.00  0.00    +0.044 A 
ATOM     32  C   UNL     1     -10.719 -10.378   8.985  0.00  0.00    +0.180 A 
ATOM     33  O   UNL     1     -10.025 -10.169   9.380  0.00  0.00    -0.449 OA
ENDBRANCH  25  29
ENDBRANCH  18  22
BRANCH  14  13
ATOM     11  C   UNL     1      -2.908  -9.932  10.820  0.00  0.00    +0.265 C 
ATOM     12  O   UNL     1      -3.013 -10.751  10.821  0.00  0.00    -0.268 OA
ATOM     13  N   UNL     1      -3.546  -9.435  10.651  0.00  0.00    -0.198 NA
BRANCH  11   8
ATOM      5  C   UNL     1      -0.686  -8.967  11.322  0.00  0.00    +0.071 A 
ATOM      6  C   UNL     1      -1.105  -8.713  10.659  0.00  0.00    +0.004 A 
ATOM      7  C   UNL     1      -1.846  -9.034  10.492  0.00  0.00    +0.005 A 
ATOM      8  C   UNL     1      -2.168  -9.610  10.987  0.00  0.00    +0.055 A 
ATOM      9  C   UNL     1      -1.748  -9.865  11.650  0.00  0.00    +0.005 A 
ATOM     10  C   UNL     1      -1.007  -9.543  11.818  0.00  0.00    +0.004 A 
BRANCH   5   2
ATOM      1  F   UNL     1       0.797  -8.324  11.658  0.00  0.00    -0.166 F 
ATOM      2  C   UNL     1       0.056  -8.646  11.490  0.00  0.00    +0.419 C 
ATOM      3  F   UNL     1      -0.237  -8.338  12.197  0.00  0.00    -0.166 F 
ATOM      4  F   UNL     1       0.349  -8.954  10.783  0.00  0.00    -0.166 F 
ENDBRANCH   5   2
ENDBRANCH  11   8
ENDBRANCH  14  13
TORSDOF 5
ENDMDL
