MODEL 1
REMARK VINA RESULT:     -11.4      0.000      0.000
REMARK  Name = 
REMARK  5 active torsions:
REMARK  status: ('A' for Active; 'I' for Inactive)
REMARK    1  A    between atoms: C_8  and  C_10
REMARK    2  A    between atoms: C_10  and  C_11
REMARK    3  A    between atoms: C_13  and  C_14
REMARK    4  A    between atoms: C_14  and  N_15
REMARK    5  A    between atoms: C_16  and  C_18
REMARK                            x       y       z     vdW  Elec       q    Type
REMARK                         _______ _______ _______ _____ _____    ______ ____
ROOT
ATOM     11  C   UNL     1      -4.562   1.494  24.866  0.00  0.00    +0.157 C 
ATOM     12  O   UNL     1      -3.926   1.985  25.052  0.00  0.00    -0.351 OA
ATOM     13  C   UNL     1      -4.226   2.730  25.245  0.00  0.00    +0.170 C 
ATOM     21  C   UNL     1      -5.048   2.697  25.178  0.00  0.00    +0.213 C 
ATOM     22  O   UNL     1      -5.571   3.319  25.321  0.00  0.00    -0.218 OA
ATOM     23  C   UNL     1      -5.255   1.934  24.944  0.00  0.00    +0.212 C 
ATOM     24  O   UNL     1      -6.022   1.659  24.811  0.00  0.00    -0.218 OA
ENDROOT
BRANCH  11  10
ATOM     10  C   UNL     1      -4.513   0.702  24.641  0.00  0.00    +0.117 C 
BRANCH  10   8
ATOM      1  C   UNL     1      -3.682  -2.945  24.089  0.00  0.00    +0.000 C 
ATOM      2  C   UNL     1      -3.786  -2.167  24.344  0.00  0.00    +0.003 C 
ATOM      3  C   UNL     1      -4.203  -1.632  23.876  0.00  0.00    +0.022 C 
ATOM      4  C   UNL     1      -4.306  -0.853  24.131  0.00  0.00    +0.093 C 
ATOM      5  N   UNL     1      -3.992  -0.612  24.854  0.00  0.00    -0.279 N 
ATOM      6  C   UNL     1      -3.574  -1.147  25.323  0.00  0.00    +0.093 C 
ATOM      7  C   UNL     1      -3.471  -1.925  25.068  0.00  0.00    +0.022 C 
ATOM      8  C   UNL     1      -4.095   0.166  25.110  0.00  0.00    +0.228 C 
ATOM      9  O   UNL     1      -3.781   0.408  25.833  0.00  0.00    -0.275 OA
ENDBRANCH  10   8
ENDBRANCH  11  10
BRANCH  13  14
ATOM     14  C   UNL     1      -3.783   3.389  25.466  0.00  0.00    +0.147 C 
BRANCH  14  15
ATOM     15  N   UNL     1      -2.996   3.455  25.228  0.00  0.00    -0.203 NA
ATOM     16  C   UNL     1      -2.507   4.026  25.571  0.00  0.00    +0.241 C 
ATOM     17  O   UNL     1      -2.807   4.530  26.150  0.00  0.00    -0.273 OA
BRANCH  16  18
ATOM     18  C   UNL     1      -1.720   4.092  25.333  0.00  0.00    +0.078 C 
ATOM     19  C   UNL     1      -0.963   3.770  25.272  0.00  0.00    +0.010 C 
ATOM     20  C   UNL     1      -1.114   4.528  24.982  0.00  0.00    +0.010 C 
ENDBRANCH  16  18
ENDBRANCH  14  15
ENDBRANCH  13  14
TORSDOF 5
ENDMDL
MODEL 2
REMARK VINA RESULT:     -10.0      2.345      5.273
REMARK  Name = 
REMARK  5 active torsions:
REMARK  status: ('A' for Active; 'I' for Inactive)
REMARK    1  A    between atoms: C_8  and  C_10
REMARK    2  A    between atoms: C_10  and  C_11
REMARK    3  A    between atoms: C_13  and  C_14
REMARK    4  A    between atoms: C_14  and  N_15
REMARK    5  A    between atoms: C_16  and  C_18
REMARK                            x       y       z     vdW  Elec       q    Type
REMARK                         _______ _______ _______ _____ _____    ______ ____
ROOT
ATOM     11  C   UNL     1      -1.371   1.191  24.351  0.00  0.00    +0.157 C 
ATOM     12  O   UNL     1      -1.726   0.456  24.475  0.00  0.00    -0.351 OA
ATOM     13  C   UNL     1      -1.147  -0.125  24.386  0.00  0.00    +0.170 C 
ATOM     21  C   UNL     1      -0.435   0.251  24.207  0.00  0.00    +0.213 C 
ATOM     22  O   UNL     1       0.289  -0.121  24.074  0.00  0.00    -0.218 OA
ATOM     23  C   UNL     1      -0.574   1.063  24.185  0.00  0.00    +0.212 C 
ATOM     24  O   UNL     1      -0.012   1.647  24.026  0.00  0.00    -0.218 OA
ENDROOT
BRANCH  11  10
ATOM     10  C   UNL     1      -1.749   1.923  24.386  0.00  0.00    +0.117 C 
BRANCH  10   8
ATOM      1  C   UNL     1      -4.844   3.859  25.370  0.00  0.00    +0.000 C 
ATOM      2  C   UNL     1      -4.249   3.404  25.025  0.00  0.00    +0.003 C 
ATOM      3  C   UNL     1      -3.535   3.289  25.421  0.00  0.00    +0.022 C 
ATOM      4  C   UNL     1      -2.939   2.834  25.076  0.00  0.00    +0.093 C 
ATOM      5  N   UNL     1      -3.058   2.493  24.335  0.00  0.00    -0.279 N 
ATOM      6  C   UNL     1      -3.773   2.607  23.937  0.00  0.00    +0.093 C 
ATOM      7  C   UNL     1      -4.368   3.063  24.283  0.00  0.00    +0.022 C 
ATOM      8  C   UNL     1      -2.464   2.038  23.989  0.00  0.00    +0.228 C 
ATOM      9  O   UNL     1      -2.583   1.697  23.247  0.00  0.00    -0.275 OA
ENDBRANCH  10   8
ENDBRANCH  11  10
BRANCH  13  14
ATOM     14  C   UNL     1      -1.261  -0.938  24.463  0.00  0.00    +0.147 C 
BRANCH  14  15
ATOM     15  N   UNL     1      -2.024  -1.243  24.537  0.00  0.00    -0.203 NA
ATOM     16  C   UNL     1      -2.139  -2.058  24.595  0.00  0.00    +0.241 C 
ATOM     17  O   UNL     1      -1.491  -2.568  24.579  0.00  0.00    -0.273 OA
BRANCH  16  18
ATOM     18  C   UNL     1      -2.903  -2.363  24.669  0.00  0.00    +0.078 C 
ATOM     19  C   UNL     1      -3.541  -2.582  25.142  0.00  0.00    +0.010 C 
ATOM     20  C   UNL     1      -3.585  -2.671  24.323  0.00  0.00    +0.010 C 
ENDBRANCH  16  18
ENDBRANCH  14  15
ENDBRANCH  13  14
TORSDOF 5
ENDMDL
MODEL 3
REMARK VINA RESULT:     -10.0      0.854      4.789
REMARK  Name = 
REMARK  5 active torsions:
REMARK  status: ('A' for Active; 'I' for Inactive)
REMARK    1  A    between atoms: C_8  and  C_10
REMARK    2  A    between atoms: C_10  and  C_11
REMARK    3  A    between atoms: C_13  and  C_14
REMARK    4  A    between atoms: C_14  and  N_15
REMARK    5  A    between atoms: C_16  and  C_18
REMARK                            x       y       z     vdW  Elec       q    Type
REMARK                         _______ _______ _______ _____ _____    ______ ____
ROOT
ATOM     11  C   UNL     1      -4.045   2.273  25.069  0.00  0.00    +0.157 C 
ATOM     12  O   UNL     1      -3.842   1.525  24.786  0.00  0.00    -0.351 OA
ATOM     13  C   UNL     1      -4.533   1.077  24.734  0.00  0.00    +0.170 C 
ATOM     21  C   UNL     1      -5.162   1.549  24.984  0.00  0.00    +0.213 C 
ATOM     22  O   UNL     1      -5.954   1.322  25.021  0.00  0.00    -0.218 OA
ATOM     23  C   UNL     1      -4.860   2.288  25.191  0.00  0.00    +0.212 C 
ATOM     24  O   UNL     1      -5.298   2.929  25.472  0.00  0.00    -0.218 OA
ENDROOT
BRANCH  11  10
ATOM     10  C   UNL     1      -3.522   2.897  25.205  0.00  0.00    +0.117 C 
BRANCH  10   8
ATOM      1  C   UNL     1      -0.615   5.301  24.944  0.00  0.00    +0.000 C 
ATOM      2  C   UNL     1      -1.139   4.666  25.007  0.00  0.00    +0.003 C 
ATOM      3  C   UNL     1      -1.952   4.801  25.015  0.00  0.00    +0.022 C 
ATOM      4  C   UNL     1      -2.476   4.166  25.078  0.00  0.00    +0.093 C 
ATOM      5  N   UNL     1      -2.185   3.397  25.134  0.00  0.00    -0.279 N 
ATOM      6  C   UNL     1      -1.371   3.261  25.126  0.00  0.00    +0.093 C 
ATOM      7  C   UNL     1      -0.848   3.896  25.063  0.00  0.00    +0.022 C 
ATOM      8  C   UNL     1      -2.708   2.761  25.197  0.00  0.00    +0.228 C 
ATOM      9  O   UNL     1      -2.417   1.992  25.253  0.00  0.00    -0.275 OA
ENDBRANCH  10   8
ENDBRANCH  11  10
BRANCH  13  14
ATOM     14  C   UNL     1      -4.586   0.295  24.476  0.00  0.00    +0.147 C 
BRANCH  14  15
ATOM     15  N   UNL     1      -4.152  -0.294  24.856  0.00  0.00    -0.203 NA
ATOM     16  C   UNL     1      -4.101  -1.049  24.525  0.00  0.00    +0.241 C 
ATOM     17  O   UNL     1      -4.486  -1.213  23.814  0.00  0.00    -0.273 OA
BRANCH  16  18
ATOM     18  C   UNL     1      -3.667  -1.638  24.905  0.00  0.00    +0.078 C 
ATOM     19  C   UNL     1      -3.308  -2.380  24.894  0.00  0.00    +0.010 C 
ATOM     20  C   UNL     1      -3.274  -1.916  25.576  0.00  0.00    +0.010 C 
ENDBRANCH  16  18
ENDBRANCH  14  15
ENDBRANCH  13  14
TORSDOF 5
ENDMDL
MODEL 4
REMARK VINA RESULT:      -9.7      2.193      3.148
REMARK  Name = 
REMARK  5 active torsions:
REMARK  status: ('A' for Active; 'I' for Inactive)
REMARK    1  A    between atoms: C_8  and  C_10
REMARK    2  A    between atoms: C_10  and  C_11
REMARK    3  A    between atoms: C_13  and  C_14
REMARK    4  A    between atoms: C_14  and  N_15
REMARK    5  A    between atoms: C_16  and  C_18
REMARK                            x       y       z     vdW  Elec       q    Type
REMARK                         _______ _______ _______ _____ _____    ______ ____
ROOT
ATOM     11  C   UNL     1      -0.986   0.502  24.607  0.00  0.00    +0.157 C 
ATOM     12  O   UNL     1      -1.194   1.242  24.906  0.00  0.00    -0.351 OA
ATOM     13  C   UNL     1      -0.591   1.772  24.717  0.00  0.00    +0.170 C 
ATOM     21  C   UNL     1      -0.010   1.359  24.302  0.00  0.00    +0.213 C 
ATOM     22  O   UNL     1       0.693   1.675  24.006  0.00  0.00    -0.218 OA
ATOM     23  C   UNL     1      -0.254   0.574  24.234  0.00  0.00    +0.212 C 
ATOM     24  O   UNL     1       0.161  -0.032  23.858  0.00  0.00    -0.218 OA
ENDROOT
BRANCH  11  10
ATOM     10  C   UNL     1      -1.432  -0.189  24.671  0.00  0.00    +0.117 C 
BRANCH  10   8
ATOM      1  C   UNL     1      -3.937  -3.012  24.437  0.00  0.00    +0.000 C 
ATOM      2  C   UNL     1      -3.508  -2.306  24.438  0.00  0.00    +0.003 C 
ATOM      3  C   UNL     1      -2.716  -2.305  24.667  0.00  0.00    +0.022 C 
ATOM      4  C   UNL     1      -2.288  -1.600  24.669  0.00  0.00    +0.093 C 
ATOM      5  N   UNL     1      -2.652  -0.896  24.440  0.00  0.00    -0.279 N 
ATOM      6  C   UNL     1      -3.445  -0.897  24.211  0.00  0.00    +0.093 C 
ATOM      7  C   UNL     1      -3.873  -1.603  24.210  0.00  0.00    +0.022 C 
ATOM      8  C   UNL     1      -2.225  -0.190  24.441  0.00  0.00    +0.228 C 
ATOM      9  O   UNL     1      -2.589   0.513  24.213  0.00  0.00    -0.275 OA
ENDBRANCH  10   8
ENDBRANCH  11  10
BRANCH  13  14
ATOM     14  C   UNL     1      -0.572   2.574  24.910  0.00  0.00    +0.147 C 
BRANCH  14  15
ATOM     15  N   UNL     1      -1.260   2.955  25.158  0.00  0.00    -0.203 NA
ATOM     16  C   UNL     1      -1.256   3.769  25.293  0.00  0.00    +0.241 C 
ATOM     17  O   UNL     1      -0.562   4.201  25.180  0.00  0.00    -0.273 OA
BRANCH  16  18
ATOM     18  C   UNL     1      -1.944   4.150  25.541  0.00  0.00    +0.078 C 
ATOM     19  C   UNL     1      -2.418   4.824  25.566  0.00  0.00    +0.010 C 
ATOM     20  C   UNL     1      -2.662   4.134  25.946  0.00  0.00    +0.010 C 
ENDBRANCH  16  18
ENDBRANCH  14  15
ENDBRANCH  13  14
TORSDOF 5
ENDMDL
MODEL 5
REMARK VINA RESULT:      -9.4      2.081      3.527
REMARK  Name = 
REMARK  5 active torsions:
REMARK  status: ('A' for Active; 'I' for Inactive)
REMARK    1  A    between atoms: C_8  and  C_10
REMARK    2  A    between atoms: C_10  and  C_11
REMARK    3  A    between atoms: C_13  and  C_14
REMARK    4  A    between atoms: C_14  and  N_15
REMARK    5  A    between atoms: C_16  and  C_18
REMARK                            x       y       z     vdW  Elec       q    Type
REMARK                         _______ _______ _______ _____ _____    ______ ____
ROOT
ATOM     11  C   UNL     1      -1.591   2.661  25.381  0.00  0.00    +0.157 C 
ATOM     12  O   UNL     1      -2.413   2.607  25.329  0.00  0.00    -0.351 OA
ATOM     13  C   UNL     1      -2.723   3.369  25.398  0.00  0.00    +0.170 C 
ATOM     21  C   UNL     1      -2.092   3.893  25.492  0.00  0.00    +0.213 C 
ATOM     22  O   UNL     1      -2.151   4.711  25.581  0.00  0.00    -0.218 OA
ATOM     23  C   UNL     1      -1.393   3.455  25.482  0.00  0.00    +0.212 C 
ATOM     24  O   UNL     1      -0.630   3.759  25.559  0.00  0.00    -0.218 OA
ENDROOT
BRANCH  11  10
ATOM     10  C   UNL     1      -1.061   2.030  25.340  0.00  0.00    +0.117 C 
BRANCH  10   8
ATOM      1  C   UNL     1      -0.799  -1.740  25.223  0.00  0.00    +0.000 C 
ATOM      2  C   UNL     1      -0.873  -0.928  25.093  0.00  0.00    +0.003 C 
ATOM      3  C   UNL     1      -0.840  -0.404  25.729  0.00  0.00    +0.022 C 
ATOM      4  C   UNL     1      -0.914   0.408  25.599  0.00  0.00    +0.093 C 
ATOM      5  N   UNL     1      -1.020   0.694  24.834  0.00  0.00    -0.279 N 
ATOM      6  C   UNL     1      -1.053   0.170  24.197  0.00  0.00    +0.093 C 
ATOM      7  C   UNL     1      -0.979  -0.641  24.327  0.00  0.00    +0.022 C 
ATOM      8  C   UNL     1      -1.094   1.506  24.703  0.00  0.00    +0.228 C 
ATOM      9  O   UNL     1      -1.200   1.793  23.937  0.00  0.00    -0.275 OA
ENDBRANCH  10   8
ENDBRANCH  11  10
BRANCH  13  14
ATOM     14  C   UNL     1      -3.522   3.571  25.376  0.00  0.00    +0.147 C 
BRANCH  14  15
ATOM     15  N   UNL     1      -4.097   2.979  25.361  0.00  0.00    -0.203 NA
ATOM     16  C   UNL     1      -4.897   3.180  25.391  0.00  0.00    +0.241 C 
ATOM     17  O   UNL     1      -5.122   3.973  25.434  0.00  0.00    -0.273 OA
BRANCH  16  18
ATOM     18  C   UNL     1      -5.472   2.588  25.377  0.00  0.00    +0.078 C 
ATOM     19  C   UNL     1      -6.049   2.144  25.763  0.00  0.00    +0.010 C 
ATOM     20  C   UNL     1      -5.889   2.008  24.965  0.00  0.00    +0.010 C 
ENDBRANCH  16  18
ENDBRANCH  14  15
ENDBRANCH  13  14
TORSDOF 5
ENDMDL
MODEL 6
REMARK VINA RESULT:      -9.3      2.358      4.380
REMARK  Name = 
REMARK  5 active torsions:
REMARK  status: ('A' for Active; 'I' for Inactive)
REMARK    1  A    between atoms: C_8  and  C_10
REMARK    2  A    between atoms: C_10  and  C_11
REMARK    3  A    between atoms: C_13  and  C_14
REMARK    4  A    between atoms: C_14  and  N_15
REMARK    5  A    between atoms: C_16  and  C_18
REMARK                            x       y       z     vdW  Elec       q    Type
REMARK                         _______ _______ _______ _____ _____    ______ ____
ROOT
ATOM     11  C   UNL     1      -3.721  -0.470  24.550  0.00  0.00    +0.157 C 
ATOM     12  O   UNL     1      -2.914  -0.343  24.664  0.00  0.00    -0.351 OA
ATOM     13  C   UNL     1      -2.525  -1.064  24.565  0.00  0.00    +0.170 C 
ATOM     21  C   UNL     1      -3.093  -1.637  24.390  0.00  0.00    +0.213 C 
ATOM     22  O   UNL     1      -2.948  -2.436  24.249  0.00  0.00    -0.218 OA
ATOM     23  C   UNL     1      -3.832  -1.269  24.381  0.00  0.00    +0.212 C 
ATOM     24  O   UNL     1      -4.554  -1.638  24.229  0.00  0.00    -0.218 OA
ENDROOT
BRANCH  11  10
ATOM     10  C   UNL     1      -4.313   0.103  24.597  0.00  0.00    +0.117 C 
BRANCH  10   8
ATOM      1  C   UNL     1      -5.740   3.435  25.671  0.00  0.00    +0.000 C 
ATOM      2  C   UNL     1      -5.348   2.793  25.333  0.00  0.00    +0.003 C 
ATOM      3  C   UNL     1      -5.490   2.030  25.611  0.00  0.00    +0.022 C 
ATOM      4  C   UNL     1      -5.098   1.387  25.273  0.00  0.00    +0.093 C 
ATOM      5  N   UNL     1      -4.563   1.508  24.657  0.00  0.00    -0.279 N 
ATOM      6  C   UNL     1      -4.420   2.272  24.378  0.00  0.00    +0.093 C 
ATOM      7  C   UNL     1      -4.813   2.914  24.717  0.00  0.00    +0.022 C 
ATOM      8  C   UNL     1      -4.170   0.866  24.319  0.00  0.00    +0.228 C 
ATOM      9  O   UNL     1      -3.636   0.988  23.702  0.00  0.00    -0.275 OA
ENDBRANCH  10   8
ENDBRANCH  11  10
BRANCH  13  14
ATOM     14  C   UNL     1      -1.713  -1.190  24.630  0.00  0.00    +0.147 C 
BRANCH  14  15
ATOM     15  N   UNL     1      -1.189  -0.745  24.174  0.00  0.00    -0.203 NA
ATOM     16  C   UNL     1      -0.378  -0.784  24.321  0.00  0.00    +0.241 C 
ATOM     17  O   UNL     1      -0.091  -1.268  24.925  0.00  0.00    -0.273 OA
BRANCH  16  18
ATOM     18  C   UNL     1       0.146  -0.339  23.865  0.00  0.00    +0.078 C 
ATOM     19  C   UNL     1       0.486   0.387  23.671  0.00  0.00    +0.010 C 
ATOM     20  C   UNL     1       0.715  -0.296  23.269  0.00  0.00    +0.010 C 
ENDBRANCH  16  18
ENDBRANCH  14  15
ENDBRANCH  13  14
TORSDOF 5
ENDMDL
MODEL 7
REMARK VINA RESULT:      -9.1      2.527      4.170
REMARK  Name = 
REMARK  5 active torsions:
REMARK  status: ('A' for Active; 'I' for Inactive)
REMARK    1  A    between atoms: C_8  and  C_10
REMARK    2  A    between atoms: C_10  and  C_11
REMARK    3  A    between atoms: C_13  and  C_14
REMARK    4  A    between atoms: C_14  and  N_15
REMARK    5  A    between atoms: C_16  and  C_18
REMARK                            x       y       z     vdW  Elec       q    Type
REMARK                         _______ _______ _______ _____ _____    ______ ____
ROOT
ATOM     11  C   UNL     1      -2.307   3.764  25.052  0.00  0.00    +0.157 C 
ATOM     12  O   UNL     1      -1.847   3.110  24.850  0.00  0.00    -0.351 OA
ATOM     13  C   UNL     1      -1.056   3.345  24.847  0.00  0.00    +0.170 C 
ATOM     21  C   UNL     1      -1.029   4.145  25.046  0.00  0.00    +0.213 C 
ATOM     22  O   UNL     1      -0.347   4.607  25.108  0.00  0.00    -0.218 OA
ATOM     23  C   UNL     1      -1.802   4.404  25.173  0.00  0.00    +0.212 C 
ATOM     24  O   UNL     1      -2.028   5.169  25.384  0.00  0.00    -0.218 OA
ENDROOT
BRANCH  11  10
ATOM     10  C   UNL     1      -3.129   3.775  25.120  0.00  0.00    +0.117 C 
BRANCH  10   8
ATOM      1  C   UNL     1      -6.379   1.950  25.758  0.00  0.00    +0.000 C 
ATOM      2  C   UNL     1      -5.681   2.289  25.474  0.00  0.00    +0.003 C 
ATOM      3  C   UNL     1      -5.221   2.760  25.970  0.00  0.00    +0.022 C 
ATOM      4  C   UNL     1      -4.523   3.099  25.687  0.00  0.00    +0.093 C 
ATOM      5  N   UNL     1      -4.287   2.965  24.908  0.00  0.00    -0.279 N 
ATOM      6  C   UNL     1      -4.749   2.494  24.411  0.00  0.00    +0.093 C 
ATOM      7  C   UNL     1      -5.445   2.156  24.695  0.00  0.00    +0.022 C 
ATOM      8  C   UNL     1      -3.590   3.303  24.624  0.00  0.00    +0.228 C 
ATOM      9  O   UNL     1      -3.355   3.170  23.845  0.00  0.00    -0.275 OA
ENDBRANCH  10   8
ENDBRANCH  11  10
BRANCH  13  14
ATOM     14  C   UNL     1      -0.408   2.866  24.674  0.00  0.00    +0.147 C 
BRANCH  14  15
ATOM     15  N   UNL     1      -0.524   2.081  24.447  0.00  0.00    -0.203 NA
ATOM     16  C   UNL     1       0.121   1.613  24.232  0.00  0.00    +0.241 C 
ATOM     17  O   UNL     1       0.882   1.931  24.244  0.00  0.00    -0.273 OA
BRANCH  16  18
ATOM     18  C   UNL     1       0.004   0.829  24.005  0.00  0.00    +0.078 C 
ATOM     19  C   UNL     1       0.297   0.126  23.687  0.00  0.00    +0.010 C 
ATOM     20  C   UNL     1      -0.490   0.173  23.931  0.00  0.00    +0.010 C 
ENDBRANCH  16  18
ENDBRANCH  14  15
ENDBRANCH  13  14
TORSDOF 5
ENDMDL
MODEL 8
REMARK VINA RESULT:      -8.5      2.708      3.232
REMARK  Name = 
REMARK  5 active torsions:
REMARK  status: ('A' for Active; 'I' for Inactive)
REMARK    1  A    between atoms: C_8  and  C_10
REMARK    2  A    between atoms: C_10  and  C_11
REMARK    3  A    between atoms: C_13  and  C_14
REMARK    4  A    between atoms: C_14  and  N_15
REMARK    5  A    between atoms: C_16  and  C_18
REMARK                            x       y       z     vdW  Elec       q    Type
REMARK                         _______ _______ _______ _____ _____    ______ ____
ROOT
ATOM     11  C   UNL     1      -2.386   0.984  24.739  0.00  0.00    +0.157 C 
ATOM     12  O   UNL     1      -1.617   0.800  24.504  0.00  0.00    -0.351 OA
ATOM     13  C   UNL     1      -1.179   1.500  24.489  0.00  0.00    +0.170 C 
ATOM     21  C   UNL     1      -1.679   2.116  24.715  0.00  0.00    +0.213 C 
ATOM     22  O   UNL     1      -1.471   2.912  24.776  0.00  0.00    -0.218 OA
ATOM     23  C   UNL     1      -2.424   1.797  24.869  0.00  0.00    +0.212 C 
ATOM     24  O   UNL     1      -3.091   2.219  25.112  0.00  0.00    -0.218 OA
ENDROOT
BRANCH  11  10
ATOM     10  C   UNL     1      -3.006   0.448  24.828  0.00  0.00    +0.117 C 
BRANCH  10   8
ATOM      1  C   UNL     1      -4.420  -2.904  23.798  0.00  0.00    +0.000 C 
ATOM      2  C   UNL     1      -4.029  -2.256  24.127  0.00  0.00    +0.003 C 
ATOM      3  C   UNL     1      -4.179  -1.497  23.842  0.00  0.00    +0.022 C 
ATOM      4  C   UNL     1      -3.788  -0.848  24.171  0.00  0.00    +0.093 C 
ATOM      5  N   UNL     1      -3.248  -0.960  24.784  0.00  0.00    -0.279 N 
ATOM      6  C   UNL     1      -3.098  -1.720  25.069  0.00  0.00    +0.093 C 
ATOM      7  C   UNL     1      -3.489  -2.368  24.740  0.00  0.00    +0.022 C 
ATOM      8  C   UNL     1      -2.857  -0.312  25.113  0.00  0.00    +0.228 C 
ATOM      9  O   UNL     1      -2.317  -0.424  25.726  0.00  0.00    -0.275 OA
ENDBRANCH  10   8
ENDBRANCH  11  10
BRANCH  13  14
ATOM     14  C   UNL     1      -0.384   1.570  24.284  0.00  0.00    +0.147 C 
BRANCH  14  15
ATOM     15  N   UNL     1      -0.025   0.991  23.819  0.00  0.00    -0.203 NA
ATOM     16  C   UNL     1       0.785   1.029  23.665  0.00  0.00    +0.241 C 
ATOM     17  O   UNL     1       1.236   1.645  23.978  0.00  0.00    -0.273 OA
BRANCH  16  18
ATOM     18  C   UNL     1       1.144   0.450  23.200  0.00  0.00    +0.078 C 
ATOM     19  C   UNL     1       1.801   0.172  22.786  0.00  0.00    +0.010 C 
ATOM     20  C   UNL     1       1.108  -0.274  22.807  0.00  0.00    +0.010 C 
ENDBRANCH  16  18
ENDBRANCH  14  15
ENDBRANCH  13  14
TORSDOF 5
ENDMDL
MODEL 9
REMARK VINA RESULT:      -8.4      1.825      4.178
REMARK  Name = 
REMARK  5 active torsions:
REMARK  status: ('A' for Active; 'I' for Inactive)
REMARK    1  A    between atoms: C_8  and  C_10
REMARK    2  A    between atoms: C_10  and  C_11
REMARK    3  A    between atoms: C_13  and  C_14
REMARK    4  A    between atoms: C_14  and  N_15
REMARK    5  A    between atoms: C_16  and  C_18
REMARK                            x       y       z     vdW  Elec       q    Type
REMARK                         _______ _______ _______ _____ _____    ______ ____
ROOT
ATOM     11  C   UNL     1      -2.698   0.075  24.596  0.00  0.00    +0.157 C 
ATOM     12  O   UNL     1      -3.277   0.651  24.711  0.00  0.00    -0.351 OA
ATOM     13  C   UNL     1      -4.015   0.295  24.611  0.00  0.00    +0.170 C 
ATOM     21  C   UNL     1      -3.890  -0.502  24.433  0.00  0.00    +0.213 C 
ATOM     22  O   UNL     1      -4.477  -1.064  24.290  0.00  0.00    -0.218 OA
ATOM     23  C   UNL     1      -3.077  -0.637  24.424  0.00  0.00    +0.212 C 
ATOM     24  O   UNL     1      -2.707  -1.359  24.270  0.00  0.00    -0.218 OA
ENDROOT
BRANCH  11  10
ATOM     10  C   UNL     1      -1.882   0.191  24.644  0.00  0.00    +0.117 C 
BRANCH  10   8
ATOM      1  C   UNL     1       0.432   2.759  26.175  0.00  0.00    +0.000 C 
ATOM      2  C   UNL     1      -0.063   2.287  25.712  0.00  0.00    +0.003 C 
ATOM      3  C   UNL     1      -0.400   1.606  26.032  0.00  0.00    +0.022 C 
ATOM      4  C   UNL     1      -0.895   1.134  25.569  0.00  0.00    +0.093 C 
ATOM      5  N   UNL     1      -1.050   1.344  24.787  0.00  0.00    -0.279 N 
ATOM      6  C   UNL     1      -0.712   2.026  24.467  0.00  0.00    +0.093 C 
ATOM      7  C   UNL     1      -0.218   2.497  24.930  0.00  0.00    +0.022 C 
ATOM      8  C   UNL     1      -1.544   0.873  24.323  0.00  0.00    +0.228 C 
ATOM      9  O   UNL     1      -1.700   1.083  23.541  0.00  0.00    -0.275 OA
ENDBRANCH  10   8
ENDBRANCH  11  10
BRANCH  13  14
ATOM     14  C   UNL     1      -4.747   0.668  24.676  0.00  0.00    +0.147 C 
BRANCH  14  15
ATOM     15  N   UNL     1      -4.807   1.390  25.071  0.00  0.00    -0.203 NA
ATOM     16  C   UNL     1      -5.517   1.812  25.054  0.00  0.00    +0.241 C 
ATOM     17  O   UNL     1      -6.165   1.511  24.642  0.00  0.00    -0.273 OA
BRANCH  16  18
ATOM     18  C   UNL     1      -5.577   2.534  25.449  0.00  0.00    +0.078 C 
ATOM     19  C   UNL     1      -5.724   2.960  26.140  0.00  0.00    +0.010 C 
ATOM     20  C   UNL     1      -5.534   3.357  25.442  0.00  0.00    +0.010 C 
ENDBRANCH  16  18
ENDBRANCH  14  15
ENDBRANCH  13  14
TORSDOF 5
ENDMDL
MODEL 10
REMARK VINA RESULT:      -8.2      2.025      5.124
REMARK  Name = 
REMARK  5 active torsions:
REMARK  status: ('A' for Active; 'I' for Inactive)
REMARK    1  A    between atoms: C_8  and  C_10
REMARK    2  A    between atoms: C_10  and  C_11
REMARK    3  A    between atoms: C_13  and  C_14
REMARK    4  A    between atoms: C_14  and  N_15
REMARK    5  A    between atoms: C_16  and  C_18
REMARK                            x       y       z     vdW  Elec       q    Type
REMARK                         _______ _______ _______ _____ _____    ______ ____
ROOT
ATOM     11  C   UNL     1      -1.063   0.612  24.694  0.00  0.00    +0.157 C 
ATOM     12  O   UNL     1      -1.880   0.692  24.767  0.00  0.00    -0.351 OA
ATOM     13  C   UNL     1      -2.219  -0.055  24.673  0.00  0.00    +0.170 C 
ATOM     21  C   UNL     1      -1.610  -0.595  24.542  0.00  0.00    +0.213 C 
ATOM     22  O   UNL     1      -1.699  -1.406  24.418  0.00  0.00    -0.218 OA
ATOM     23  C   UNL     1      -0.895  -0.183  24.555  0.00  0.00    +0.212 C 
ATOM     24  O   UNL     1      -0.145  -0.510  24.448  0.00  0.00    -0.218 OA
ENDROOT
BRANCH  11  10
ATOM     10  C   UNL     1      -0.510   1.222  24.751  0.00  0.00    +0.117 C 
BRANCH  10   8
ATOM      1  C   UNL     1      -0.711   4.997  24.677  0.00  0.00    +0.000 C 
ATOM      2  C   UNL     1      -0.674   4.190  24.848  0.00  0.00    +0.003 C 
ATOM      3  C   UNL     1      -0.619   3.640  24.236  0.00  0.00    +0.022 C 
ATOM      4  C   UNL     1      -0.583   2.834  24.408  0.00  0.00    +0.093 C 
ATOM      5  N   UNL     1      -0.602   2.578  25.192  0.00  0.00    -0.279 N 
ATOM      6  C   UNL     1      -0.657   3.128  25.805  0.00  0.00    +0.093 C 
ATOM      7  C   UNL     1      -0.693   3.934  25.632  0.00  0.00    +0.022 C 
ATOM      8  C   UNL     1      -0.565   1.772  25.364  0.00  0.00    +0.228 C 
ATOM      9  O   UNL     1      -0.584   1.517  26.148  0.00  0.00    -0.275 OA
ENDBRANCH  10   8
ENDBRANCH  11  10
BRANCH  13  14
ATOM     14  C   UNL     1      -3.024  -0.230  24.704  0.00  0.00    +0.147 C 
BRANCH  14  15
ATOM     15  N   UNL     1      -3.569   0.365  24.875  0.00  0.00    -0.203 NA
ATOM     16  C   UNL     1      -4.377   0.225  24.780  0.00  0.00    +0.241 C 
ATOM     17  O   UNL     1      -4.639  -0.510  24.513  0.00  0.00    -0.273 OA
BRANCH  16  18
ATOM     18  C   UNL     1      -4.922   0.821  24.951  0.00  0.00    +0.078 C 
ATOM     19  C   UNL     1      -5.111   1.528  25.330  0.00  0.00    +0.010 C 
ATOM     20  C   UNL     1      -5.677   1.143  24.870  0.00  0.00    +0.010 C 
ENDBRANCH  16  18
ENDBRANCH  14  15
ENDBRANCH  13  14
TORSDOF 5
ENDMDL
