MODEL 1
REMARK VINA RESULT:     -10.6      0.000      0.000
REMARK  Name = 
REMARK  3 active torsions:
REMARK  status: ('A' for Active; 'I' for Inactive)
REMARK    1  A    between atoms: C_2  and  C_4
REMARK    2  A    between atoms: C_7  and  C_9
REMARK    3  A    between atoms: N_14  and  C_15
REMARK                            x       y       z     vdW  Elec       q    Type
REMARK                         _______ _______ _______ _____ _____    ______ ____
ROOT
ATOM      9  C   UNL     1      -3.791   1.520  24.596  0.00  0.00    +0.140 C 
ATOM     10  C   UNL     1      -4.199   2.234  24.659  0.00  0.00    +0.060 C 
ATOM     11  C   UNL     1      -4.979   2.063  24.867  0.00  0.00    +0.170 C 
ATOM     12  O   UNL     1      -5.580   2.615  24.988  0.00  0.00    -0.222 OA
ATOM     13  C   UNL     1      -5.052   1.244  24.933  0.00  0.00    +0.106 C 
ATOM     14  N   UNL     1      -4.318   0.908  24.766  0.00  0.00    -0.265 NA
ENDROOT
BRANCH  14  15
ATOM     15  C   UNL     1      -4.141   0.102  24.767  0.00  0.00    +0.061 C 
ATOM     16  C   UNL     1      -4.193  -0.331  24.067  0.00  0.00    +0.038 C 
ATOM     17  C   UNL     1      -4.016  -1.138  24.068  0.00  0.00    +0.095 C 
ATOM     18  N   UNL     1      -3.786  -1.509  24.768  0.00  0.00    -0.279 N 
ATOM     19  C   UNL     1      -3.734  -1.075  25.467  0.00  0.00    +0.095 C 
ATOM     20  C   UNL     1      -3.912  -0.269  25.467  0.00  0.00    +0.038 C 
ATOM     21  C   UNL     1      -3.609  -2.315  24.768  0.00  0.00    +0.226 C 
ATOM     22  C   UNL     1      -3.661  -2.749  24.068  0.00  0.00    +0.095 C 
ATOM     23  O   UNL     1      -3.380  -2.687  25.468  0.00  0.00    -0.275 OA
ENDBRANCH  14  15
BRANCH   9   7
ATOM      4  C   UNL     1      -1.666   1.347  24.488  0.00  0.00    +0.180 A 
ATOM      5  N   UNL     1      -1.875   1.246  23.697  0.00  0.00    -0.061 NA
ATOM      6  O   UNL     1      -2.695   1.298  23.641  0.00  0.00    -0.336 OA
ATOM      7  C   UNL     1      -2.995   1.432  24.399  0.00  0.00    +0.251 A 
ATOM      8  N   UNL     1      -2.358   1.462  24.921  0.00  0.00    -0.194 NA
BRANCH   4   2
ATOM      1  C   UNL     1      -0.605   1.991  25.198  0.00  0.00    +0.008 C 
ATOM      2  C   UNL     1      -0.899   1.335  24.793  0.00  0.00    +0.062 C 
ATOM      3  C   UNL     1      -0.425   0.666  24.693  0.00  0.00    +0.008 C 
ENDBRANCH   4   2
ENDBRANCH   9   7
TORSDOF 3
ENDMDL
MODEL 2
REMARK VINA RESULT:     -10.5      0.947      3.324
REMARK  Name = 
REMARK  3 active torsions:
REMARK  status: ('A' for Active; 'I' for Inactive)
REMARK    1  A    between atoms: C_2  and  C_4
REMARK    2  A    between atoms: C_7  and  C_9
REMARK    3  A    between atoms: N_14  and  C_15
REMARK                            x       y       z     vdW  Elec       q    Type
REMARK                         _______ _______ _______ _____ _____    ______ ____
ROOT
ATOM      9  C   UNL     1      -4.387   0.796  24.888  0.00  0.00    +0.140 C 
ATOM     10  C   UNL     1      -5.155   1.082  24.985  0.00  0.00    +0.060 C 
ATOM     11  C   UNL     1      -5.146   1.893  24.832  0.00  0.00    +0.170 C 
ATOM     12  O   UNL     1      -5.796   2.399  24.865  0.00  0.00    -0.222 OA
ATOM     13  C   UNL     1      -4.373   2.108  24.642  0.00  0.00    +0.106 C 
ATOM     14  N   UNL     1      -3.904   1.431  24.676  0.00  0.00    -0.265 NA
ENDROOT
BRANCH  14  15
ATOM     15  C   UNL     1      -3.093   1.393  24.525  0.00  0.00    +0.061 C 
ATOM     16  C   UNL     1      -2.555   1.495  25.142  0.00  0.00    +0.038 C 
ATOM     17  C   UNL     1      -1.744   1.457  24.991  0.00  0.00    +0.095 C 
ATOM     18  N   UNL     1      -1.473   1.318  24.224  0.00  0.00    -0.279 N 
ATOM     19  C   UNL     1      -2.011   1.216  23.609  0.00  0.00    +0.095 C 
ATOM     20  C   UNL     1      -2.822   1.254  23.759  0.00  0.00    +0.038 C 
ATOM     21  C   UNL     1      -0.662   1.280  24.075  0.00  0.00    +0.226 C 
ATOM     22  C   UNL     1      -0.123   1.382  24.691  0.00  0.00    +0.095 C 
ATOM     23  O   UNL     1      -0.390   1.140  23.308  0.00  0.00    -0.275 OA
ENDBRANCH  14  15
BRANCH   9   7
ATOM      4  C   UNL     1      -3.869  -1.270  24.747  0.00  0.00    +0.180 A 
ATOM      5  N   UNL     1      -3.670  -1.108  25.531  0.00  0.00    -0.061 NA
ATOM      6  O   UNL     1      -3.840  -0.316  25.679  0.00  0.00    -0.336 OA
ATOM      7  C   UNL     1      -4.144   0.014  24.986  0.00  0.00    +0.251 A 
ATOM      8  N   UNL     1      -4.161  -0.576  24.411  0.00  0.00    -0.194 NA
BRANCH   4   2
ATOM      1  C   UNL     1      -4.311  -2.208  23.763  0.00  0.00    +0.008 C 
ATOM      2  C   UNL     1      -3.788  -1.997  24.365  0.00  0.00    +0.062 C 
ATOM      3  C   UNL     1      -3.184  -2.515  24.587  0.00  0.00    +0.008 C 
ENDBRANCH   4   2
ENDBRANCH   9   7
TORSDOF 3
ENDMDL
MODEL 3
REMARK VINA RESULT:     -10.1      1.425      4.163
REMARK  Name = 
REMARK  3 active torsions:
REMARK  status: ('A' for Active; 'I' for Inactive)
REMARK    1  A    between atoms: C_2  and  C_4
REMARK    2  A    between atoms: C_7  and  C_9
REMARK    3  A    between atoms: N_14  and  C_15
REMARK                            x       y       z     vdW  Elec       q    Type
REMARK                         _______ _______ _______ _____ _____    ______ ____
ROOT
ATOM      9  C   UNL     1      -1.262   0.069  24.348  0.00  0.00    +0.140 C 
ATOM     10  C   UNL     1      -0.511  -0.224  24.177  0.00  0.00    +0.060 C 
ATOM     11  C   UNL     1      -0.067   0.389  23.848  0.00  0.00    +0.170 C 
ATOM     12  O   UNL     1       0.717   0.339  23.596  0.00  0.00    -0.222 OA
ATOM     13  C   UNL     1      -0.545   1.061  23.815  0.00  0.00    +0.106 C 
ATOM     14  N   UNL     1      -1.284   0.864  24.124  0.00  0.00    -0.265 NA
ENDROOT
BRANCH  14  15
ATOM     15  C   UNL     1      -1.931   1.370  24.196  0.00  0.00    +0.061 C 
ATOM     16  C   UNL     1      -2.058   1.776  24.904  0.00  0.00    +0.038 C 
ATOM     17  C   UNL     1      -2.706   2.283  24.977  0.00  0.00    +0.095 C 
ATOM     18  N   UNL     1      -3.225   2.383  24.344  0.00  0.00    -0.279 N 
ATOM     19  C   UNL     1      -3.098   1.977  23.638  0.00  0.00    +0.095 C 
ATOM     20  C   UNL     1      -2.450   1.470  23.564  0.00  0.00    +0.038 C 
ATOM     21  C   UNL     1      -3.872   2.889  24.418  0.00  0.00    +0.226 C 
ATOM     22  C   UNL     1      -4.000   3.296  25.125  0.00  0.00    +0.095 C 
ATOM     23  O   UNL     1      -4.392   2.990  23.785  0.00  0.00    -0.275 OA
ENDBRANCH  14  15
BRANCH   9   7
ATOM      4  C   UNL     1      -2.926  -1.177  24.833  0.00  0.00    +0.180 A 
ATOM      5  N   UNL     1      -2.757  -0.842  25.568  0.00  0.00    -0.061 NA
ATOM      6  O   UNL     1      -2.114  -0.335  25.476  0.00  0.00    -0.336 OA
ATOM      7  C   UNL     1      -1.885  -0.356  24.683  0.00  0.00    +0.251 A 
ATOM      8  N   UNL     1      -2.387  -0.876  24.287  0.00  0.00    -0.194 NA
BRANCH   4   2
ATOM      1  C   UNL     1      -4.200  -1.477  24.258  0.00  0.00    +0.008 C 
ATOM      2  C   UNL     1      -3.529  -1.717  24.673  0.00  0.00    +0.062 C 
ATOM      3  C   UNL     1      -3.460  -2.500  24.929  0.00  0.00    +0.008 C 
ENDBRANCH   4   2
ENDBRANCH   9   7
TORSDOF 3
ENDMDL
MODEL 4
REMARK VINA RESULT:     -10.1      2.091      3.628
REMARK  Name = 
REMARK  3 active torsions:
REMARK  status: ('A' for Active; 'I' for Inactive)
REMARK    1  A    between atoms: C_2  and  C_4
REMARK    2  A    between atoms: C_7  and  C_9
REMARK    3  A    between atoms: N_14  and  C_15
REMARK                            x       y       z     vdW  Elec       q    Type
REMARK                         _______ _______ _______ _____ _____    ______ ____
ROOT
ATOM      9  C   UNL     1      -2.367   3.429  24.804  0.00  0.00    +0.140 C 
ATOM     10  C   UNL     1      -2.352   4.240  24.950  0.00  0.00    +0.060 C 
ATOM     11  C   UNL     1      -1.579   4.448  25.152  0.00  0.00    +0.170 C 
ATOM     12  O   UNL     1      -1.315   5.206  25.343  0.00  0.00    -0.222 OA
ATOM     13  C   UNL     1      -1.118   3.765  25.131  0.00  0.00    +0.106 C 
ATOM     14  N   UNL     1      -1.603   3.135  24.916  0.00  0.00    -0.265 NA
ENDROOT
BRANCH  14  15
ATOM     15  C   UNL     1      -1.370   2.349  24.828  0.00  0.00    +0.061 C 
ATOM     16  C   UNL     1      -1.385   1.840  25.478  0.00  0.00    +0.038 C 
ATOM     17  C   UNL     1      -1.151   1.053  25.391  0.00  0.00    +0.095 C 
ATOM     18  N   UNL     1      -0.902   0.776  24.654  0.00  0.00    -0.279 N 
ATOM     19  C   UNL     1      -0.888   1.284  24.005  0.00  0.00    +0.095 C 
ATOM     20  C   UNL     1      -1.122   2.071  24.093  0.00  0.00    +0.038 C 
ATOM     21  C   UNL     1      -0.669  -0.011  24.567  0.00  0.00    +0.226 C 
ATOM     22  C   UNL     1      -0.683  -0.520  25.216  0.00  0.00    +0.095 C 
ATOM     23  O   UNL     1      -0.420  -0.289  23.831  0.00  0.00    -0.275 OA
ENDBRANCH  14  15
BRANCH   9   7
ATOM      4  C   UNL     1      -4.159   2.280  24.638  0.00  0.00    +0.180 A 
ATOM      5  N   UNL     1      -3.931   2.336  23.848  0.00  0.00    -0.061 NA
ATOM      6  O   UNL     1      -3.233   2.772  23.813  0.00  0.00    -0.336 OA
ATOM      7  C   UNL     1      -3.028   2.987  24.584  0.00  0.00    +0.251 A 
ATOM      8  N   UNL     1      -3.600   2.683  25.093  0.00  0.00    -0.194 NA
BRANCH   4   2
ATOM      1  C   UNL     1      -5.484   2.324  25.172  0.00  0.00    +0.008 C 
ATOM      2  C   UNL     1      -4.827   1.890  24.925  0.00  0.00    +0.062 C 
ATOM      3  C   UNL     1      -4.839   1.066  24.964  0.00  0.00    +0.008 C 
ENDBRANCH   4   2
ENDBRANCH   9   7
TORSDOF 3
ENDMDL
MODEL 5
REMARK VINA RESULT:      -9.9      1.186      3.816
REMARK  Name = 
REMARK  3 active torsions:
REMARK  status: ('A' for Active; 'I' for Inactive)
REMARK    1  A    between atoms: C_2  and  C_4
REMARK    2  A    between atoms: C_7  and  C_9
REMARK    3  A    between atoms: N_14  and  C_15
REMARK                            x       y       z     vdW  Elec       q    Type
REMARK                         _______ _______ _______ _____ _____    ______ ____
ROOT
ATOM      9  C   UNL     1      -3.234  -0.398  24.675  0.00  0.00    +0.140 C 
ATOM     10  C   UNL     1      -3.624  -1.123  24.713  0.00  0.00    +0.060 C 
ATOM     11  C   UNL     1      -3.067  -1.702  24.904  0.00  0.00    +0.170 C 
ATOM     12  O   UNL     1      -3.218  -2.508  24.998  0.00  0.00    -0.222 OA
ATOM     13  C   UNL     1      -2.334  -1.334  24.984  0.00  0.00    +0.106 C 
ATOM     14  N   UNL     1      -2.435  -0.528  24.843  0.00  0.00    -0.265 NA
ENDROOT
BRANCH  14  15
ATOM     15  C   UNL     1      -1.845   0.048  24.865  0.00  0.00    +0.061 C 
ATOM     16  C   UNL     1      -1.671   0.431  25.575  0.00  0.00    +0.038 C 
ATOM     17  C   UNL     1      -1.081   1.007  25.598  0.00  0.00    +0.095 C 
ATOM     18  N   UNL     1      -0.665   1.200  24.911  0.00  0.00    -0.279 N 
ATOM     19  C   UNL     1      -0.840   0.817  24.202  0.00  0.00    +0.095 C 
ATOM     20  C   UNL     1      -1.430   0.240  24.180  0.00  0.00    +0.038 C 
ATOM     21  C   UNL     1      -0.075   1.776  24.935  0.00  0.00    +0.226 C 
ATOM     22  C   UNL     1       0.100   2.160  25.644  0.00  0.00    +0.095 C 
ATOM     23  O   UNL     1       0.341   1.969  24.249  0.00  0.00    -0.275 OA
ENDBRANCH  14  15
BRANCH   9   7
ATOM      4  C   UNL     1      -4.249   1.479  24.618  0.00  0.00    +0.180 A 
ATOM      5  N   UNL     1      -3.970   1.424  23.843  0.00  0.00    -0.061 NA
ATOM      6  O   UNL     1      -3.557   0.715  23.770  0.00  0.00    -0.336 OA
ATOM      7  C   UNL     1      -3.579   0.330  24.501  0.00  0.00    +0.251 A 
ATOM      8  N   UNL     1      -4.007   0.803  25.024  0.00  0.00    -0.194 NA
BRANCH   4   2
ATOM      1  C   UNL     1      -4.358   2.852  24.999  0.00  0.00    +0.008 C 
ATOM      2  C   UNL     1      -4.691   2.100  24.931  0.00  0.00    +0.062 C 
ATOM      3  C   UNL     1      -5.469   1.971  25.177  0.00  0.00    +0.008 C 
ENDBRANCH   4   2
ENDBRANCH   9   7
TORSDOF 3
ENDMDL
MODEL 6
REMARK VINA RESULT:      -9.9      1.109      3.238
REMARK  Name = 
REMARK  3 active torsions:
REMARK  status: ('A' for Active; 'I' for Inactive)
REMARK    1  A    between atoms: C_2  and  C_4
REMARK    2  A    between atoms: C_7  and  C_9
REMARK    3  A    between atoms: N_14  and  C_15
REMARK                            x       y       z     vdW  Elec       q    Type
REMARK                         _______ _______ _______ _____ _____    ______ ____
ROOT
ATOM      9  C   UNL     1      -2.933  -1.168  24.660  0.00  0.00    +0.140 C 
ATOM     10  C   UNL     1      -2.931  -1.982  24.527  0.00  0.00    +0.060 C 
ATOM     11  C   UNL     1      -3.681  -2.198  24.260  0.00  0.00    +0.170 C 
ATOM     12  O   UNL     1      -3.924  -2.961  24.061  0.00  0.00    -0.222 OA
ATOM     13  C   UNL     1      -4.146  -1.518  24.228  0.00  0.00    +0.106 C 
ATOM     14  N   UNL     1      -3.685  -0.881  24.475  0.00  0.00    -0.265 NA
ENDROOT
BRANCH  14  15
ATOM     15  C   UNL     1      -3.930  -0.095  24.528  0.00  0.00    +0.061 C 
ATOM     16  C   UNL     1      -4.307   0.173  25.212  0.00  0.00    +0.038 C 
ATOM     17  C   UNL     1      -4.552   0.959  25.266  0.00  0.00    +0.095 C 
ATOM     18  N   UNL     1      -4.420   1.477  24.637  0.00  0.00    -0.279 N 
ATOM     19  C   UNL     1      -4.044   1.208  23.954  0.00  0.00    +0.095 C 
ATOM     20  C   UNL     1      -3.799   0.422  23.900  0.00  0.00    +0.038 C 
ATOM     21  C   UNL     1      -4.665   2.262  24.691  0.00  0.00    +0.226 C 
ATOM     22  C   UNL     1      -5.042   2.531  25.375  0.00  0.00    +0.095 C 
ATOM     23  O   UNL     1      -4.534   2.780  24.063  0.00  0.00    -0.275 OA
ENDBRANCH  14  15
BRANCH   9   7
ATOM      4  C   UNL     1      -1.195   0.035  24.959  0.00  0.00    +0.180 A 
ATOM      5  N   UNL     1      -1.440  -0.089  25.737  0.00  0.00    -0.061 NA
ATOM      6  O   UNL     1      -2.120  -0.554  25.720  0.00  0.00    -0.336 OA
ATOM      7  C   UNL     1      -2.296  -0.719  24.930  0.00  0.00    +0.251 A 
ATOM      8  N   UNL     1      -1.725  -0.355  24.461  0.00  0.00    -0.194 NA
BRANCH   4   2
ATOM      1  C   UNL     1      -0.035   0.176  24.136  0.00  0.00    +0.008 C 
ATOM      2  C   UNL     1      -0.537   0.471  24.721  0.00  0.00    +0.062 C 
ATOM      3  C   UNL     1      -0.380   1.204  25.067  0.00  0.00    +0.008 C 
ENDBRANCH   4   2
ENDBRANCH   9   7
TORSDOF 3
ENDMDL
MODEL 7
REMARK VINA RESULT:      -9.9      2.155      2.915
REMARK  Name = 
REMARK  3 active torsions:
REMARK  status: ('A' for Active; 'I' for Inactive)
REMARK    1  A    between atoms: C_2  and  C_4
REMARK    2  A    between atoms: C_7  and  C_9
REMARK    3  A    between atoms: N_14  and  C_15
REMARK                            x       y       z     vdW  Elec       q    Type
REMARK                         _______ _______ _______ _____ _____    ______ ____
ROOT
ATOM      9  C   UNL     1      -3.537   2.724  24.959  0.00  0.00    +0.140 C 
ATOM     10  C   UNL     1      -4.335   2.931  24.979  0.00  0.00    +0.060 C 
ATOM     11  C   UNL     1      -4.766   2.311  24.647  0.00  0.00    +0.170 C 
ATOM     12  O   UNL     1      -5.586   2.285  24.556  0.00  0.00    -0.222 OA
ATOM     13  C   UNL     1      -4.235   1.721  24.423  0.00  0.00    +0.106 C 
ATOM     14  N   UNL     1      -3.475   1.976  24.615  0.00  0.00    -0.265 NA
ENDROOT
BRANCH  14  15
ATOM     15  C   UNL     1      -2.775   1.558  24.488  0.00  0.00    +0.061 C 
ATOM     16  C   UNL     1      -2.489   1.047  25.070  0.00  0.00    +0.038 C 
ATOM     17  C   UNL     1      -1.789   0.629  24.943  0.00  0.00    +0.095 C 
ATOM     18  N   UNL     1      -1.376   0.722  24.234  0.00  0.00    -0.279 N 
ATOM     19  C   UNL     1      -1.662   1.232  23.653  0.00  0.00    +0.095 C 
ATOM     20  C   UNL     1      -2.362   1.650  23.780  0.00  0.00    +0.038 C 
ATOM     21  C   UNL     1      -0.676   0.303  24.108  0.00  0.00    +0.226 C 
ATOM     22  C   UNL     1      -0.389  -0.208  24.689  0.00  0.00    +0.095 C 
ATOM     23  O   UNL     1      -0.262   0.395  23.400  0.00  0.00    -0.275 OA
ENDBRANCH  14  15
BRANCH   9   7
ATOM      4  C   UNL     1      -1.939   4.097  25.304  0.00  0.00    +0.180 A 
ATOM      5  N   UNL     1      -1.949   3.682  26.016  0.00  0.00    -0.061 NA
ATOM      6  O   UNL     1      -2.548   3.117  25.974  0.00  0.00    -0.336 OA
ATOM      7  C   UNL     1      -2.909   3.184  25.235  0.00  0.00    +0.251 A 
ATOM      8  N   UNL     1      -2.533   3.789  24.822  0.00  0.00    -0.194 NA
BRANCH   4   2
ATOM      1  C   UNL     1      -0.644   4.549  24.901  0.00  0.00    +0.008 C 
ATOM      2  C   UNL     1      -1.426   4.713  25.109  0.00  0.00    +0.062 C 
ATOM      3  C   UNL     1      -1.693   5.494  25.121  0.00  0.00    +0.008 C 
ENDBRANCH   4   2
ENDBRANCH   9   7
TORSDOF 3
ENDMDL
MODEL 8
REMARK VINA RESULT:      -9.8      1.209      2.808
REMARK  Name = 
REMARK  3 active torsions:
REMARK  status: ('A' for Active; 'I' for Inactive)
REMARK    1  A    between atoms: C_2  and  C_4
REMARK    2  A    between atoms: C_7  and  C_9
REMARK    3  A    between atoms: N_14  and  C_15
REMARK                            x       y       z     vdW  Elec       q    Type
REMARK                         _______ _______ _______ _____ _____    ______ ____
ROOT
ATOM      9  C   UNL     1      -2.661   2.142  24.342  0.00  0.00    +0.140 C 
ATOM     10  C   UNL     1      -2.083   2.723  24.258  0.00  0.00    +0.060 C 
ATOM     11  C   UNL     1      -1.350   2.348  24.207  0.00  0.00    +0.170 C 
ATOM     12  O   UNL     1      -0.619   2.721  24.120  0.00  0.00    -0.222 OA
ATOM     13  C   UNL     1      -1.476   1.535  24.259  0.00  0.00    +0.106 C 
ATOM     14  N   UNL     1      -2.285   1.406  24.342  0.00  0.00    -0.265 NA
ENDROOT
BRANCH  14  15
ATOM     15  C   UNL     1      -2.657   0.673  24.413  0.00  0.00    +0.061 C 
ATOM     16  C   UNL     1      -3.011   0.325  23.754  0.00  0.00    +0.038 C 
ATOM     17  C   UNL     1      -3.383  -0.408  23.824  0.00  0.00    +0.095 C 
ATOM     18  N   UNL     1      -3.400  -0.794  24.554  0.00  0.00    -0.279 N 
ATOM     19  C   UNL     1      -3.046  -0.446  25.212  0.00  0.00    +0.095 C 
ATOM     20  C   UNL     1      -2.675   0.288  25.142  0.00  0.00    +0.038 C 
ATOM     21  C   UNL     1      -3.772  -1.527  24.624  0.00  0.00    +0.226 C 
ATOM     22  C   UNL     1      -4.126  -1.875  23.964  0.00  0.00    +0.095 C 
ATOM     23  O   UNL     1      -3.790  -1.912  25.353  0.00  0.00    -0.275 OA
ENDBRANCH  14  15
BRANCH   9   7
ATOM      4  C   UNL     1      -4.678   2.526  24.925  0.00  0.00    +0.180 A 
ATOM      5  N   UNL     1      -4.766   2.411  24.113  0.00  0.00    -0.061 NA
ATOM      6  O   UNL     1      -4.022   2.253  23.796  0.00  0.00    -0.336 OA
ATOM      7  C   UNL     1      -3.473   2.271  24.412  0.00  0.00    +0.251 A 
ATOM      8  N   UNL     1      -3.879   2.440  25.109  0.00  0.00    -0.194 NA
BRANCH   4   2
ATOM      1  C   UNL     1      -5.383   3.469  25.736  0.00  0.00    +0.008 C 
ATOM      2  C   UNL     1      -5.283   2.699  25.458  0.00  0.00    +0.062 C 
ATOM      3  C   UNL     1      -5.790   2.100  25.715  0.00  0.00    +0.008 C 
ENDBRANCH   4   2
ENDBRANCH   9   7
TORSDOF 3
ENDMDL
