MODEL 1
REMARK VINA RESULT:      -7.6      0.000      0.000
REMARK  Name = 
REMARK  8 active torsions:
REMARK  status: ('A' for Active; 'I' for Inactive)
REMARK    1  A    between atoms: O_2  and  C_3
REMARK    2  A    between atoms: C_5  and  O_6
REMARK    3  A    between atoms: C_9  and  N_10
REMARK    4  A    between atoms: C_11  and  O_13
REMARK    5  A    between atoms: O_13  and  C_14
REMARK    6  A    between atoms: C_18  and  N_22
REMARK    7  A    between atoms: C_23  and  C_25
REMARK    8  A    between atoms: C_28  and  N_31
REMARK                            x       y       z     vdW  Elec       q    Type
REMARK                         _______ _______ _______ _____ _____    ______ ____
ROOT
ATOM     14  C   UNL     1      -0.923   0.992  23.732  0.00  0.00    +0.229 C 
ATOM     15  C   UNL     1      -0.536   1.463  24.287  0.00  0.00    +0.188 C 
ATOM     16  O   UNL     1       0.269   1.290  24.250  0.00  0.00    -0.348 OA
ATOM     17  C   UNL     1       0.380   0.713  23.673  0.00  0.00    +0.168 C 
ATOM     18  C   UNL     1       0.946   0.248  23.292  0.00  0.00    +0.155 C 
ATOM     19  C   UNL     1       0.559  -0.223  22.737  0.00  0.00    +0.166 C 
ATOM     20  O   UNL     1      -0.246  -0.050  22.774  0.00  0.00    -0.348 OA
ATOM     21  C   UNL     1      -0.357   0.528  23.352  0.00  0.00    +0.186 C 
ENDROOT
BRANCH  18  22
ATOM     22  N   UNL     1       1.758   0.255  23.441  0.00  0.00    -0.198 NA
ATOM     23  C   UNL     1       2.291   0.114  22.828  0.00  0.00    +0.265 C 
ATOM     24  O   UNL     1       2.014  -0.033  22.065  0.00  0.00    -0.268 OA
BRANCH  23  25
ATOM     25  C   UNL     1       3.103   0.121  22.977  0.00  0.00    +0.055 A 
ATOM     26  C   UNL     1       3.550   0.790  22.797  0.00  0.00    +0.006 A 
ATOM     27  C   UNL     1       4.362   0.797  22.945  0.00  0.00    +0.015 A 
ATOM     28  C   UNL     1       4.726   0.133  23.276  0.00  0.00    +0.048 A 
ATOM     29  C   UNL     1       4.278  -0.535  23.456  0.00  0.00    +0.015 A 
ATOM     30  C   UNL     1       3.467  -0.542  23.307  0.00  0.00    +0.006 A 
BRANCH  28  31
ATOM     31  N   UNL     1       5.537   0.140  23.425  0.00  0.00    -0.304 N 
ATOM     32  C   UNL     1       6.059  -0.204  22.884  0.00  0.00    +0.112 C 
ATOM     33  C   UNL     1       5.827   0.489  24.113  0.00  0.00    +0.112 C 
ENDBRANCH  28  31
ENDBRANCH  23  25
ENDBRANCH  18  22
BRANCH  14  13
ATOM     13  O   UNL     1      -1.735   0.985  23.583  0.00  0.00    -0.432 OA
BRANCH  13  11
ATOM     10  N   UNL     1      -2.836   1.859  23.839  0.00  0.00    -0.142 NA
ATOM     11  C   UNL     1      -2.255   1.342  24.114  0.00  0.00    +0.425 C 
ATOM     12  O   UNL     1      -2.194   1.182  24.922  0.00  0.00    -0.224 OA
BRANCH  10   9
ATOM      3  C   UNL     1      -4.558   2.176  25.143  0.00  0.00    +0.143 A 
ATOM      4  C   UNL     1      -4.396   2.932  25.434  0.00  0.00    +0.074 A 
ATOM      5  C   UNL     1      -3.715   3.329  25.193  0.00  0.00    +0.143 A 
ATOM      8  C   UNL     1      -3.195   2.971  24.661  0.00  0.00    +0.054 A 
ATOM      9  C   UNL     1      -3.356   2.216  24.371  0.00  0.00    +0.083 A 
ATOM     34  C   UNL     1      -4.038   1.819  24.612  0.00  0.00    +0.054 A 
BRANCH   3   2
ATOM      1  C   UNL     1      -5.965   1.955  25.035  0.00  0.00    +0.252 C 
ATOM      2  O   UNL     1      -5.239   1.779  25.385  0.00  0.00    -0.471 OA
ENDBRANCH   3   2
BRANCH   5   6
ATOM      6  O   UNL     1      -3.553   4.084  25.483  0.00  0.00    -0.471 OA
ATOM      7  C   UNL     1      -3.150   4.174  26.197  0.00  0.00    +0.252 C 
ENDBRANCH   5   6
ENDBRANCH  10   9
ENDBRANCH  13  11
ENDBRANCH  14  13
TORSDOF 8
ENDMDL
MODEL 2
REMARK VINA RESULT:      -4.8     14.907     16.987
REMARK  Name = 
REMARK  8 active torsions:
REMARK  status: ('A' for Active; 'I' for Inactive)
REMARK    1  A    between atoms: O_2  and  C_3
REMARK    2  A    between atoms: C_5  and  O_6
REMARK    3  A    between atoms: C_9  and  N_10
REMARK    4  A    between atoms: C_11  and  O_13
REMARK    5  A    between atoms: O_13  and  C_14
REMARK    6  A    between atoms: C_18  and  N_22
REMARK    7  A    between atoms: C_23  and  C_25
REMARK    8  A    between atoms: C_28  and  N_31
REMARK                            x       y       z     vdW  Elec       q    Type
REMARK                         _______ _______ _______ _____ _____    ______ ____
ROOT
ATOM     14  C   UNL     1      -6.029 -10.391  13.362  0.00  0.00    +0.229 C 
ATOM     15  C   UNL     1      -5.307 -10.661  13.657  0.00  0.00    +0.188 C 
ATOM     16  O   UNL     1      -5.380 -10.740  14.474  0.00  0.00    -0.348 OA
ATOM     17  C   UNL     1      -6.145 -10.519  14.685  0.00  0.00    +0.168 C 
ATOM     18  C   UNL     1      -6.665 -10.431  15.320  0.00  0.00    +0.155 C 
ATOM     19  C   UNL     1      -7.386 -10.162  15.026  0.00  0.00    +0.166 C 
ATOM     20  O   UNL     1      -7.314 -10.083  14.208  0.00  0.00    -0.348 OA
ATOM     21  C   UNL     1      -6.547 -10.304  13.997  0.00  0.00    +0.186 C 
ENDROOT
BRANCH  18  22
ATOM     22  N   UNL     1      -6.492 -10.586  16.112  0.00  0.00    -0.198 NA
ATOM     23  C   UNL     1      -6.739 -10.061  16.699  0.00  0.00    +0.265 C 
ATOM     24  O   UNL     1      -7.159  -9.382  16.494  0.00  0.00    -0.268 OA
BRANCH  23  25
ATOM     25  C   UNL     1      -6.566 -10.216  17.491  0.00  0.00    +0.055 A 
ATOM     26  C   UNL     1      -7.106 -10.010  18.079  0.00  0.00    +0.006 A 
ATOM     27  C   UNL     1      -6.934 -10.164  18.871  0.00  0.00    +0.015 A 
ATOM     28  C   UNL     1      -6.219 -10.526  19.074  0.00  0.00    +0.048 A 
ATOM     29  C   UNL     1      -5.680 -10.731  18.486  0.00  0.00    +0.015 A 
ATOM     30  C   UNL     1      -5.852 -10.577  17.694  0.00  0.00    +0.006 A 
BRANCH  28  31
ATOM     31  N   UNL     1      -6.046 -10.681  19.866  0.00  0.00    -0.304 N 
ATOM     32  C   UNL     1      -5.261 -10.763  20.108  0.00  0.00    +0.112 C 
ATOM     33  C   UNL     1      -6.657 -10.752  20.414  0.00  0.00    +0.112 C 
ENDBRANCH  28  31
ENDBRANCH  23  25
ENDBRANCH  18  22
BRANCH  14  13
ATOM     13  O   UNL     1      -6.202 -10.237  12.570  0.00  0.00    -0.432 OA
BRANCH  13  11
ATOM     10  N   UNL     1      -5.405 -10.246  11.384  0.00  0.00    -0.142 NA
ATOM     11  C   UNL     1      -5.637  -9.880  12.086  0.00  0.00    +0.425 C 
ATOM     12  O   UNL     1      -5.303  -9.158  12.305  0.00  0.00    -0.224 OA
BRANCH  10   9
ATOM      3  C   UNL     1      -3.477  -9.720  10.507  0.00  0.00    +0.143 A 
ATOM      4  C   UNL     1      -3.710  -9.177   9.931  0.00  0.00    +0.074 A 
ATOM      5  C   UNL     1      -4.509  -8.991   9.839  0.00  0.00    +0.143 A 
ATOM      8  C   UNL     1      -5.073  -9.347  10.324  0.00  0.00    +0.054 A 
ATOM      9  C   UNL     1      -4.840  -9.890  10.900  0.00  0.00    +0.083 A 
ATOM     34  C   UNL     1      -4.042 -10.076  10.991  0.00  0.00    +0.054 A 
BRANCH   3   2
ATOM      1  C   UNL     1      -2.425 -10.321  11.264  0.00  0.00    +0.252 C 
ATOM      2  O   UNL     1      -2.679  -9.906  10.598  0.00  0.00    -0.471 OA
ENDBRANCH   3   2
BRANCH   5   6
ATOM      6  O   UNL     1      -4.742  -8.448   9.263  0.00  0.00    -0.471 OA
ATOM      7  C   UNL     1      -5.007  -8.715   8.528  0.00  0.00    +0.252 C 
ENDBRANCH   5   6
ENDBRANCH  10   9
ENDBRANCH  13  11
ENDBRANCH  14  13
TORSDOF 8
ENDMDL
MODEL 3
REMARK VINA RESULT:      -4.7     17.165     18.554
REMARK  Name = 
REMARK  8 active torsions:
REMARK  status: ('A' for Active; 'I' for Inactive)
REMARK    1  A    between atoms: O_2  and  C_3
REMARK    2  A    between atoms: C_5  and  O_6
REMARK    3  A    between atoms: C_9  and  N_10
REMARK    4  A    between atoms: C_11  and  O_13
REMARK    5  A    between atoms: O_13  and  C_14
REMARK    6  A    between atoms: C_18  and  N_22
REMARK    7  A    between atoms: C_23  and  C_25
REMARK    8  A    between atoms: C_28  and  N_31
REMARK                            x       y       z     vdW  Elec       q    Type
REMARK                         _______ _______ _______ _____ _____    ______ ____
ROOT
ATOM     14  C   UNL     1      17.152  -6.189  27.580  0.00  0.00    +0.229 C 
ATOM     15  C   UNL     1      17.244  -5.453  27.941  0.00  0.00    +0.188 C 
ATOM     16  O   UNL     1      17.299  -4.884  27.346  0.00  0.00    -0.348 OA
ATOM     17  C   UNL     1      17.242  -5.268  26.619  0.00  0.00    +0.168 C 
ATOM     18  C   UNL     1      17.241  -5.155  25.802  0.00  0.00    +0.155 C 
ATOM     19  C   UNL     1      17.149  -5.891  25.442  0.00  0.00    +0.166 C 
ATOM     20  O   UNL     1      17.094  -6.460  26.036  0.00  0.00    -0.348 OA
ATOM     21  C   UNL     1      17.151  -6.075  26.764  0.00  0.00    +0.186 C 
ENDROOT
BRANCH  18  22
ATOM     22  N   UNL     1      17.317  -4.431  25.413  0.00  0.00    -0.198 NA
ATOM     23  C   UNL     1      16.874  -4.278  24.734  0.00  0.00    +0.265 C 
ATOM     24  O   UNL     1      16.355  -4.849  24.443  0.00  0.00    -0.268 OA
BRANCH  23  25
ATOM     25  C   UNL     1      16.951  -3.554  24.345  0.00  0.00    +0.055 A 
ATOM     26  C   UNL     1      16.650  -2.867  24.689  0.00  0.00    +0.006 A 
ATOM     27  C   UNL     1      16.727  -2.143  24.301  0.00  0.00    +0.015 A 
ATOM     28  C   UNL     1      17.105  -2.107  23.568  0.00  0.00    +0.048 A 
ATOM     29  C   UNL     1      17.405  -2.793  23.225  0.00  0.00    +0.015 A 
ATOM     30  C   UNL     1      17.329  -3.518  23.613  0.00  0.00    +0.006 A 
BRANCH  28  31
ATOM     31  N   UNL     1      17.182  -1.383  23.179  0.00  0.00    -0.304 N 
ATOM     32  C   UNL     1      17.396  -0.708  23.604  0.00  0.00    +0.112 C 
ATOM     33  C   UNL     1      17.045  -1.335  22.368  0.00  0.00    +0.112 C 
ENDBRANCH  28  31
ENDBRANCH  23  25
ENDBRANCH  18  22
BRANCH  14  13
ATOM     13  O   UNL     1      17.076  -6.913  27.969  0.00  0.00    -0.432 OA
BRANCH  13  11
ATOM     10  N   UNL     1      15.944  -7.525  28.590  0.00  0.00    -0.142 NA
ATOM     11  C   UNL     1      16.565  -6.984  28.614  0.00  0.00    +0.425 C 
ATOM     12  O   UNL     1      16.677  -6.511  29.281  0.00  0.00    -0.224 OA
BRANCH  10   9
ATOM      3  C   UNL     1      14.262  -7.176  29.938  0.00  0.00    +0.143 A 
ATOM      4  C   UNL     1      14.412  -7.737  30.523  0.00  0.00    +0.074 A 
ATOM      5  C   UNL     1      15.074  -8.228  30.465  0.00  0.00    +0.143 A 
ATOM      8  C   UNL     1      15.583  -8.157  29.820  0.00  0.00    +0.054 A 
ATOM      9  C   UNL     1      15.433  -7.596  29.235  0.00  0.00    +0.083 A 
ATOM     34  C   UNL     1      14.772  -7.106  29.293  0.00  0.00    +0.054 A 
BRANCH   3   2
ATOM      1  C   UNL     1      13.505  -6.200  30.656  0.00  0.00    +0.252 C 
ATOM      2  O   UNL     1      13.601  -6.687  29.996  0.00  0.00    -0.471 OA
ENDBRANCH   3   2
BRANCH   5   6
ATOM      6  O   UNL     1      15.224  -8.789  31.051  0.00  0.00    -0.471 OA
ATOM      7  C   UNL     1      15.221  -9.593  30.863  0.00  0.00    +0.252 C 
ENDBRANCH   5   6
ENDBRANCH  10   9
ENDBRANCH  13  11
ENDBRANCH  14  13
TORSDOF 8
ENDMDL
MODEL 4
REMARK VINA RESULT:      -4.7     17.323     19.024
REMARK  Name = 
REMARK  8 active torsions:
REMARK  status: ('A' for Active; 'I' for Inactive)
REMARK    1  A    between atoms: O_2  and  C_3
REMARK    2  A    between atoms: C_5  and  O_6
REMARK    3  A    between atoms: C_9  and  N_10
REMARK    4  A    between atoms: C_11  and  O_13
REMARK    5  A    between atoms: O_13  and  C_14
REMARK    6  A    between atoms: C_18  and  N_22
REMARK    7  A    between atoms: C_23  and  C_25
REMARK    8  A    between atoms: C_28  and  N_31
REMARK                            x       y       z     vdW  Elec       q    Type
REMARK                         _______ _______ _______ _____ _____    ______ ____
ROOT
ATOM     14  C   UNL     1      17.168  -7.190  25.399  0.00  0.00    +0.229 C 
ATOM     15  C   UNL     1      16.988  -6.701  26.038  0.00  0.00    +0.188 C 
ATOM     16  O   UNL     1      16.953  -5.924  25.763  0.00  0.00    -0.348 OA
ATOM     17  C   UNL     1      17.112  -5.933  24.955  0.00  0.00    +0.168 C 
ATOM     18  C   UNL     1      17.188  -5.458  24.284  0.00  0.00    +0.155 C 
ATOM     19  C   UNL     1      17.369  -5.947  23.644  0.00  0.00    +0.166 C 
ATOM     20  O   UNL     1      17.404  -6.724  23.919  0.00  0.00    -0.348 OA
ATOM     21  C   UNL     1      17.245  -6.715  24.729  0.00  0.00    +0.186 C 
ENDROOT
BRANCH  18  22
ATOM     22  N   UNL     1      17.100  -4.638  24.257  0.00  0.00    -0.198 NA
ATOM     23  C   UNL     1      17.052  -4.251  23.530  0.00  0.00    +0.265 C 
ATOM     24  O   UNL     1      17.093  -4.684  22.829  0.00  0.00    -0.268 OA
BRANCH  23  25
ATOM     25  C   UNL     1      16.964  -3.431  23.504  0.00  0.00    +0.055 A 
ATOM     26  C   UNL     1      17.405  -2.953  24.011  0.00  0.00    +0.006 A 
ATOM     27  C   UNL     1      17.317  -2.133  23.986  0.00  0.00    +0.015 A 
ATOM     28  C   UNL     1      16.787  -1.792  23.452  0.00  0.00    +0.048 A 
ATOM     29  C   UNL     1      16.347  -2.271  22.946  0.00  0.00    +0.015 A 
ATOM     30  C   UNL     1      16.435  -3.091  22.971  0.00  0.00    +0.006 A 
BRANCH  28  31
ATOM     31  N   UNL     1      16.699  -0.972  23.426  0.00  0.00    -0.304 N 
ATOM     32  C   UNL     1      16.257  -0.624  22.821  0.00  0.00    +0.112 C 
ATOM     33  C   UNL     1      17.051  -0.501  24.003  0.00  0.00    +0.112 C 
ENDBRANCH  28  31
ENDBRANCH  23  25
ENDBRANCH  18  22
BRANCH  14  13
ATOM     13  O   UNL     1      17.257  -8.010  25.425  0.00  0.00    -0.432 OA
BRANCH  13  11
ATOM     10  N   UNL     1      16.719  -9.298  25.730  0.00  0.00    -0.142 NA
ATOM     11  C   UNL     1      16.679  -8.476  25.784  0.00  0.00    +0.425 C 
ATOM     12  O   UNL     1      16.060  -8.119  26.198  0.00  0.00    -0.224 OA
BRANCH  10   9
ATOM      3  C   UNL     1      15.626 -10.425  27.248  0.00  0.00    +0.143 A 
ATOM      4  C   UNL     1      14.984 -10.697  26.807  0.00  0.00    +0.074 A 
ATOM      5  C   UNL     1      14.920 -10.503  26.008  0.00  0.00    +0.143 A 
ATOM      8  C   UNL     1      15.498 -10.036  25.649  0.00  0.00    +0.054 A 
ATOM      9  C   UNL     1      16.141  -9.764  26.090  0.00  0.00    +0.083 A 
ATOM     34  C   UNL     1      16.205  -9.958  26.888  0.00  0.00    +0.054 A 
BRANCH   3   2
ATOM      1  C   UNL     1      15.389 -10.109  28.621  0.00  0.00    +0.252 C 
ATOM      2  O   UNL     1      15.690 -10.619  28.046  0.00  0.00    -0.471 OA
ENDBRANCH   3   2
BRANCH   5   6
ATOM      6  O   UNL     1      14.278 -10.775  25.567  0.00  0.00    -0.471 OA
ATOM      7  C   UNL     1      14.085 -10.413  24.851  0.00  0.00    +0.252 C 
ENDBRANCH   5   6
ENDBRANCH  10   9
ENDBRANCH  13  11
ENDBRANCH  14  13
TORSDOF 8
ENDMDL
MODEL 5
REMARK VINA RESULT:      -4.5     15.985     17.747
REMARK  Name = 
REMARK  8 active torsions:
REMARK  status: ('A' for Active; 'I' for Inactive)
REMARK    1  A    between atoms: O_2  and  C_3
REMARK    2  A    between atoms: C_5  and  O_6
REMARK    3  A    between atoms: C_9  and  N_10
REMARK    4  A    between atoms: C_11  and  O_13
REMARK    5  A    between atoms: O_13  and  C_14
REMARK    6  A    between atoms: C_18  and  N_22
REMARK    7  A    between atoms: C_23  and  C_25
REMARK    8  A    between atoms: C_28  and  N_31
REMARK                            x       y       z     vdW  Elec       q    Type
REMARK                         _______ _______ _______ _____ _____    ______ ____
ROOT
ATOM     14  C   UNL     1      -7.719 -10.029  12.560  0.00  0.00    +0.229 C 
ATOM     15  C   UNL     1      -6.899 -10.064  12.636  0.00  0.00    +0.188 C 
ATOM     16  O   UNL     1      -6.721 -10.160  13.435  0.00  0.00    -0.348 OA
ATOM     17  C   UNL     1      -7.431 -10.185  13.854  0.00  0.00    +0.168 C 
ATOM     18  C   UNL     1      -7.760 -10.259  14.606  0.00  0.00    +0.155 C 
ATOM     19  C   UNL     1      -8.581 -10.224  14.531  0.00  0.00    +0.166 C 
ATOM     20  O   UNL     1      -8.759 -10.128  13.731  0.00  0.00    -0.348 OA
ATOM     21  C   UNL     1      -8.048 -10.104  13.313  0.00  0.00    +0.186 C 
ENDROOT
BRANCH  18  22
ATOM     22  N   UNL     1      -7.342 -10.352  15.312  0.00  0.00    -0.198 NA
ATOM     23  C   UNL     1      -7.695 -10.155  16.030  0.00  0.00    +0.265 C 
ATOM     24  O   UNL     1      -8.467  -9.864  16.045  0.00  0.00    -0.268 OA
BRANCH  23  25
ATOM     25  C   UNL     1      -7.277 -10.248  16.736  0.00  0.00    +0.055 A 
ATOM     26  C   UNL     1      -7.594  -9.968  17.444  0.00  0.00    +0.006 A 
ATOM     27  C   UNL     1      -7.176 -10.060  18.149  0.00  0.00    +0.015 A 
ATOM     28  C   UNL     1      -6.440 -10.434  18.145  0.00  0.00    +0.048 A 
ATOM     29  C   UNL     1      -6.124 -10.714  17.437  0.00  0.00    +0.015 A 
ATOM     30  C   UNL     1      -6.541 -10.621  16.732  0.00  0.00    +0.006 A 
BRANCH  28  31
ATOM     31  N   UNL     1      -6.021 -10.528  18.850  0.00  0.00    -0.304 N 
ATOM     32  C   UNL     1      -5.236 -10.781  18.833  0.00  0.00    +0.112 C 
ATOM     33  C   UNL     1      -6.388 -10.368  19.571  0.00  0.00    +0.112 C 
ENDBRANCH  28  31
ENDBRANCH  23  25
ENDBRANCH  18  22
BRANCH  14  13
ATOM     13  O   UNL     1      -8.138  -9.936  11.855  0.00  0.00    -0.432 OA
BRANCH  13  11
ATOM     10  N   UNL     1      -7.910  -9.872  10.446  0.00  0.00    -0.142 NA
ATOM     11  C   UNL     1      -7.777  -9.579  11.205  0.00  0.00    +0.425 C 
ATOM     12  O   UNL     1      -7.283  -8.927  11.315  0.00  0.00    -0.224 OA
BRANCH  10   9
ATOM      3  C   UNL     1      -7.575  -8.554   8.738  0.00  0.00    +0.143 A 
ATOM      4  C   UNL     1      -6.826  -8.801   8.495  0.00  0.00    +0.074 A 
ATOM      5  C   UNL     1      -6.439  -9.406   8.902  0.00  0.00    +0.143 A 
ATOM      8  C   UNL     1      -6.800  -9.762   9.552  0.00  0.00    +0.054 A 
ATOM      9  C   UNL     1      -7.549  -9.515   9.796  0.00  0.00    +0.083 A 
ATOM     34  C   UNL     1      -7.936  -8.912   9.389  0.00  0.00    +0.054 A 
BRANCH   3   2
ATOM      1  C   UNL     1      -7.797  -7.162   8.508  0.00  0.00    +0.252 C 
ATOM      2  O   UNL     1      -7.962  -7.951   8.331  0.00  0.00    -0.471 OA
ENDBRANCH   3   2
BRANCH   5   6
ATOM      6  O   UNL     1      -5.690  -9.653   8.659  0.00  0.00    -0.471 OA
ATOM      7  C   UNL     1      -5.016  -9.289   8.965  0.00  0.00    +0.252 C 
ENDBRANCH   5   6
ENDBRANCH  10   9
ENDBRANCH  13  11
ENDBRANCH  14  13
TORSDOF 8
ENDMDL
MODEL 6
REMARK VINA RESULT:      -4.3     16.216     18.510
REMARK  Name = 
REMARK  8 active torsions:
REMARK  status: ('A' for Active; 'I' for Inactive)
REMARK    1  A    between atoms: O_2  and  C_3
REMARK    2  A    between atoms: C_5  and  O_6
REMARK    3  A    between atoms: C_9  and  N_10
REMARK    4  A    between atoms: C_11  and  O_13
REMARK    5  A    between atoms: O_13  and  C_14
REMARK    6  A    between atoms: C_18  and  N_22
REMARK    7  A    between atoms: C_23  and  C_25
REMARK    8  A    between atoms: C_28  and  N_31
REMARK                            x       y       z     vdW  Elec       q    Type
REMARK                         _______ _______ _______ _____ _____    ______ ____
ROOT
ATOM     14  C   UNL     1      17.150  -5.429  25.917  0.00  0.00    +0.229 C 
ATOM     15  C   UNL     1      17.334  -4.969  26.577  0.00  0.00    +0.188 C 
ATOM     16  O   UNL     1      17.060  -5.365  27.247  0.00  0.00    -0.348 OA
ATOM     17  C   UNL     1      16.708  -6.069  27.001  0.00  0.00    +0.168 C 
ATOM     18  C   UNL     1      16.321  -6.749  27.262  0.00  0.00    +0.155 C 
ATOM     19  C   UNL     1      16.138  -7.209  26.602  0.00  0.00    +0.166 C 
ATOM     20  O   UNL     1      16.411  -6.813  25.933  0.00  0.00    -0.348 OA
ATOM     21  C   UNL     1      16.764  -6.108  26.179  0.00  0.00    +0.186 C 
ENDROOT
BRANCH  18  22
ATOM     22  N   UNL     1      16.148  -6.937  28.047  0.00  0.00    -0.198 NA
ATOM     23  C   UNL     1      15.370  -7.095  28.272  0.00  0.00    +0.265 C 
ATOM     24  O   UNL     1      14.765  -7.065  27.712  0.00  0.00    -0.268 OA
BRANCH  23  25
ATOM     25  C   UNL     1      15.197  -7.283  29.056  0.00  0.00    +0.055 A 
ATOM     26  C   UNL     1      15.626  -7.871  29.444  0.00  0.00    +0.006 A 
ATOM     27  C   UNL     1      15.453  -8.060  30.228  0.00  0.00    +0.015 A 
ATOM     28  C   UNL     1      14.851  -7.658  30.625  0.00  0.00    +0.048 A 
ATOM     29  C   UNL     1      14.423  -7.069  30.238  0.00  0.00    +0.015 A 
ATOM     30  C   UNL     1      14.595  -6.881  29.453  0.00  0.00    +0.006 A 
BRANCH  28  31
ATOM     31  N   UNL     1      14.678  -7.845  31.410  0.00  0.00    -0.304 N 
ATOM     32  C   UNL     1      14.312  -8.563  31.591  0.00  0.00    +0.112 C 
ATOM     33  C   UNL     1      14.870  -7.317  32.012  0.00  0.00    +0.112 C 
ENDBRANCH  28  31
ENDBRANCH  23  25
ENDBRANCH  18  22
BRANCH  14  13
ATOM     13  O   UNL     1      17.323  -5.241  25.132  0.00  0.00    -0.432 OA
BRANCH  13  11
ATOM     10  N   UNL     1      17.217  -4.349  24.021  0.00  0.00    -0.142 NA
ATOM     11  C   UNL     1      17.037  -4.541  24.802  0.00  0.00    +0.425 C 
ATOM     12  O   UNL     1      16.569  -4.033  25.255  0.00  0.00    -0.224 OA
BRANCH  10   9
ATOM      3  C   UNL     1      15.978  -2.964  22.875  0.00  0.00    +0.143 A 
ATOM      4  C   UNL     1      16.359  -2.249  23.032  0.00  0.00    +0.074 A 
ATOM      5  C   UNL     1      17.025  -2.233  23.518  0.00  0.00    +0.143 A 
ATOM      8  C   UNL     1      17.311  -2.934  23.847  0.00  0.00    +0.054 A 
ATOM      9  C   UNL     1      16.931  -3.649  23.691  0.00  0.00    +0.083 A 
ATOM     34  C   UNL     1      16.265  -3.664  23.205  0.00  0.00    +0.054 A 
BRANCH   3   2
ATOM      1  C   UNL     1      14.799  -2.333  22.372  0.00  0.00    +0.252 C 
ATOM      2  O   UNL     1      15.313  -2.979  22.389  0.00  0.00    -0.471 OA
ENDBRANCH   3   2
BRANCH   5   6
ATOM      6  O   UNL     1      17.405  -1.518  23.674  0.00  0.00    -0.471 OA
ATOM      7  C   UNL     1      17.262  -1.121  24.384  0.00  0.00    +0.252 C 
ENDBRANCH   5   6
ENDBRANCH  10   9
ENDBRANCH  13  11
ENDBRANCH  14  13
TORSDOF 8
ENDMDL
MODEL 7
REMARK VINA RESULT:      -4.1     17.375     18.057
REMARK  Name = 
REMARK  8 active torsions:
REMARK  status: ('A' for Active; 'I' for Inactive)
REMARK    1  A    between atoms: O_2  and  C_3
REMARK    2  A    between atoms: C_5  and  O_6
REMARK    3  A    between atoms: C_9  and  N_10
REMARK    4  A    between atoms: C_11  and  O_13
REMARK    5  A    between atoms: O_13  and  C_14
REMARK    6  A    between atoms: C_18  and  N_22
REMARK    7  A    between atoms: C_23  and  C_25
REMARK    8  A    between atoms: C_28  and  N_31
REMARK                            x       y       z     vdW  Elec       q    Type
REMARK                         _______ _______ _______ _____ _____    ______ ____
ROOT
ATOM     14  C   UNL     1      15.689  -7.029  28.046  0.00  0.00    +0.229 C 
ATOM     15  C   UNL     1      15.089  -7.039  27.481  0.00  0.00    +0.188 C 
ATOM     16  O   UNL     1      15.335  -6.581  26.841  0.00  0.00    -0.348 OA
ATOM     17  C   UNL     1      16.087  -6.289  27.010  0.00  0.00    +0.168 C 
ATOM     18  C   UNL     1      16.705  -5.826  26.719  0.00  0.00    +0.155 C 
ATOM     19  C   UNL     1      17.305  -5.816  27.285  0.00  0.00    +0.166 C 
ATOM     20  O   UNL     1      17.059  -6.274  27.925  0.00  0.00    -0.348 OA
ATOM     21  C   UNL     1      16.306  -6.566  27.755  0.00  0.00    +0.186 C 
ENDROOT
BRANCH  18  22
ATOM     22  N   UNL     1      16.719  -5.439  25.990  0.00  0.00    -0.198 NA
ATOM     23  C   UNL     1      17.069  -4.695  25.924  0.00  0.00    +0.265 C 
ATOM     24  O   UNL     1      17.405  -4.337  26.587  0.00  0.00    -0.268 OA
BRANCH  23  25
ATOM     25  C   UNL     1      17.084  -4.309  25.195  0.00  0.00    +0.055 A 
ATOM     26  C   UNL     1      16.790  -3.541  25.130  0.00  0.00    +0.006 A 
ATOM     27  C   UNL     1      16.804  -3.154  24.401  0.00  0.00    +0.015 A 
ATOM     28  C   UNL     1      17.112  -3.537  23.738  0.00  0.00    +0.048 A 
ATOM     29  C   UNL     1      17.405  -4.304  23.804  0.00  0.00    +0.015 A 
ATOM     30  C   UNL     1      17.392  -4.691  24.532  0.00  0.00    +0.006 A 
BRANCH  28  31
ATOM     31  N   UNL     1      17.127  -3.150  23.009  0.00  0.00    -0.304 N 
ATOM     32  C   UNL     1      17.375  -3.554  22.333  0.00  0.00    +0.112 C 
ATOM     33  C   UNL     1      16.893  -2.362  22.956  0.00  0.00    +0.112 C 
ENDBRANCH  28  31
ENDBRANCH  23  25
ENDBRANCH  18  22
BRANCH  14  13
ATOM     13  O   UNL     1      15.675  -7.416  28.775  0.00  0.00    -0.432 OA
BRANCH  13  11
ATOM     10  N   UNL     1      15.152  -7.331  30.103  0.00  0.00    -0.142 NA
ATOM     11  C   UNL     1      15.036  -7.310  29.287  0.00  0.00    +0.425 C 
ATOM     12  O   UNL     1      14.280  -7.183  28.980  0.00  0.00    -0.224 OA
BRANCH  10   9
ATOM      3  C   UNL     1      13.468  -7.773  31.420  0.00  0.00    +0.143 A 
ATOM      4  C   UNL     1      13.235  -7.011  31.636  0.00  0.00    +0.074 A 
ATOM      5  C   UNL     1      13.641  -6.356  31.341  0.00  0.00    +0.143 A 
ATOM      8  C   UNL     1      14.280  -6.463  30.830  0.00  0.00    +0.054 A 
ATOM      9  C   UNL     1      14.513  -7.225  30.614  0.00  0.00    +0.083 A 
ATOM     34  C   UNL     1      14.107  -7.879  30.909  0.00  0.00    +0.054 A 
BRANCH   3   2
ATOM      1  C   UNL     1      12.372  -8.686  31.344  0.00  0.00    +0.252 C 
ATOM      2  O   UNL     1      13.063  -8.427  31.715  0.00  0.00    -0.471 OA
ENDBRANCH   3   2
BRANCH   5   6
ATOM      6  O   UNL     1      13.408  -5.595  31.557  0.00  0.00    -0.471 OA
ATOM      7  C   UNL     1      13.921  -5.114  31.989  0.00  0.00    +0.252 C 
ENDBRANCH   5   6
ENDBRANCH  10   9
ENDBRANCH  13  11
ENDBRANCH  14  13
TORSDOF 8
ENDMDL
