MODEL 1
REMARK VINA RESULT:      -9.8      0.000      0.000
REMARK  Name = 
REMARK  4 active torsions:
REMARK  status: ('A' for Active; 'I' for Inactive)
REMARK    1  A    between atoms: O_2  and  C_3
REMARK    2  A    between atoms: C_6  and  C_9
REMARK    3  A    between atoms: C_17  and  N_25
REMARK    4  A    between atoms: N_28  and  C_29
REMARK                            x       y       z     vdW  Elec       q    Type
REMARK                         _______ _______ _______ _____ _____    ______ ____
ROOT
ATOM      9  C   UNL     1      -3.357   0.957  24.461  0.00  0.00    +0.000 A 
ATOM     10  C   UNL     1      -3.368   0.165  24.232  0.00  0.00    +0.001 A 
ATOM     11  C   UNL     1      -2.671  -0.205  23.994  0.00  0.00    +0.017 A 
ATOM     12  C   UNL     1      -1.962   0.217  23.984  0.00  0.00    +0.078 A 
ATOM     13  N   UNL     1      -1.334  -0.254  23.730  0.00  0.00    -0.178 NA
ATOM     14  C   UNL     1      -0.540  -0.049  23.641  0.00  0.00    +0.265 C 
ATOM     15  O   UNL     1      -0.043  -0.650  23.373  0.00  0.00    -0.271 OA
ATOM     16  C   UNL     1      -0.178   0.678  23.786  0.00  0.00    +0.174 C 
ATOM     17  C   UNL     1       0.628   0.814  23.675  0.00  0.00    +0.126 C 
ATOM     18  C   UNL     1       0.785   1.599  23.875  0.00  0.00    +0.045 C 
ATOM     19  C   UNL     1       0.075   1.948  24.109  0.00  0.00    +0.096 C 
ATOM     20  N   UNL     1      -0.520   1.379  24.054  0.00  0.00    -0.268 N 
ATOM     21  C   UNL     1      -1.309   1.526  24.244  0.00  0.00    +0.251 C 
ATOM     22  O   UNL     1      -1.478   2.292  24.499  0.00  0.00    -0.270 OA
ATOM     23  C   UNL     1      -1.950   1.009  24.213  0.00  0.00    +0.069 A 
ATOM     24  C   UNL     1      -2.648   1.379  24.451  0.00  0.00    +0.006 A 
ENDROOT
BRANCH   9   6
ATOM      3  C   UNL     1      -5.450   2.070  25.176  0.00  0.00    +0.139 A 
ATOM      4  C   UNL     1      -5.226   1.351  25.516  0.00  0.00    +0.037 A 
ATOM      5  C   UNL     1      -4.529   0.981  25.277  0.00  0.00    +0.003 A 
ATOM      6  C   UNL     1      -4.055   1.328  24.699  0.00  0.00    +0.000 A 
ATOM      7  C   UNL     1      -4.277   2.046  24.359  0.00  0.00    +0.003 A 
ATOM      8  C   UNL     1      -4.974   2.416  24.598  0.00  0.00    +0.037 A 
BRANCH   3   2
ATOM      1  C   UNL     1      -6.118   3.188  25.762  0.00  0.00    +0.252 C 
ATOM      2  O   UNL     1      -6.147   2.440  25.415  0.00  0.00    -0.471 OA
ENDBRANCH   3   2
ENDBRANCH   9   6
BRANCH  17  25
ATOM     25  N   UNL     1       1.181   0.261  23.410  0.00  0.00    -0.187 NA
ATOM     26  C   UNL     1       1.977   0.471  23.349  0.00  0.00    +0.339 C 
ATOM     27  O   UNL     1       2.220   1.233  23.553  0.00  0.00    -0.249 OA
ATOM     28  N   UNL     1       2.530  -0.082  23.085  0.00  0.00    -0.189 NA
BRANCH  28  29
ATOM     29  C   UNL     1       3.326   0.128  23.024  0.00  0.00    +0.097 C 
ATOM     30  C   UNL     1       3.886  -0.234  23.509  0.00  0.00    +0.022 C 
ATOM     31  C   UNL     1       4.682  -0.024  23.449  0.00  0.00    +0.002 C 
ATOM     32  C   UNL     1       4.917   0.547  22.903  0.00  0.00    +0.000 C 
ATOM     33  C   UNL     1       4.356   0.910  22.417  0.00  0.00    +0.002 C 
ATOM     34  C   UNL     1       3.561   0.700  22.478  0.00  0.00    +0.022 C 
ENDBRANCH  28  29
ENDBRANCH  17  25
TORSDOF 4
ENDMDL
MODEL 2
REMARK VINA RESULT:      -9.5      1.280      6.816
REMARK  Name = 
REMARK  4 active torsions:
REMARK  status: ('A' for Active; 'I' for Inactive)
REMARK    1  A    between atoms: O_2  and  C_3
REMARK    2  A    between atoms: C_6  and  C_9
REMARK    3  A    between atoms: C_17  and  N_25
REMARK    4  A    between atoms: N_28  and  C_29
REMARK                            x       y       z     vdW  Elec       q    Type
REMARK                         _______ _______ _______ _____ _____    ______ ____
ROOT
ATOM      9  C   UNL     1       1.964   0.365  23.079  0.00  0.00    +0.000 A 
ATOM     10  C   UNL     1       1.523  -0.189  22.656  0.00  0.00    +0.001 A 
ATOM     11  C   UNL     1       0.699  -0.177  22.697  0.00  0.00    +0.017 A 
ATOM     12  C   UNL     1       0.317   0.387  23.161  0.00  0.00    +0.078 A 
ATOM     13  N   UNL     1      -0.503   0.302  23.125  0.00  0.00    -0.178 NA
ATOM     14  C   UNL     1      -1.084   0.750  23.503  0.00  0.00    +0.265 C 
ATOM     15  O   UNL     1      -1.863   0.524  23.354  0.00  0.00    -0.271 OA
ATOM     16  C   UNL     1      -0.988   1.393  24.011  0.00  0.00    +0.174 C 
ATOM     17  C   UNL     1      -1.619   1.796  24.357  0.00  0.00    +0.126 C 
ATOM     18  C   UNL     1      -1.309   2.401  24.825  0.00  0.00    +0.045 C 
ATOM     19  C   UNL     1      -0.487   2.370  24.769  0.00  0.00    +0.096 C 
ATOM     20  N   UNL     1      -0.288   1.747  24.266  0.00  0.00    -0.268 N 
ATOM     21  C   UNL     1       0.489   1.546  24.076  0.00  0.00    +0.251 C 
ATOM     22  O   UNL     1       1.074   2.012  24.423  0.00  0.00    -0.270 OA
ATOM     23  C   UNL     1       0.758   0.941  23.584  0.00  0.00    +0.069 A 
ATOM     24  C   UNL     1       1.581   0.930  23.543  0.00  0.00    +0.006 A 
ENDROOT
BRANCH   9   6
ATOM      3  C   UNL     1       4.437   0.332  22.958  0.00  0.00    +0.139 A 
ATOM      4  C   UNL     1       4.030  -0.312  23.277  0.00  0.00    +0.037 A 
ATOM      5  C   UNL     1       3.206  -0.300  23.317  0.00  0.00    +0.003 A 
ATOM      6  C   UNL     1       2.789   0.354  23.038  0.00  0.00    +0.000 A 
ATOM      7  C   UNL     1       3.194   0.997  22.719  0.00  0.00    +0.003 A 
ATOM      8  C   UNL     1       4.018   0.986  22.679  0.00  0.00    +0.037 A 
BRANCH   3   2
ATOM      1  C   UNL     1       5.701   0.082  23.573  0.00  0.00    +0.252 C 
ATOM      2  O   UNL     1       5.260   0.320  22.918  0.00  0.00    -0.471 OA
ENDBRANCH   3   2
ENDBRANCH   9   6
BRANCH  17  25
ATOM     25  N   UNL     1      -2.420   1.626  24.252  0.00  0.00    -0.187 NA
ATOM     26  C   UNL     1      -2.992   2.089  24.624  0.00  0.00    +0.339 C 
ATOM     27  O   UNL     1      -2.764   2.723  25.100  0.00  0.00    -0.249 OA
ATOM     28  N   UNL     1      -3.793   1.919  24.519  0.00  0.00    -0.189 NA
BRANCH  28  29
ATOM     29  C   UNL     1      -4.365   2.382  24.891  0.00  0.00    +0.097 C 
ATOM     30  C   UNL     1      -4.867   2.046  25.453  0.00  0.00    +0.022 C 
ATOM     31  C   UNL     1      -5.440   2.509  25.825  0.00  0.00    +0.002 C 
ATOM     32  C   UNL     1      -5.509   3.309  25.636  0.00  0.00    +0.000 C 
ATOM     33  C   UNL     1      -5.007   3.646  25.074  0.00  0.00    +0.002 C 
ATOM     34  C   UNL     1      -4.435   3.182  24.702  0.00  0.00    +0.022 C 
ENDBRANCH  28  29
ENDBRANCH  17  25
TORSDOF 4
ENDMDL
MODEL 3
REMARK VINA RESULT:      -8.9      0.966      1.640
REMARK  Name = 
REMARK  4 active torsions:
REMARK  status: ('A' for Active; 'I' for Inactive)
REMARK    1  A    between atoms: O_2  and  C_3
REMARK    2  A    between atoms: C_6  and  C_9
REMARK    3  A    between atoms: C_17  and  N_25
REMARK    4  A    between atoms: N_28  and  C_29
REMARK                            x       y       z     vdW  Elec       q    Type
REMARK                         _______ _______ _______ _____ _____    ______ ____
ROOT
ATOM      9  C   UNL     1      -3.000   2.136  24.728  0.00  0.00    +0.000 A 
ATOM     10  C   UNL     1      -2.657   2.835  25.000  0.00  0.00    +0.001 A 
ATOM     11  C   UNL     1      -1.842   2.946  24.936  0.00  0.00    +0.017 A 
ATOM     12  C   UNL     1      -1.370   2.359  24.601  0.00  0.00    +0.078 A 
ATOM     13  N   UNL     1      -0.575   2.580  24.591  0.00  0.00    -0.178 NA
ATOM     14  C   UNL     1       0.073   2.157  24.306  0.00  0.00    +0.265 C 
ATOM     15  O   UNL     1       0.804   2.533  24.375  0.00  0.00    -0.271 OA
ATOM     16  C   UNL     1       0.087   1.407  23.961  0.00  0.00    +0.174 C 
ATOM     17  C   UNL     1       0.777   1.042  23.697  0.00  0.00    +0.126 C 
ATOM     18  C   UNL     1       0.573   0.304  23.389  0.00  0.00    +0.045 C 
ATOM     19  C   UNL     1      -0.244   0.214  23.462  0.00  0.00    +0.096 C 
ATOM     20  N   UNL     1      -0.545   0.897  23.817  0.00  0.00    -0.268 N 
ATOM     21  C   UNL     1      -1.345   1.009  23.980  0.00  0.00    +0.251 C 
ATOM     22  O   UNL     1      -1.844   0.388  23.767  0.00  0.00    -0.270 OA
ATOM     23  C   UNL     1      -1.712   1.660  24.330  0.00  0.00    +0.069 A 
ATOM     24  C   UNL     1      -2.527   1.548  24.393  0.00  0.00    +0.006 A 
ENDROOT
BRANCH   9   6
ATOM      3  C   UNL     1      -5.445   1.799  24.917  0.00  0.00    +0.139 A 
ATOM      4  C   UNL     1      -5.148   2.491  24.579  0.00  0.00    +0.037 A 
ATOM      5  C   UNL     1      -4.333   2.603  24.517  0.00  0.00    +0.003 A 
ATOM      6  C   UNL     1      -3.815   2.023  24.791  0.00  0.00    +0.000 A 
ATOM      7  C   UNL     1      -4.111   1.331  25.129  0.00  0.00    +0.003 A 
ATOM      8  C   UNL     1      -4.926   1.220  25.192  0.00  0.00    +0.037 A 
BRANCH   3   2
ATOM      1  C   UNL     1      -6.656   1.924  25.663  0.00  0.00    +0.252 C 
ATOM      2  O   UNL     1      -6.260   1.687  24.980  0.00  0.00    -0.471 OA
ENDBRANCH   3   2
ENDBRANCH   9   6
BRANCH  17  25
ATOM     25  N   UNL     1       1.538   1.358  23.735  0.00  0.00    -0.187 NA
ATOM     26  C   UNL     1       2.171   0.949  23.398  0.00  0.00    +0.339 C 
ATOM     27  O   UNL     1       2.044   0.225  23.024  0.00  0.00    -0.249 OA
ATOM     28  N   UNL     1       2.933   1.266  23.436  0.00  0.00    -0.189 NA
BRANCH  28  29
ATOM     29  C   UNL     1       3.566   0.857  23.100  0.00  0.00    +0.097 C 
ATOM     30  C   UNL     1       3.628   0.795  22.280  0.00  0.00    +0.022 C 
ATOM     31  C   UNL     1       4.260   0.387  21.942  0.00  0.00    +0.002 C 
ATOM     32  C   UNL     1       4.831   0.040  22.426  0.00  0.00    +0.000 C 
ATOM     33  C   UNL     1       4.770   0.101  23.247  0.00  0.00    +0.002 C 
ATOM     34  C   UNL     1       4.137   0.510  23.583  0.00  0.00    +0.022 C 
ENDBRANCH  28  29
ENDBRANCH  17  25
TORSDOF 4
ENDMDL
MODEL 4
REMARK VINA RESULT:      -8.9     14.567     15.882
REMARK  Name = 
REMARK  4 active torsions:
REMARK  status: ('A' for Active; 'I' for Inactive)
REMARK    1  A    between atoms: O_2  and  C_3
REMARK    2  A    between atoms: C_6  and  C_9
REMARK    3  A    between atoms: C_17  and  N_25
REMARK    4  A    between atoms: N_28  and  C_29
REMARK                            x       y       z     vdW  Elec       q    Type
REMARK                         _______ _______ _______ _____ _____    ______ ____
ROOT
ATOM      9  C   UNL     1      -5.082 -10.631  16.915  0.00  0.00    +0.000 A 
ATOM     10  C   UNL     1      -4.268 -10.762  16.900  0.00  0.00    +0.001 A 
ATOM     11  C   UNL     1      -3.860 -10.741  16.183  0.00  0.00    +0.017 A 
ATOM     12  C   UNL     1      -4.266 -10.588  15.482  0.00  0.00    +0.078 A 
ATOM     13  N   UNL     1      -3.758 -10.592  14.832  0.00  0.00    -0.178 NA
ATOM     14  C   UNL     1      -3.937 -10.465  14.037  0.00  0.00    +0.265 C 
ATOM     15  O   UNL     1      -3.300 -10.505  13.515  0.00  0.00    -0.271 OA
ATOM     16  C   UNL     1      -4.671 -10.303  13.696  0.00  0.00    +0.174 C 
ATOM     17  C   UNL     1      -4.779 -10.186  12.886  0.00  0.00    +0.126 C 
ATOM     18  C   UNL     1      -5.579 -10.038  12.754  0.00  0.00    +0.045 C 
ATOM     19  C   UNL     1      -5.967 -10.064  13.482  0.00  0.00    +0.096 C 
ATOM     20  N   UNL     1      -5.405 -10.228  14.065  0.00  0.00    -0.268 N 
ATOM     21  C   UNL     1      -5.587 -10.296  14.866  0.00  0.00    +0.251 C 
ATOM     22  O   UNL     1      -6.381 -10.190  15.062  0.00  0.00    -0.270 OA
ATOM     23  C   UNL     1      -5.080 -10.457  15.497  0.00  0.00    +0.069 A 
ATOM     24  C   UNL     1      -5.488 -10.478  16.213  0.00  0.00    +0.006 A 
ENDROOT
BRANCH   9   6
ATOM      3  C   UNL     1      -6.308 -10.694  19.065  0.00  0.00    +0.139 A 
ATOM      4  C   UNL     1      -5.487 -10.781  19.054  0.00  0.00    +0.037 A 
ATOM      5  C   UNL     1      -5.079 -10.760  18.338  0.00  0.00    +0.003 A 
ATOM      6  C   UNL     1      -5.491 -10.652  17.632  0.00  0.00    +0.000 A 
ATOM      7  C   UNL     1      -6.311 -10.564  17.642  0.00  0.00    +0.003 A 
ATOM      8  C   UNL     1      -6.719 -10.585  18.358  0.00  0.00    +0.037 A 
BRANCH   3   2
ATOM      1  C   UNL     1      -7.539 -10.769  19.785  0.00  0.00    +0.252 C 
ATOM      2  O   UNL     1      -6.716 -10.715  19.782  0.00  0.00    -0.471 OA
ENDBRANCH   3   2
ENDBRANCH   9   6
BRANCH  17  25
ATOM     25  N   UNL     1      -4.188 -10.212  12.310  0.00  0.00    -0.187 NA
ATOM     26  C   UNL     1      -4.370 -10.026  11.526  0.00  0.00    +0.339 C 
ATOM     27  O   UNL     1      -5.140  -9.814  11.319  0.00  0.00    -0.249 OA
ATOM     28  N   UNL     1      -3.780 -10.052  10.950  0.00  0.00    -0.189 NA
BRANCH  28  29
ATOM     29  C   UNL     1      -3.961  -9.866  10.166  0.00  0.00    +0.097 C 
ATOM     30  C   UNL     1      -3.873  -9.092   9.895  0.00  0.00    +0.022 C 
ATOM     31  C   UNL     1      -4.054  -8.905   9.112  0.00  0.00    +0.002 C 
ATOM     32  C   UNL     1      -4.323  -9.493   8.600  0.00  0.00    +0.000 C 
ATOM     33  C   UNL     1      -4.411 -10.268   8.871  0.00  0.00    +0.002 C 
ATOM     34  C   UNL     1      -4.229 -10.454   9.655  0.00  0.00    +0.022 C 
ENDBRANCH  28  29
ENDBRANCH  17  25
TORSDOF 4
ENDMDL
MODEL 5
REMARK VINA RESULT:      -7.9     14.607     15.776
REMARK  Name = 
REMARK  4 active torsions:
REMARK  status: ('A' for Active; 'I' for Inactive)
REMARK    1  A    between atoms: O_2  and  C_3
REMARK    2  A    between atoms: C_6  and  C_9
REMARK    3  A    between atoms: C_17  and  N_25
REMARK    4  A    between atoms: N_28  and  C_29
REMARK                            x       y       z     vdW  Elec       q    Type
REMARK                         _______ _______ _______ _____ _____    ______ ____
ROOT
ATOM      9  C   UNL     1      -7.970  -9.828  16.860  0.00  0.00    +0.000 A 
ATOM     10  C   UNL     1      -7.225  -9.817  17.214  0.00  0.00    +0.001 A 
ATOM     11  C   UNL     1      -6.546  -9.858  16.747  0.00  0.00    +0.017 A 
ATOM     12  C   UNL     1      -6.612  -9.908  15.927  0.00  0.00    +0.078 A 
ATOM     13  N   UNL     1      -5.871  -9.943  15.566  0.00  0.00    -0.178 NA
ATOM     14  C   UNL     1      -5.691  -9.996  14.763  0.00  0.00    +0.265 C 
ATOM     15  O   UNL     1      -4.888 -10.021  14.577  0.00  0.00    -0.271 OA
ATOM     16  C   UNL     1      -6.209 -10.029  14.121  0.00  0.00    +0.174 C 
ATOM     17  C   UNL     1      -5.958 -10.082  13.338  0.00  0.00    +0.126 C 
ATOM     18  C   UNL     1      -6.627 -10.102  12.856  0.00  0.00    +0.045 C 
ATOM     19  C   UNL     1      -7.292 -10.061  13.343  0.00  0.00    +0.096 C 
ATOM     20  N   UNL     1      -7.034 -10.016  14.125  0.00  0.00    -0.268 N 
ATOM     21  C   UNL     1      -7.544  -9.967  14.771  0.00  0.00    +0.251 C 
ATOM     22  O   UNL     1      -8.349  -9.966  14.591  0.00  0.00    -0.270 OA
ATOM     23  C   UNL     1      -7.357  -9.919  15.572  0.00  0.00    +0.069 A 
ATOM     24  C   UNL     1      -8.036  -9.879  16.039  0.00  0.00    +0.006 A 
ENDROOT
BRANCH   9   6
ATOM      3  C   UNL     1     -10.009  -9.709  18.259  0.00  0.00    +0.139 A 
ATOM      4  C   UNL     1      -9.608 -10.425  18.172  0.00  0.00    +0.037 A 
ATOM      5  C   UNL     1      -8.929 -10.465  17.706  0.00  0.00    +0.003 A 
ATOM      6  C   UNL     1      -8.650  -9.788  17.327  0.00  0.00    +0.000 A 
ATOM      7  C   UNL     1      -9.049  -9.072  17.413  0.00  0.00    +0.003 A 
ATOM      8  C   UNL     1      -9.728  -9.032  17.879  0.00  0.00    +0.037 A 
BRANCH   3   2
ATOM      1  C   UNL     1     -10.709 -10.052  19.456  0.00  0.00    +0.252 C 
ATOM      2  O   UNL     1     -10.688  -9.669  18.725  0.00  0.00    -0.471 OA
ENDBRANCH   3   2
ENDBRANCH   9   6
BRANCH  17  25
ATOM     25  N   UNL     1      -5.174 -10.111  13.080  0.00  0.00    -0.187 NA
ATOM     26  C   UNL     1      -5.000 -10.027  12.278  0.00  0.00    +0.339 C 
ATOM     27  O   UNL     1      -5.610  -9.916  11.733  0.00  0.00    -0.249 OA
ATOM     28  N   UNL     1      -4.217 -10.056  12.021  0.00  0.00    -0.189 NA
BRANCH  28  29
ATOM     29  C   UNL     1      -4.043  -9.973  11.218  0.00  0.00    +0.097 C 
ATOM     30  C   UNL     1      -3.935  -9.221  10.896  0.00  0.00    +0.022 C 
ATOM     31  C   UNL     1      -3.762  -9.137  10.093  0.00  0.00    +0.002 C 
ATOM     32  C   UNL     1      -3.697  -9.805   9.614  0.00  0.00    +0.000 C 
ATOM     33  C   UNL     1      -3.805 -10.557   9.936  0.00  0.00    +0.002 C 
ATOM     34  C   UNL     1      -3.978 -10.641  10.739  0.00  0.00    +0.022 C 
ENDBRANCH  28  29
ENDBRANCH  17  25
TORSDOF 4
ENDMDL
MODEL 6
REMARK VINA RESULT:      -6.9     14.808     16.948
REMARK  Name = 
REMARK  4 active torsions:
REMARK  status: ('A' for Active; 'I' for Inactive)
REMARK    1  A    between atoms: O_2  and  C_3
REMARK    2  A    between atoms: C_6  and  C_9
REMARK    3  A    between atoms: C_17  and  N_25
REMARK    4  A    between atoms: N_28  and  C_29
REMARK                            x       y       z     vdW  Elec       q    Type
REMARK                         _______ _______ _______ _____ _____    ______ ____
ROOT
ATOM      9  C   UNL     1      -4.780 -10.469  12.810  0.00  0.00    +0.000 A 
ATOM     10  C   UNL     1      -5.407 -10.655  12.308  0.00  0.00    +0.001 A 
ATOM     11  C   UNL     1      -6.177 -10.680  12.603  0.00  0.00    +0.017 A 
ATOM     12  C   UNL     1      -6.320 -10.518  13.398  0.00  0.00    +0.078 A 
ATOM     13  N   UNL     1      -7.123 -10.572  13.578  0.00  0.00    -0.178 NA
ATOM     14  C   UNL     1      -7.498 -10.454  14.304  0.00  0.00    +0.265 C 
ATOM     15  O   UNL     1      -8.317 -10.550  14.304  0.00  0.00    -0.271 OA
ATOM     16  C   UNL     1      -7.161 -10.251  15.029  0.00  0.00    +0.174 C 
ATOM     17  C   UNL     1      -7.599 -10.148  15.720  0.00  0.00    +0.126 C 
ATOM     18  C   UNL     1      -7.076  -9.950  16.326  0.00  0.00    +0.045 C 
ATOM     19  C   UNL     1      -6.315  -9.931  16.010  0.00  0.00    +0.096 C 
ATOM     20  N   UNL     1      -6.367 -10.117  15.208  0.00  0.00    -0.268 N 
ATOM     21  C   UNL     1      -5.714 -10.153  14.706  0.00  0.00    +0.251 C 
ATOM     22  O   UNL     1      -4.985  -9.989  15.055  0.00  0.00    -0.270 OA
ATOM     23  C   UNL     1      -5.693 -10.331  13.901  0.00  0.00    +0.069 A 
ATOM     24  C   UNL     1      -4.923 -10.307  13.606  0.00  0.00    +0.006 A 
ENDROOT
BRANCH   9   6
ATOM      3  C   UNL     1      -2.467 -10.395  11.929  0.00  0.00    +0.139 A 
ATOM      4  C   UNL     1      -2.622 -10.757  12.654  0.00  0.00    +0.037 A 
ATOM      5  C   UNL     1      -3.393 -10.781  12.947  0.00  0.00    +0.003 A 
ATOM      6  C   UNL     1      -4.009 -10.444  12.516  0.00  0.00    +0.000 A 
ATOM      7  C   UNL     1      -3.855 -10.082  11.791  0.00  0.00    +0.003 A 
ATOM      8  C   UNL     1      -3.085 -10.058  11.498  0.00  0.00    +0.037 A 
BRANCH   3   2
ATOM      1  C   UNL     1      -1.248  -9.683  11.715  0.00  0.00    +0.252 C 
ATOM      2  O   UNL     1      -1.697 -10.370  11.636  0.00  0.00    -0.471 OA
ENDBRANCH   3   2
ENDBRANCH   9   6
BRANCH  17  25
ATOM     25  N   UNL     1      -8.418 -10.228  15.792  0.00  0.00    -0.187 NA
ATOM     26  C   UNL     1      -8.789 -10.042  16.505  0.00  0.00    +0.339 C 
ATOM     27  O   UNL     1      -8.342  -9.777  17.146  0.00  0.00    -0.249 OA
ATOM     28  N   UNL     1      -9.607 -10.123  16.577  0.00  0.00    -0.189 NA
BRANCH  28  29
ATOM     29  C   UNL     1      -9.978  -9.937  17.291  0.00  0.00    +0.097 C 
ATOM     30  C   UNL     1     -10.092 -10.523  17.860  0.00  0.00    +0.022 C 
ATOM     31  C   UNL     1     -10.463 -10.338  18.574  0.00  0.00    +0.002 C 
ATOM     32  C   UNL     1     -10.720  -9.568  18.717  0.00  0.00    +0.000 C 
ATOM     33  C   UNL     1     -10.605  -8.981  18.148  0.00  0.00    +0.002 C 
ATOM     34  C   UNL     1     -10.234  -9.167  17.434  0.00  0.00    +0.022 C 
ENDBRANCH  28  29
ENDBRANCH  17  25
TORSDOF 4
ENDMDL
