MODEL 1
REMARK VINA RESULT:     -11.2      0.000      0.000
REMARK  Name = 
REMARK  6 active torsions:
REMARK  status: ('A' for Active; 'I' for Inactive)
REMARK    1  A    between atoms: O_2  and  C_3
REMARK    2  A    between atoms: C_3  and  C_5
REMARK    3  A    between atoms: C_5  and  N_7
REMARK    4  A    between atoms: C_8  and  C_10
REMARK    5  A    between atoms: C_16  and  C_18
REMARK    6  A    between atoms: C_24  and  C_26
REMARK                            x       y       z     vdW  Elec       q    Type
REMARK                         _______ _______ _______ _____ _____    ______ ____
ROOT
ATOM     10  C   UNL     1      -3.606   1.362  24.767  0.00  0.00    +0.174 C 
ATOM     11  C   UNL     1      -3.031   1.950  24.717  0.00  0.00    +0.123 C 
ATOM     12  N   UNL     1      -2.231   1.748  24.717  0.00  0.00    -0.276 N 
ATOM     13  C   UNL     1      -2.007   0.956  24.767  0.00  0.00    +0.115 C 
ATOM     14  C   UNL     1      -2.582   0.366  24.817  0.00  0.00    +0.115 C 
ATOM     15  N   UNL     1      -3.382   0.569  24.817  0.00  0.00    -0.270 N 
ATOM     16  C   UNL     1      -3.957  -0.021  24.866  0.00  0.00    +0.226 C 
ATOM     17  O   UNL     1      -4.757   0.183  24.866  0.00  0.00    -0.275 OA
ATOM     24  C   UNL     1      -1.656   2.337  24.667  0.00  0.00    +0.225 C 
ATOM     25  O   UNL     1      -1.881   3.130  24.617  0.00  0.00    -0.275 OA
ENDROOT
BRANCH  16  18
ATOM     18  C   UNL     1      -3.733  -0.812  24.916  0.00  0.00    +0.077 C 
ATOM     19  C   UNL     1      -3.527  -1.138  25.647  0.00  0.00    +0.009 C 
ATOM     20  C   UNL     1      -3.303  -1.930  25.697  0.00  0.00    +0.000 C 
ATOM     21  C   UNL     1      -3.285  -2.397  25.016  0.00  0.00    +0.000 C 
ATOM     22  C   UNL     1      -3.490  -2.072  24.287  0.00  0.00    +0.000 C 
ATOM     23  C   UNL     1      -3.715  -1.279  24.237  0.00  0.00    +0.009 C 
ENDBRANCH  16  18
BRANCH  24  26
ATOM     26  C   UNL     1      -0.856   2.134  24.668  0.00  0.00    +0.080 C 
ATOM     27  C   UNL     1      -0.491   1.895  23.969  0.00  0.00    +0.028 C 
ATOM     28  C   UNL     1       0.308   1.692  23.969  0.00  0.00    +0.089 C 
ATOM     29  N   UNL     1       0.743   1.730  24.670  0.00  0.00    -0.218 NA
ATOM     30  C   UNL     1       0.378   1.969  25.370  0.00  0.00    +0.089 C 
ATOM     31  C   UNL     1      -0.422   2.171  25.368  0.00  0.00    +0.028 C 
ENDBRANCH  24  26
BRANCH  10   8
ATOM      7  N   UNL     1      -4.694   2.112  25.312  0.00  0.00    -0.194 NA
ATOM      8  C   UNL     1      -4.406   1.564  24.767  0.00  0.00    +0.262 C 
ATOM      9  O   UNL     1      -4.919   1.218  24.219  0.00  0.00    -0.271 OA
BRANCH   7   5
ATOM      5  C   UNL     1      -5.494   2.314  25.312  0.00  0.00    +0.194 C 
ATOM      6  C   UNL     1      -6.033   1.862  24.880  0.00  0.00    +0.035 C 
BRANCH   5   3
ATOM      3  C   UNL     1      -5.754   2.967  25.742  0.00  0.00    +0.337 C 
ATOM      4  O   UNL     1      -5.933   2.888  26.544  0.00  0.00    -0.248 OA
BRANCH   3   2
ATOM      1  C   UNL     1      -5.897   4.386  25.824  0.00  0.00    +0.256 C 
ATOM      2  O   UNL     1      -5.837   3.700  25.372  0.00  0.00    -0.443 OA
ENDBRANCH   3   2
ENDBRANCH   5   3
ENDBRANCH   7   5
ENDBRANCH  10   8
TORSDOF 6
ENDMDL
MODEL 2
REMARK VINA RESULT:     -11.0      1.396      4.253
REMARK  Name = 
REMARK  6 active torsions:
REMARK  status: ('A' for Active; 'I' for Inactive)
REMARK    1  A    between atoms: O_2  and  C_3
REMARK    2  A    between atoms: C_3  and  C_5
REMARK    3  A    between atoms: C_5  and  N_7
REMARK    4  A    between atoms: C_8  and  C_10
REMARK    5  A    between atoms: C_16  and  C_18
REMARK    6  A    between atoms: C_24  and  C_26
REMARK                            x       y       z     vdW  Elec       q    Type
REMARK                         _______ _______ _______ _____ _____    ______ ____
ROOT
ATOM     10  C   UNL     1      -2.696   1.238  24.549  0.00  0.00    +0.174 C 
ATOM     11  C   UNL     1      -2.370   0.488  24.447  0.00  0.00    +0.123 C 
ATOM     12  N   UNL     1      -2.837  -0.184  24.549  0.00  0.00    -0.276 N 
ATOM     13  C   UNL     1      -3.633  -0.105  24.753  0.00  0.00    +0.115 C 
ATOM     14  C   UNL     1      -3.960   0.645  24.856  0.00  0.00    +0.115 C 
ATOM     15  N   UNL     1      -3.492   1.317  24.754  0.00  0.00    -0.270 N 
ATOM     16  C   UNL     1      -3.819   2.067  24.857  0.00  0.00    +0.226 C 
ATOM     17  O   UNL     1      -3.351   2.739  24.755  0.00  0.00    -0.275 OA
ATOM     24  C   UNL     1      -2.511  -0.934  24.446  0.00  0.00    +0.225 C 
ATOM     25  O   UNL     1      -1.714  -1.013  24.241  0.00  0.00    -0.275 OA
ENDROOT
BRANCH  16  18
ATOM     18  C   UNL     1      -4.614   2.146  25.061  0.00  0.00    +0.077 C 
ATOM     19  C   UNL     1      -4.823   2.363  25.830  0.00  0.00    +0.009 C 
ATOM     20  C   UNL     1      -5.618   2.442  26.034  0.00  0.00    +0.000 C 
ATOM     21  C   UNL     1      -6.204   2.304  25.470  0.00  0.00    +0.000 C 
ATOM     22  C   UNL     1      -5.996   2.087  24.702  0.00  0.00    +0.000 C 
ATOM     23  C   UNL     1      -5.201   2.008  24.498  0.00  0.00    +0.009 C 
ENDBRANCH  16  18
BRANCH  24  26
ATOM     26  C   UNL     1      -2.978  -1.606  24.548  0.00  0.00    +0.080 C 
ATOM     27  C   UNL     1      -2.963  -2.016  25.263  0.00  0.00    +0.028 C 
ATOM     28  C   UNL     1      -3.430  -2.687  25.364  0.00  0.00    +0.089 C 
ATOM     29  N   UNL     1      -3.914  -2.949  24.750  0.00  0.00    -0.218 NA
ATOM     30  C   UNL     1      -3.930  -2.540  24.034  0.00  0.00    +0.089 C 
ATOM     31  C   UNL     1      -3.462  -1.869  23.933  0.00  0.00    +0.028 C 
ENDBRANCH  24  26
BRANCH  10   8
ATOM      7  N   UNL     1      -1.560   2.023  24.917  0.00  0.00    -0.194 NA
ATOM      8  C   UNL     1      -2.229   1.910  24.448  0.00  0.00    +0.262 C 
ATOM      9  O   UNL     1      -2.431   2.470  23.875  0.00  0.00    -0.271 OA
BRANCH   7   5
ATOM      5  C   UNL     1      -1.093   2.695  24.815  0.00  0.00    +0.194 C 
ATOM      6  C   UNL     1      -1.099   3.097  24.093  0.00  0.00    +0.035 C 
BRANCH   5   3
ATOM      3  C   UNL     1      -0.619   2.966  25.433  0.00  0.00    +0.337 C 
ATOM      4  O   UNL     1      -0.601   3.770  25.617  0.00  0.00    -0.248 OA
BRANCH   3   2
ATOM      1  C   UNL     1       0.238   2.688  26.542  0.00  0.00    +0.256 C 
ATOM      2  O   UNL     1      -0.162   2.434  25.867  0.00  0.00    -0.443 OA
ENDBRANCH   3   2
ENDBRANCH   5   3
ENDBRANCH   7   5
ENDBRANCH  10   8
TORSDOF 6
ENDMDL
MODEL 3
REMARK VINA RESULT:     -11.0      1.275      4.074
REMARK  Name = 
REMARK  6 active torsions:
REMARK  status: ('A' for Active; 'I' for Inactive)
REMARK    1  A    between atoms: O_2  and  C_3
REMARK    2  A    between atoms: C_3  and  C_5
REMARK    3  A    between atoms: C_5  and  N_7
REMARK    4  A    between atoms: C_8  and  C_10
REMARK    5  A    between atoms: C_16  and  C_18
REMARK    6  A    between atoms: C_24  and  C_26
REMARK                            x       y       z     vdW  Elec       q    Type
REMARK                         _______ _______ _______ _____ _____    ______ ____
ROOT
ATOM     10  C   UNL     1      -2.653   0.975  24.566  0.00  0.00    +0.174 C 
ATOM     11  C   UNL     1      -3.106   1.658  24.659  0.00  0.00    +0.123 C 
ATOM     12  N   UNL     1      -3.902   1.602  24.868  0.00  0.00    -0.276 N 
ATOM     13  C   UNL     1      -4.245   0.861  24.985  0.00  0.00    +0.115 C 
ATOM     14  C   UNL     1      -3.793   0.176  24.893  0.00  0.00    +0.115 C 
ATOM     15  N   UNL     1      -2.997   0.234  24.683  0.00  0.00    -0.270 N 
ATOM     16  C   UNL     1      -2.544  -0.450  24.591  0.00  0.00    +0.226 C 
ATOM     17  O   UNL     1      -1.749  -0.392  24.381  0.00  0.00    -0.275 OA
ATOM     24  C   UNL     1      -4.354   2.285  24.960  0.00  0.00    +0.225 C 
ATOM     25  O   UNL     1      -4.010   3.026  24.843  0.00  0.00    -0.275 OA
ENDROOT
BRANCH  16  18
ATOM     18  C   UNL     1      -2.888  -1.190  24.708  0.00  0.00    +0.077 C 
ATOM     19  C   UNL     1      -3.262  -1.575  24.081  0.00  0.00    +0.009 C 
ATOM     20  C   UNL     1      -3.606  -2.316  24.198  0.00  0.00    +0.000 C 
ATOM     21  C   UNL     1      -3.575  -2.672  24.942  0.00  0.00    +0.000 C 
ATOM     22  C   UNL     1      -3.201  -2.287  25.568  0.00  0.00    +0.000 C 
ATOM     23  C   UNL     1      -2.857  -1.547  25.451  0.00  0.00    +0.009 C 
ENDBRANCH  16  18
BRANCH  24  26
ATOM     26  C   UNL     1      -5.150   2.228  25.170  0.00  0.00    +0.080 C 
ATOM     27  C   UNL     1      -5.715   2.037  24.600  0.00  0.00    +0.028 C 
ATOM     28  C   UNL     1      -6.510   1.981  24.810  0.00  0.00    +0.089 C 
ATOM     29  N   UNL     1      -6.741   2.116  25.591  0.00  0.00    -0.218 NA
ATOM     30  C   UNL     1      -6.177   2.307  26.161  0.00  0.00    +0.089 C 
ATOM     31  C   UNL     1      -5.381   2.363  25.950  0.00  0.00    +0.028 C 
ENDBRANCH  24  26
BRANCH  10   8
ATOM      7  N   UNL     1      -1.333   1.452  24.834  0.00  0.00    -0.194 NA
ATOM      8  C   UNL     1      -1.857   1.032  24.357  0.00  0.00    +0.262 C 
ATOM      9  O   UNL     1      -1.585   0.666  23.667  0.00  0.00    -0.271 OA
BRANCH   7   5
ATOM      5  C   UNL     1      -0.537   1.508  24.625  0.00  0.00    +0.194 C 
ATOM      6  C   UNL     1      -0.283   1.226  23.891  0.00  0.00    +0.035 C 
BRANCH   5   3
ATOM      3  C   UNL     1       0.004   1.846  25.147  0.00  0.00    +0.337 C 
ATOM      4  O   UNL     1       0.777   1.995  24.900  0.00  0.00    -0.248 OA
BRANCH   3   2
ATOM      1  C   UNL     1       0.251   2.519  26.383  0.00  0.00    +0.256 C 
ATOM      2  O   UNL     1      -0.226   2.035  25.916  0.00  0.00    -0.443 OA
ENDBRANCH   3   2
ENDBRANCH   5   3
ENDBRANCH   7   5
ENDBRANCH  10   8
TORSDOF 6
ENDMDL
MODEL 4
REMARK VINA RESULT:     -10.7      1.126      3.576
REMARK  Name = 
REMARK  6 active torsions:
REMARK  status: ('A' for Active; 'I' for Inactive)
REMARK    1  A    between atoms: O_2  and  C_3
REMARK    2  A    between atoms: C_3  and  C_5
REMARK    3  A    between atoms: C_5  and  N_7
REMARK    4  A    between atoms: C_8  and  C_10
REMARK    5  A    between atoms: C_16  and  C_18
REMARK    6  A    between atoms: C_24  and  C_26
REMARK                            x       y       z     vdW  Elec       q    Type
REMARK                         _______ _______ _______ _____ _____    ______ ____
ROOT
ATOM     10  C   UNL     1      -3.298   1.340  24.273  0.00  0.00    +0.174 C 
ATOM     11  C   UNL     1      -3.837   0.718  24.318  0.00  0.00    +0.123 C 
ATOM     12  N   UNL     1      -3.569  -0.053  24.438  0.00  0.00    -0.276 N 
ATOM     13  C   UNL     1      -2.761  -0.202  24.514  0.00  0.00    +0.115 C 
ATOM     14  C   UNL     1      -2.221   0.421  24.469  0.00  0.00    +0.115 C 
ATOM     15  N   UNL     1      -2.490   1.191  24.349  0.00  0.00    -0.270 N 
ATOM     16  C   UNL     1      -1.949   1.814  24.304  0.00  0.00    +0.226 C 
ATOM     17  O   UNL     1      -2.218   2.585  24.184  0.00  0.00    -0.275 OA
ATOM     24  C   UNL     1      -4.108  -0.675  24.483  0.00  0.00    +0.225 C 
ATOM     25  O   UNL     1      -4.917  -0.527  24.408  0.00  0.00    -0.275 OA
ENDROOT
BRANCH  16  18
ATOM     18  C   UNL     1      -1.142   1.666  24.379  0.00  0.00    +0.077 C 
ATOM     19  C   UNL     1      -0.763   1.800  25.101  0.00  0.00    +0.009 C 
ATOM     20  C   UNL     1       0.045   1.651  25.176  0.00  0.00    +0.000 C 
ATOM     21  C   UNL     1       0.474   1.369  24.530  0.00  0.00    +0.000 C 
ATOM     22  C   UNL     1       0.096   1.235  23.810  0.00  0.00    +0.000 C 
ATOM     23  C   UNL     1      -0.712   1.384  23.734  0.00  0.00    +0.009 C 
ENDBRANCH  16  18
BRANCH  24  26
ATOM     26  C   UNL     1      -3.841  -1.447  24.603  0.00  0.00    +0.080 C 
ATOM     27  C   UNL     1      -3.818  -1.979  23.974  0.00  0.00    +0.028 C 
ATOM     28  C   UNL     1      -3.551  -2.749  24.095  0.00  0.00    +0.089 C 
ATOM     29  N   UNL     1      -3.305  -2.988  24.845  0.00  0.00    -0.218 NA
ATOM     30  C   UNL     1      -3.327  -2.456  25.476  0.00  0.00    +0.089 C 
ATOM     31  C   UNL     1      -3.595  -1.685  25.354  0.00  0.00    +0.028 C 
ENDBRANCH  24  26
BRANCH  10   8
ATOM      7  N   UNL     1      -4.019   2.486  24.731  0.00  0.00    -0.194 NA
ATOM      8  C   UNL     1      -3.565   2.111  24.153  0.00  0.00    +0.262 C 
ATOM      9  O   UNL     1      -3.379   2.508  23.453  0.00  0.00    -0.271 OA
BRANCH   7   5
ATOM      5  C   UNL     1      -4.286   3.257  24.611  0.00  0.00    +0.194 C 
ATOM      6  C   UNL     1      -4.180   3.621  23.877  0.00  0.00    +0.035 C 
BRANCH   5   3
ATOM      3  C   UNL     1      -4.659   3.665  25.222  0.00  0.00    +0.337 C 
ATOM      4  O   UNL     1      -4.214   4.117  25.748  0.00  0.00    -0.248 OA
BRANCH   3   2
ATOM      1  C   UNL     1      -5.876   4.178  25.768  0.00  0.00    +0.256 C 
ATOM      2  O   UNL     1      -5.479   3.620  25.309  0.00  0.00    -0.443 OA
ENDBRANCH   3   2
ENDBRANCH   5   3
ENDBRANCH   7   5
ENDBRANCH  10   8
TORSDOF 6
ENDMDL
MODEL 5
REMARK VINA RESULT:     -10.6      1.313      3.612
REMARK  Name = 
REMARK  6 active torsions:
REMARK  status: ('A' for Active; 'I' for Inactive)
REMARK    1  A    between atoms: O_2  and  C_3
REMARK    2  A    between atoms: C_3  and  C_5
REMARK    3  A    between atoms: C_5  and  N_7
REMARK    4  A    between atoms: C_8  and  C_10
REMARK    5  A    between atoms: C_16  and  C_18
REMARK    6  A    between atoms: C_24  and  C_26
REMARK                            x       y       z     vdW  Elec       q    Type
REMARK                         _______ _______ _______ _____ _____    ______ ____
ROOT
ATOM     10  C   UNL     1      -2.987   0.585  24.558  0.00  0.00    +0.174 C 
ATOM     11  C   UNL     1      -2.165   0.565  24.611  0.00  0.00    +0.123 C 
ATOM     12  N   UNL     1      -1.752   1.223  24.889  0.00  0.00    -0.276 N 
ATOM     13  C   UNL     1      -2.163   1.902  25.114  0.00  0.00    +0.115 C 
ATOM     14  C   UNL     1      -2.987   1.923  25.061  0.00  0.00    +0.115 C 
ATOM     15  N   UNL     1      -3.398   1.264  24.783  0.00  0.00    -0.270 N 
ATOM     16  C   UNL     1      -4.222   1.285  24.730  0.00  0.00    +0.226 C 
ATOM     17  O   UNL     1      -4.633   0.626  24.452  0.00  0.00    -0.275 OA
ATOM     24  C   UNL     1      -0.930   1.203  24.942  0.00  0.00    +0.225 C 
ATOM     25  O   UNL     1      -0.518   0.523  24.717  0.00  0.00    -0.275 OA
ENDROOT
BRANCH  16  18
ATOM     18  C   UNL     1      -4.633   1.963  24.954  0.00  0.00    +0.077 C 
ATOM     19  C   UNL     1      -4.620   2.633  24.471  0.00  0.00    +0.009 C 
ATOM     20  C   UNL     1      -5.031   3.312  24.696  0.00  0.00    +0.000 C 
ATOM     21  C   UNL     1      -5.455   3.321  25.404  0.00  0.00    +0.000 C 
ATOM     22  C   UNL     1      -5.467   2.653  25.887  0.00  0.00    +0.000 C 
ATOM     23  C   UNL     1      -5.056   1.974  25.662  0.00  0.00    +0.009 C 
ENDBRANCH  16  18
BRANCH  24  26
ATOM     26  C   UNL     1      -0.517   1.861  25.221  0.00  0.00    +0.080 C 
ATOM     27  C   UNL     1      -0.284   2.454  24.697  0.00  0.00    +0.028 C 
ATOM     28  C   UNL     1       0.128   3.111  24.975  0.00  0.00    +0.089 C 
ATOM     29  N   UNL     1       0.308   3.176  25.778  0.00  0.00    -0.218 NA
ATOM     30  C   UNL     1       0.074   2.584  26.302  0.00  0.00    +0.089 C 
ATOM     31  C   UNL     1      -0.338   1.926  26.023  0.00  0.00    +0.028 C 
ENDBRANCH  24  26
BRANCH  10   8
ATOM      7  N   UNL     1      -3.360  -0.788  24.688  0.00  0.00    -0.194 NA
ATOM      8  C   UNL     1      -3.400  -0.073  24.280  0.00  0.00    +0.262 C 
ATOM      9  O   UNL     1      -3.854  -0.015  23.592  0.00  0.00    -0.271 OA
BRANCH   7   5
ATOM      5  C   UNL     1      -3.772  -1.447  24.410  0.00  0.00    +0.194 C 
ATOM      6  C   UNL     1      -4.321  -1.361  23.798  0.00  0.00    +0.035 C 
BRANCH   5   3
ATOM      3  C   UNL     1      -3.638  -2.189  24.742  0.00  0.00    +0.337 C 
ATOM      4  O   UNL     1      -3.671  -2.287  25.560  0.00  0.00    -0.248 OA
BRANCH   3   2
ATOM      1  C   UNL     1      -3.245  -3.555  24.589  0.00  0.00    +0.256 C 
ATOM      2  O   UNL     1      -3.469  -2.835  24.256  0.00  0.00    -0.443 OA
ENDBRANCH   3   2
ENDBRANCH   5   3
ENDBRANCH   7   5
ENDBRANCH  10   8
TORSDOF 6
ENDMDL
MODEL 6
REMARK VINA RESULT:     -10.4      2.055      4.386
REMARK  Name = 
REMARK  6 active torsions:
REMARK  status: ('A' for Active; 'I' for Inactive)
REMARK    1  A    between atoms: O_2  and  C_3
REMARK    2  A    between atoms: C_3  and  C_5
REMARK    3  A    between atoms: C_5  and  N_7
REMARK    4  A    between atoms: C_8  and  C_10
REMARK    5  A    between atoms: C_16  and  C_18
REMARK    6  A    between atoms: C_24  and  C_26
REMARK                            x       y       z     vdW  Elec       q    Type
REMARK                         _______ _______ _______ _____ _____    ______ ____
ROOT
ATOM     10  C   UNL     1      -1.373   0.513  24.460  0.00  0.00    +0.174 C 
ATOM     11  C   UNL     1      -1.380   1.337  24.486  0.00  0.00    +0.123 C 
ATOM     12  N   UNL     1      -2.093   1.741  24.584  0.00  0.00    -0.276 N 
ATOM     13  C   UNL     1      -2.799   1.320  24.655  0.00  0.00    +0.115 C 
ATOM     14  C   UNL     1      -2.792   0.495  24.629  0.00  0.00    +0.115 C 
ATOM     15  N   UNL     1      -2.078   0.092  24.531  0.00  0.00    -0.270 N 
ATOM     16  C   UNL     1      -2.071  -0.733  24.505  0.00  0.00    +0.226 C 
ATOM     17  O   UNL     1      -1.358  -1.136  24.408  0.00  0.00    -0.275 OA
ATOM     24  C   UNL     1      -2.100   2.565  24.610  0.00  0.00    +0.225 C 
ATOM     25  O   UNL     1      -1.394   2.987  24.538  0.00  0.00    -0.275 OA
ENDROOT
BRANCH  16  18
ATOM     18  C   UNL     1      -2.776  -1.154  24.577  0.00  0.00    +0.077 C 
ATOM     19  C   UNL     1      -3.007  -1.451  25.312  0.00  0.00    +0.009 C 
ATOM     20  C   UNL     1      -3.713  -1.872  25.383  0.00  0.00    +0.000 C 
ATOM     21  C   UNL     1      -4.188  -1.996  24.720  0.00  0.00    +0.000 C 
ATOM     22  C   UNL     1      -3.957  -1.700  23.986  0.00  0.00    +0.000 C 
ATOM     23  C   UNL     1      -3.252  -1.279  23.914  0.00  0.00    +0.009 C 
ENDBRANCH  16  18
BRANCH  24  26
ATOM     26  C   UNL     1      -2.813   2.969  24.707  0.00  0.00    +0.080 C 
ATOM     27  C   UNL     1      -3.290   3.128  24.054  0.00  0.00    +0.028 C 
ATOM     28  C   UNL     1      -4.002   3.532  24.152  0.00  0.00    +0.089 C 
ATOM     29  N   UNL     1      -4.237   3.777  24.904  0.00  0.00    -0.218 NA
ATOM     30  C   UNL     1      -3.761   3.618  25.558  0.00  0.00    +0.089 C 
ATOM     31  C   UNL     1      -3.048   3.214  25.459  0.00  0.00    +0.028 C 
ENDBRANCH  24  26
BRANCH  10   8
ATOM      7  N   UNL     1      -0.223   0.203  23.669  0.00  0.00    -0.194 NA
ATOM      8  C   UNL     1      -0.660   0.109  24.362  0.00  0.00    +0.262 C 
ATOM      9  O   UNL     1      -0.384  -0.390  24.959  0.00  0.00    -0.271 OA
BRANCH   7   5
ATOM      5  C   UNL     1       0.490  -0.201  23.572  0.00  0.00    +0.194 C 
ATOM      6  C   UNL     1       0.729  -0.757  24.134  0.00  0.00    +0.035 C 
BRANCH   5   3
ATOM      3  C   UNL     1       0.963  -0.050  22.914  0.00  0.00    +0.337 C 
ATOM      4  O   UNL     1       0.696  -0.249  22.159  0.00  0.00    -0.248 OA
BRANCH   3   2
ATOM      1  C   UNL     1       2.286   0.200  22.435  0.00  0.00    +0.256 C 
ATOM      2  O   UNL     1       1.704   0.301  23.010  0.00  0.00    -0.443 OA
ENDBRANCH   3   2
ENDBRANCH   5   3
ENDBRANCH   7   5
ENDBRANCH  10   8
TORSDOF 6
ENDMDL
MODEL 7
REMARK VINA RESULT:     -10.0      1.536      3.378
REMARK  Name = 
REMARK  6 active torsions:
REMARK  status: ('A' for Active; 'I' for Inactive)
REMARK    1  A    between atoms: O_2  and  C_3
REMARK    2  A    between atoms: C_3  and  C_5
REMARK    3  A    between atoms: C_5  and  N_7
REMARK    4  A    between atoms: C_8  and  C_10
REMARK    5  A    between atoms: C_16  and  C_18
REMARK    6  A    between atoms: C_24  and  C_26
REMARK                            x       y       z     vdW  Elec       q    Type
REMARK                         _______ _______ _______ _____ _____    ______ ____
ROOT
ATOM     10  C   UNL     1      -3.238   1.572  24.735  0.00  0.00    +0.174 C 
ATOM     11  C   UNL     1      -3.184   0.749  24.739  0.00  0.00    +0.123 C 
ATOM     12  N   UNL     1      -2.448   0.384  24.818  0.00  0.00    -0.276 N 
ATOM     13  C   UNL     1      -1.766   0.843  24.893  0.00  0.00    +0.115 C 
ATOM     14  C   UNL     1      -1.820   1.666  24.888  0.00  0.00    +0.115 C 
ATOM     15  N   UNL     1      -2.556   2.030  24.809  0.00  0.00    -0.270 N 
ATOM     16  C   UNL     1      -2.610   2.854  24.805  0.00  0.00    +0.226 C 
ATOM     17  O   UNL     1      -3.346   3.218  24.725  0.00  0.00    -0.275 OA
ATOM     24  C   UNL     1      -2.394  -0.439  24.823  0.00  0.00    +0.225 C 
ATOM     25  O   UNL     1      -3.076  -0.898  24.748  0.00  0.00    -0.275 OA
ENDROOT
BRANCH  16  18
ATOM     18  C   UNL     1      -1.929   3.312  24.879  0.00  0.00    +0.077 C 
ATOM     19  C   UNL     1      -1.731   3.642  25.610  0.00  0.00    +0.009 C 
ATOM     20  C   UNL     1      -1.050   4.101  25.684  0.00  0.00    +0.000 C 
ATOM     21  C   UNL     1      -0.566   4.230  25.028  0.00  0.00    +0.000 C 
ATOM     22  C   UNL     1      -0.763   3.900  24.299  0.00  0.00    +0.000 C 
ATOM     23  C   UNL     1      -1.445   3.442  24.224  0.00  0.00    +0.009 C 
ENDBRANCH  16  18
BRANCH  24  26
ATOM     26  C   UNL     1      -1.658  -0.804  24.902  0.00  0.00    +0.080 C 
ATOM     27  C   UNL     1      -1.382  -1.019  25.648  0.00  0.00    +0.028 C 
ATOM     28  C   UNL     1      -0.647  -1.384  25.727  0.00  0.00    +0.089 C 
ATOM     29  N   UNL     1      -0.188  -1.534  25.058  0.00  0.00    -0.218 NA
ATOM     30  C   UNL     1      -0.463  -1.319  24.311  0.00  0.00    +0.089 C 
ATOM     31  C   UNL     1      -1.199  -0.954  24.233  0.00  0.00    +0.028 C 
ENDBRANCH  24  26
BRANCH  10   8
ATOM      7  N   UNL     1      -4.548   1.839  25.238  0.00  0.00    -0.194 NA
ATOM      8  C   UNL     1      -3.974   1.937  24.655  0.00  0.00    +0.262 C 
ATOM      9  O   UNL     1      -4.134   2.402  23.991  0.00  0.00    -0.271 OA
BRANCH   7   5
ATOM      5  C   UNL     1      -5.284   2.205  25.159  0.00  0.00    +0.194 C 
ATOM      6  C   UNL     1      -5.539   2.462  24.417  0.00  0.00    +0.035 C 
BRANCH   5   3
ATOM      3  C   UNL     1      -5.765   2.312  25.820  0.00  0.00    +0.337 C 
ATOM      4  O   UNL     1      -5.813   3.054  26.178  0.00  0.00    -0.248 OA
BRANCH   3   2
ATOM      1  C   UNL     1      -6.603   1.760  26.837  0.00  0.00    +0.256 C 
ATOM      2  O   UNL     1      -6.198   1.679  26.124  0.00  0.00    -0.443 OA
ENDBRANCH   3   2
ENDBRANCH   5   3
ENDBRANCH   7   5
ENDBRANCH  10   8
TORSDOF 6
ENDMDL
