MODEL 1
REMARK VINA RESULT:     -13.3      0.000      0.000
REMARK  Name = 
REMARK  3 active torsions:
REMARK  status: ('A' for Active; 'I' for Inactive)
REMARK    1  A    between atoms: C_7  and  C_8
REMARK    2  A    between atoms: C_8  and  N_9
REMARK    3  A    between atoms: C_12  and  C_14
REMARK                            x       y       z     vdW  Elec       q    Type
REMARK                         _______ _______ _______ _____ _____    ______ ____
ROOT
ATOM      9  N   UNL     1      -4.073   0.638  24.529  0.00  0.00    -0.268 NA
ATOM     10  C   UNL     1      -4.651   1.086  24.911  0.00  0.00    +0.073 C 
ATOM     11  C   UNL     1      -4.323   1.821  25.097  0.00  0.00    +0.028 C 
ATOM     12  C   UNL     1      -3.542   1.826  24.829  0.00  0.00    +0.094 C 
ATOM     13  C   UNL     1      -3.388   1.096  24.478  0.00  0.00    +0.082 C 
ENDROOT
BRANCH  12  14
ATOM     14  C   UNL     1      -3.010   2.452  24.900  0.00  0.00    +0.207 A 
ATOM     15  N   UNL     1      -3.203   3.236  25.068  0.00  0.00    -0.212 NA
ATOM     16  C   UNL     1      -2.503   3.672  25.087  0.00  0.00    +0.121 A 
ATOM     17  C   UNL     1      -1.877   3.158  24.930  0.00  0.00    +0.165 A 
ATOM     18  O   UNL     1      -2.190   2.404  24.815  0.00  0.00    -0.438 OA
ATOM     19  C   UNL     1      -1.104   3.444  24.914  0.00  0.00    +0.041 A 
ATOM     20  C   UNL     1      -0.955   4.242  25.053  0.00  0.00    +0.033 A 
ATOM     21  C   UNL     1      -1.581   4.757  25.209  0.00  0.00    +0.142 A 
ATOM     22  F   UNL     1      -1.433   5.556  25.349  0.00  0.00    -0.204 F 
ATOM     23  C   UNL     1      -2.355   4.472  25.226  0.00  0.00    +0.052 A 
ENDBRANCH  12  14
BRANCH   9   8
ATOM      8  C   UNL     1      -4.164  -0.131  24.247  0.00  0.00    +0.099 C 
BRANCH   8   7
ATOM      1  C   UNL     1      -4.122  -1.645  23.590  0.00  0.00    +0.031 C 
ATOM      2  C   UNL     1      -3.878  -1.526  24.368  0.00  0.00    -0.024 A 
ATOM      3  C   UNL     1      -3.611  -2.164  24.819  0.00  0.00    -0.005 A 
ATOM      4  C   UNL     1      -3.367  -2.046  25.597  0.00  0.00    -0.000 A 
ATOM      5  C   UNL     1      -3.387  -1.290  25.926  0.00  0.00    -0.000 A 
ATOM      6  C   UNL     1      -3.653  -0.651  25.476  0.00  0.00    -0.003 A 
ATOM      7  C   UNL     1      -3.898  -0.770  24.697  0.00  0.00    -0.010 A 
ENDBRANCH   8   7
ENDBRANCH   9   8
TORSDOF 3
ENDMDL
MODEL 2
REMARK VINA RESULT:     -13.0      2.226      5.045
REMARK  Name = 
REMARK  3 active torsions:
REMARK  status: ('A' for Active; 'I' for Inactive)
REMARK    1  A    between atoms: C_7  and  C_8
REMARK    2  A    between atoms: C_8  and  N_9
REMARK    3  A    between atoms: C_12  and  C_14
REMARK                            x       y       z     vdW  Elec       q    Type
REMARK                         _______ _______ _______ _____ _____    ______ ____
ROOT
ATOM      9  N   UNL     1      -3.649   2.203  24.115  0.00  0.00    -0.268 NA
ATOM     10  C   UNL     1      -3.181   2.051  23.453  0.00  0.00    +0.073 C 
ATOM     11  C   UNL     1      -3.096   1.233  23.383  0.00  0.00    +0.028 C 
ATOM     12  C   UNL     1      -3.512   0.880  24.002  0.00  0.00    +0.094 C 
ATOM     13  C   UNL     1      -3.854   1.479  24.454  0.00  0.00    +0.082 C 
ENDROOT
BRANCH  12  14
ATOM     14  C   UNL     1      -3.575   0.069  24.144  0.00  0.00    +0.207 A 
ATOM     15  N   UNL     1      -3.257  -0.336  24.788  0.00  0.00    -0.212 NA
ATOM     16  C   UNL     1      -3.452  -1.133  24.709  0.00  0.00    +0.121 A 
ATOM     17  C   UNL     1      -3.891  -1.221  24.016  0.00  0.00    +0.165 A 
ATOM     18  O   UNL     1      -3.967  -0.478  23.667  0.00  0.00    -0.438 OA
ATOM     19  C   UNL     1      -4.164  -1.967  23.792  0.00  0.00    +0.041 A 
ATOM     20  C   UNL     1      -3.999  -2.624  24.261  0.00  0.00    +0.033 A 
ATOM     21  C   UNL     1      -3.561  -2.537  24.955  0.00  0.00    +0.142 A 
ATOM     22  F   UNL     1      -3.395  -3.194  25.425  0.00  0.00    -0.204 F 
ATOM     23  C   UNL     1      -3.287  -1.792  25.179  0.00  0.00    +0.052 A 
ENDBRANCH  12  14
BRANCH   9   8
ATOM      8  C   UNL     1      -3.874   2.948  24.389  0.00  0.00    +0.099 C 
BRANCH   8   7
ATOM      1  C   UNL     1      -4.555   3.729  25.673  0.00  0.00    +0.031 C 
ATOM      2  C   UNL     1      -3.737   3.740  25.570  0.00  0.00    -0.024 A 
ATOM      3  C   UNL     1      -3.259   4.143  26.110  0.00  0.00    -0.005 A 
ATOM      4  C   UNL     1      -2.441   4.154  26.007  0.00  0.00    -0.000 A 
ATOM      5  C   UNL     1      -2.100   3.763  25.365  0.00  0.00    -0.000 A 
ATOM      6  C   UNL     1      -2.577   3.361  24.826  0.00  0.00    -0.003 A 
ATOM      7  C   UNL     1      -3.396   3.350  24.929  0.00  0.00    -0.010 A 
ENDBRANCH   8   7
ENDBRANCH   9   8
TORSDOF 3
ENDMDL
