MODEL 1
REMARK VINA RESULT:      -9.4      0.000      0.000
REMARK  Name = 
REMARK  6 active torsions:
REMARK  status: ('A' for Active; 'I' for Inactive)
REMARK    1  A    between atoms: N_5  and  C_8
REMARK    2  A    between atoms: C_9  and  C_10
REMARK    3  A    between atoms: C_10  and  N_11
REMARK    4  A    between atoms: N_11  and  S_12
REMARK    5  A    between atoms: S_12  and  C_15
REMARK    6  A    between atoms: C_21  and  C_22
REMARK                            x       y       z     vdW  Elec       q    Type
REMARK                         _______ _______ _______ _____ _____    ______ ____
ROOT
ATOM      8  C   UNL     1      -3.023   2.287  24.862  0.00  0.00    +0.120 C 
ATOM      9  C   UNL     1      -3.605   1.703  24.861  0.00  0.00    +0.152 C 
ATOM     20  O   UNL     1      -4.331   2.066  25.013  0.00  0.00    -0.350 OA
ATOM     21  C   UNL     1      -4.197   2.874  25.109  0.00  0.00    +0.180 C 
ATOM     24  C   UNL     1      -3.388   3.011  25.016  0.00  0.00    +0.198 C 
ATOM     25  O   UNL     1      -3.011   3.743  25.067  0.00  0.00    -0.219 OA
ENDROOT
BRANCH   8   5
ATOM      1  C   UNL     1       0.201   1.812  24.345  0.00  0.00    +0.090 C 
ATOM      2  N   UNL     1      -0.605   1.930  24.474  0.00  0.00    -0.269 NA
ATOM      3  C   UNL     1      -1.105   2.088  23.838  0.00  0.00    +0.090 C 
ATOM      4  C   UNL     1      -1.911   2.206  23.968  0.00  0.00    +0.090 C 
ATOM      5  N   UNL     1      -2.217   2.168  24.733  0.00  0.00    -0.267 NA
ATOM      6  C   UNL     1      -1.715   2.010  25.369  0.00  0.00    +0.090 C 
ATOM      7  C   UNL     1      -0.909   1.892  25.240  0.00  0.00    +0.090 C 
ENDBRANCH   8   5
BRANCH  21  22
ATOM     22  C   UNL     1      -4.769   3.445  25.270  0.00  0.00    +0.214 C 
ATOM     23  O   UNL     1      -5.491   3.224  25.601  0.00  0.00    -0.218 OA
ENDBRANCH  21  22
BRANCH   9  10
ATOM     10  C   UNL     1      -3.484   0.897  24.730  0.00  0.00    +0.146 C 
BRANCH  10  11
ATOM     11  N   UNL     1      -4.119   0.372  24.777  0.00  0.00    -0.075 NA
BRANCH  11  12
ATOM     12  S   UNL     1      -3.992  -0.438  24.678  0.00  0.00    +0.083 S 
ATOM     13  O   UNL     1      -3.997  -0.539  25.497  0.00  0.00    -0.151 OA
ATOM     14  O   UNL     1      -3.987  -0.337  23.859  0.00  0.00    -0.151 OA
BRANCH  12  15
ATOM     15  C   UNL     1      -3.865  -1.246  24.578  0.00  0.00    +0.153 A 
ATOM     16  C   UNL     1      -4.160  -1.712  23.964  0.00  0.00    +0.027 A 
ATOM     17  C   UNL     1      -3.898  -2.485  24.082  0.00  0.00    +0.009 A 
ATOM     18  C   UNL     1      -3.442  -2.498  24.769  0.00  0.00    +0.037 A 
ATOM     19  S   UNL     1      -3.422  -1.733  25.076  0.00  0.00    -0.067 S 
ENDBRANCH  12  15
ENDBRANCH  11  12
ENDBRANCH  10  11
ENDBRANCH   9  10
TORSDOF 6
ENDMDL
MODEL 2
REMARK VINA RESULT:      -8.6      1.586      3.636
REMARK  Name = 
REMARK  6 active torsions:
REMARK  status: ('A' for Active; 'I' for Inactive)
REMARK    1  A    between atoms: N_5  and  C_8
REMARK    2  A    between atoms: C_9  and  C_10
REMARK    3  A    between atoms: C_10  and  N_11
REMARK    4  A    between atoms: N_11  and  S_12
REMARK    5  A    between atoms: S_12  and  C_15
REMARK    6  A    between atoms: C_21  and  C_22
REMARK                            x       y       z     vdW  Elec       q    Type
REMARK                         _______ _______ _______ _____ _____    ______ ____
ROOT
ATOM      8  C   UNL     1      -2.112  -0.438  24.685  0.00  0.00    +0.120 C 
ATOM      9  C   UNL     1      -2.927  -0.317  24.692  0.00  0.00    +0.152 C 
ATOM     20  O   UNL     1      -3.295  -1.053  24.628  0.00  0.00    -0.350 OA
ATOM     21  C   UNL     1      -2.706  -1.629  24.582  0.00  0.00    +0.180 C 
ATOM     24  C   UNL     1      -1.975  -1.249  24.617  0.00  0.00    +0.198 C 
ATOM     25  O   UNL     1      -1.236  -1.616  24.589  0.00  0.00    -0.219 OA
ENDROOT
BRANCH   8   5
ATOM      1  C   UNL     1       0.200   1.908  24.892  0.00  0.00    +0.090 C 
ATOM      2  N   UNL     1      -0.378   1.321  24.840  0.00  0.00    -0.269 NA
ATOM      3  C   UNL     1      -0.693   0.991  25.527  0.00  0.00    +0.090 C 
ATOM      4  C   UNL     1      -1.270   0.405  25.475  0.00  0.00    +0.090 C 
ATOM      5  N   UNL     1      -1.534   0.148  24.736  0.00  0.00    -0.267 NA
ATOM      6  C   UNL     1      -1.218   0.479  24.049  0.00  0.00    +0.090 C 
ATOM      7  C   UNL     1      -0.640   1.066  24.101  0.00  0.00    +0.090 C 
ENDBRANCH   8   5
BRANCH  21  22
ATOM     22  C   UNL     1      -2.827  -2.442  24.513  0.00  0.00    +0.214 C 
ATOM     23  O   UNL     1      -3.558  -2.769  24.712  0.00  0.00    -0.218 OA
ENDBRANCH  21  22
BRANCH   9  10
ATOM     10  C   UNL     1      -3.309   0.412  24.752  0.00  0.00    +0.146 C 
BRANCH  10  11
ATOM     11  N   UNL     1      -4.129   0.456  24.670  0.00  0.00    -0.075 NA
BRANCH  11  12
ATOM     12  S   UNL     1      -4.525   1.154  24.863  0.00  0.00    +0.083 S 
ATOM     13  O   UNL     1      -4.297   1.483  24.141  0.00  0.00    -0.151 OA
ATOM     14  O   UNL     1      -4.754   0.825  25.584  0.00  0.00    -0.151 OA
BRANCH  12  15
ATOM     15  C   UNL     1      -4.921   1.851  25.056  0.00  0.00    +0.153 A 
ATOM     16  C   UNL     1      -5.721   1.917  25.248  0.00  0.00    +0.027 A 
ATOM     17  C   UNL     1      -5.882   2.712  25.401  0.00  0.00    +0.009 A 
ATOM     18  C   UNL     1      -5.181   3.137  25.304  0.00  0.00    +0.037 A 
ATOM     19  S   UNL     1      -4.588   2.605  25.090  0.00  0.00    -0.067 S 
ENDBRANCH  12  15
ENDBRANCH  11  12
ENDBRANCH  10  11
ENDBRANCH   9  10
TORSDOF 6
ENDMDL
MODEL 3
REMARK VINA RESULT:      -8.5      2.264      3.214
REMARK  Name = 
REMARK  6 active torsions:
REMARK  status: ('A' for Active; 'I' for Inactive)
REMARK    1  A    between atoms: N_5  and  C_8
REMARK    2  A    between atoms: C_9  and  C_10
REMARK    3  A    between atoms: C_10  and  N_11
REMARK    4  A    between atoms: N_11  and  S_12
REMARK    5  A    between atoms: S_12  and  C_15
REMARK    6  A    between atoms: C_21  and  C_22
REMARK                            x       y       z     vdW  Elec       q    Type
REMARK                         _______ _______ _______ _____ _____    ______ ____
ROOT
ATOM      8  C   UNL     1      -1.339   2.779  24.842  0.00  0.00    +0.120 C 
ATOM      9  C   UNL     1      -2.077   3.143  24.896  0.00  0.00    +0.152 C 
ATOM     20  O   UNL     1      -1.958   3.958  24.936  0.00  0.00    -0.350 OA
ATOM     21  C   UNL     1      -1.146   4.099  24.907  0.00  0.00    +0.180 C 
ATOM     24  C   UNL     1      -0.763   3.370  24.849  0.00  0.00    +0.198 C 
ATOM     25  O   UNL     1       0.053   3.253  24.806  0.00  0.00    -0.219 OA
ENDROOT
BRANCH   8   5
ATOM      1  C   UNL     1      -0.785  -0.467  24.636  0.00  0.00    +0.090 C 
ATOM      2  N   UNL     1      -0.923   0.344  24.687  0.00  0.00    -0.269 NA
ATOM      3  C   UNL     1      -0.973   0.708  25.426  0.00  0.00    +0.090 C 
ATOM      4  C   UNL     1      -1.112   1.519  25.477  0.00  0.00    +0.090 C 
ATOM      5  N   UNL     1      -1.201   1.968  24.791  0.00  0.00    -0.267 NA
ATOM      6  C   UNL     1      -1.151   1.603  24.051  0.00  0.00    +0.090 C 
ATOM      7  C   UNL     1      -1.012   0.792  24.000  0.00  0.00    +0.090 C 
ENDBRANCH   8   5
BRANCH  21  22
ATOM     22  C   UNL     1      -0.780   4.838  24.932  0.00  0.00    +0.214 C 
ATOM     23  O   UNL     1      -1.227   5.514  25.084  0.00  0.00    -0.218 OA
ENDBRANCH  21  22
BRANCH   9  10
ATOM     10  C   UNL     1      -2.808   2.758  24.907  0.00  0.00    +0.146 C 
BRANCH  10  11
ATOM     11  N   UNL     1      -3.505   3.198  24.897  0.00  0.00    -0.075 NA
BRANCH  11  12
ATOM     12  S   UNL     1      -4.232   2.821  25.000  0.00  0.00    +0.083 S 
ATOM     13  O   UNL     1      -4.194   2.969  25.811  0.00  0.00    -0.151 OA
ATOM     14  O   UNL     1      -4.270   2.672  24.189  0.00  0.00    -0.151 OA
BRANCH  12  15
ATOM     15  C   UNL     1      -4.958   2.444  25.103  0.00  0.00    +0.153 A 
ATOM     16  C   UNL     1      -5.188   1.732  24.755  0.00  0.00    +0.027 A 
ATOM     17  C   UNL     1      -5.955   1.561  25.009  0.00  0.00    +0.009 A 
ATOM     18  C   UNL     1      -6.198   2.167  25.513  0.00  0.00    +0.037 A 
ATOM     19  S   UNL     1      -5.583   2.713  25.571  0.00  0.00    -0.067 S 
ENDBRANCH  12  15
ENDBRANCH  11  12
ENDBRANCH  10  11
ENDBRANCH   9  10
TORSDOF 6
ENDMDL
MODEL 4
REMARK VINA RESULT:      -8.3      2.765      5.059
REMARK  Name = 
REMARK  6 active torsions:
REMARK  status: ('A' for Active; 'I' for Inactive)
REMARK    1  A    between atoms: N_5  and  C_8
REMARK    2  A    between atoms: C_9  and  C_10
REMARK    3  A    between atoms: C_10  and  N_11
REMARK    4  A    between atoms: N_11  and  S_12
REMARK    5  A    between atoms: S_12  and  C_15
REMARK    6  A    between atoms: C_21  and  C_22
REMARK                            x       y       z     vdW  Elec       q    Type
REMARK                         _______ _______ _______ _____ _____    ______ ____
ROOT
ATOM      8  C   UNL     1      -0.672   0.072  24.274  0.00  0.00    +0.120 C 
ATOM      9  C   UNL     1      -0.420   0.853  24.200  0.00  0.00    +0.152 C 
ATOM     20  O   UNL     1       0.267   0.858  23.742  0.00  0.00    -0.350 OA
ATOM     21  C   UNL     1       0.439   0.079  23.533  0.00  0.00    +0.180 C 
ATOM     24  C   UNL     1      -0.142  -0.408  23.862  0.00  0.00    +0.198 C 
ATOM     25  O   UNL     1      -0.184  -1.229  23.790  0.00  0.00    -0.219 OA
ENDROOT
BRANCH   8   5
ATOM      1  C   UNL     1      -3.336  -0.960  25.927  0.00  0.00    +0.090 C 
ATOM      2  N   UNL     1      -2.670  -0.702  25.514  0.00  0.00    -0.269 NA
ATOM      3  C   UNL     1      -2.738  -0.473  24.725  0.00  0.00    +0.090 C 
ATOM      4  C   UNL     1      -2.072  -0.215  24.311  0.00  0.00    +0.090 C 
ATOM      5  N   UNL     1      -1.338  -0.186  24.687  0.00  0.00    -0.267 NA
ATOM      6  C   UNL     1      -1.271  -0.416  25.477  0.00  0.00    +0.090 C 
ATOM      7  C   UNL     1      -1.937  -0.674  25.891  0.00  0.00    +0.090 C 
ENDBRANCH   8   5
BRANCH  21  22
ATOM     22  C   UNL     1       1.078  -0.171  23.076  0.00  0.00    +0.214 C 
ATOM     23  O   UNL     1       1.679   0.359  22.883  0.00  0.00    -0.218 OA
ENDBRANCH  21  22
BRANCH   9  10
ATOM     10  C   UNL     1      -0.790   1.515  24.527  0.00  0.00    +0.146 C 
BRANCH  10  11
ATOM     11  N   UNL     1      -0.462   2.265  24.420  0.00  0.00    -0.075 NA
BRANCH  11  12
ATOM     12  S   UNL     1      -0.856   2.931  24.705  0.00  0.00    +0.083 S 
ATOM     13  O   UNL     1      -1.272   2.989  23.995  0.00  0.00    -0.151 OA
ATOM     14  O   UNL     1      -0.440   2.874  25.416  0.00  0.00    -0.151 OA
BRANCH  12  15
ATOM     15  C   UNL     1      -1.250   3.597  24.990  0.00  0.00    +0.153 A 
ATOM     16  C   UNL     1      -0.980   4.376  24.946  0.00  0.00    +0.027 A 
ATOM     17  C   UNL     1      -1.546   4.862  25.298  0.00  0.00    +0.009 A 
ATOM     18  C   UNL     1      -2.166   4.383  25.560  0.00  0.00    +0.037 A 
ATOM     19  S   UNL     1      -1.982   3.602  25.370  0.00  0.00    -0.067 S 
ENDBRANCH  12  15
ENDBRANCH  11  12
ENDBRANCH  10  11
ENDBRANCH   9  10
TORSDOF 6
ENDMDL
MODEL 5
REMARK VINA RESULT:      -8.3      1.996      4.077
REMARK  Name = 
REMARK  6 active torsions:
REMARK  status: ('A' for Active; 'I' for Inactive)
REMARK    1  A    between atoms: N_5  and  C_8
REMARK    2  A    between atoms: C_9  and  C_10
REMARK    3  A    between atoms: C_10  and  N_11
REMARK    4  A    between atoms: N_11  and  S_12
REMARK    5  A    between atoms: S_12  and  C_15
REMARK    6  A    between atoms: C_21  and  C_22
REMARK                            x       y       z     vdW  Elec       q    Type
REMARK                         _______ _______ _______ _____ _____    ______ ____
ROOT
ATOM      8  C   UNL     1      -1.622   0.258  24.625  0.00  0.00    +0.120 C 
ATOM      9  C   UNL     1      -1.887   1.038  24.583  0.00  0.00    +0.152 C 
ATOM     20  O   UNL     1      -1.246   1.516  24.380  0.00  0.00    -0.350 OA
ATOM     21  C   UNL     1      -0.583   1.031  24.296  0.00  0.00    +0.180 C 
ATOM     24  C   UNL     1      -0.816   0.253  24.447  0.00  0.00    +0.198 C 
ATOM     25  O   UNL     1      -0.327  -0.412  24.424  0.00  0.00    -0.219 OA
ENDROOT
BRANCH   8   5
ATOM      1  C   UNL     1      -3.458  -2.380  25.370  0.00  0.00    +0.090 C 
ATOM      2  N   UNL     1      -2.999  -1.721  25.184  0.00  0.00    -0.269 NA
ATOM      3  C   UNL     1      -2.901  -1.496  24.397  0.00  0.00    +0.090 C 
ATOM      4  C   UNL     1      -2.442  -0.837  24.210  0.00  0.00    +0.090 C 
ATOM      5  N   UNL     1      -2.081  -0.401  24.811  0.00  0.00    -0.267 NA
ATOM      6  C   UNL     1      -2.180  -0.626  25.599  0.00  0.00    +0.090 C 
ATOM      7  C   UNL     1      -2.639  -1.286  25.786  0.00  0.00    +0.090 C 
ENDBRANCH   8   5
BRANCH  21  22
ATOM     22  C   UNL     1       0.177   1.279  24.095  0.00  0.00    +0.214 C 
ATOM     23  O   UNL     1       0.436   2.032  24.311  0.00  0.00    -0.218 OA
ENDBRANCH  21  22
BRANCH   9  10
ATOM     10  C   UNL     1      -2.659   1.295  24.721  0.00  0.00    +0.146 C 
BRANCH  10  11
ATOM     11  N   UNL     1      -2.855   2.089  24.609  0.00  0.00    -0.075 NA
BRANCH  11  12
ATOM     12  S   UNL     1      -3.601   2.364  24.829  0.00  0.00    +0.083 S 
ATOM     13  O   UNL     1      -3.902   2.138  24.095  0.00  0.00    -0.151 OA
ATOM     14  O   UNL     1      -3.301   2.591  25.564  0.00  0.00    -0.151 OA
BRANCH  12  15
ATOM     15  C   UNL     1      -4.346   2.639  25.050  0.00  0.00    +0.153 A 
ATOM     16  C   UNL     1      -5.043   2.197  25.063  0.00  0.00    +0.027 A 
ATOM     17  C   UNL     1      -5.654   2.690  25.317  0.00  0.00    +0.009 A 
ATOM     18  C   UNL     1      -5.334   3.437  25.462  0.00  0.00    +0.037 A 
ATOM     19  S   UNL     1      -4.527   3.406  25.296  0.00  0.00    -0.067 S 
ENDBRANCH  12  15
ENDBRANCH  11  12
ENDBRANCH  10  11
ENDBRANCH   9  10
TORSDOF 6
ENDMDL
MODEL 6
REMARK VINA RESULT:      -8.2      1.755      2.837
REMARK  Name = 
REMARK  6 active torsions:
REMARK  status: ('A' for Active; 'I' for Inactive)
REMARK    1  A    between atoms: N_5  and  C_8
REMARK    2  A    between atoms: C_9  and  C_10
REMARK    3  A    between atoms: C_10  and  N_11
REMARK    4  A    between atoms: N_11  and  S_12
REMARK    5  A    between atoms: S_12  and  C_15
REMARK    6  A    between atoms: C_21  and  C_22
REMARK                            x       y       z     vdW  Elec       q    Type
REMARK                         _______ _______ _______ _____ _____    ______ ____
ROOT
ATOM      8  C   UNL     1      -1.747   2.283  25.153  0.00  0.00    +0.120 C 
ATOM      9  C   UNL     1      -1.461   1.519  25.273  0.00  0.00    +0.152 C 
ATOM     20  O   UNL     1      -0.698   1.578  25.582  0.00  0.00    -0.350 OA
ATOM     21  C   UNL     1      -0.512   2.379  25.653  0.00  0.00    +0.180 C 
ATOM     24  C   UNL     1      -1.161   2.815  25.388  0.00  0.00    +0.198 C 
ATOM     25  O   UNL     1      -1.214   3.638  25.363  0.00  0.00    -0.219 OA
ENDROOT
BRANCH   8   5
ATOM      1  C   UNL     1      -4.714   3.077  23.946  0.00  0.00    +0.090 C 
ATOM      2  N   UNL     1      -3.972   2.879  24.248  0.00  0.00    -0.269 NA
ATOM      3  C   UNL     1      -3.344   2.733  23.734  0.00  0.00    +0.090 C 
ATOM      4  C   UNL     1      -2.602   2.535  24.036  0.00  0.00    +0.090 C 
ATOM      5  N   UNL     1      -2.489   2.482  24.851  0.00  0.00    -0.267 NA
ATOM      6  C   UNL     1      -3.118   2.627  25.366  0.00  0.00    +0.090 C 
ATOM      7  C   UNL     1      -3.860   2.826  25.064  0.00  0.00    +0.090 C 
ENDBRANCH   8   5
BRANCH  21  22
ATOM     22  C   UNL     1       0.196   2.689  25.939  0.00  0.00    +0.214 C 
ATOM     23  O   UNL     1       0.574   2.333  26.580  0.00  0.00    -0.218 OA
ENDBRANCH  21  22
BRANCH   9  10
ATOM     10  C   UNL     1      -1.866   0.819  25.112  0.00  0.00    +0.146 C 
BRANCH  10  11
ATOM     11  N   UNL     1      -1.522   0.092  25.296  0.00  0.00    -0.075 NA
BRANCH  11  12
ATOM     12  S   UNL     1      -1.938  -0.608  25.158  0.00  0.00    +0.083 S 
ATOM     13  O   UNL     1      -1.669  -0.612  24.377  0.00  0.00    -0.151 OA
ATOM     14  O   UNL     1      -2.206  -0.603  25.938  0.00  0.00    -0.151 OA
BRANCH  12  15
ATOM     15  C   UNL     1      -2.353  -1.306  25.019  0.00  0.00    +0.153 A 
ATOM     16  C   UNL     1      -3.136  -1.455  25.230  0.00  0.00    +0.027 A 
ATOM     17  C   UNL     1      -3.325  -2.221  24.987  0.00  0.00    +0.009 A 
ATOM     18  C   UNL     1      -2.658  -2.545  24.625  0.00  0.00    +0.037 A 
ATOM     19  S   UNL     1      -2.057  -1.980  24.645  0.00  0.00    -0.067 S 
ENDBRANCH  12  15
ENDBRANCH  11  12
ENDBRANCH  10  11
ENDBRANCH   9  10
TORSDOF 6
ENDMDL
