MODEL 1
REMARK VINA RESULT:      -9.9      0.000      0.000
REMARK  Name = 
REMARK  6 active torsions:
REMARK  status: ('A' for Active; 'I' for Inactive)
REMARK    1  A    between atoms: C_2  and  N_4
REMARK    2  A    between atoms: N_7  and  C_8
REMARK    3  A    between atoms: C_8  and  C_9
REMARK    4  A    between atoms: C_12  and  N_13
REMARK    5  A    between atoms: N_13  and  C_14
REMARK    6  A    between atoms: C_14  and  C_15
REMARK                            x       y       z     vdW  Elec       q    Type
REMARK                         _______ _______ _______ _____ _____    ______ ____
ROOT
ATOM      9  C   UNL     1      -3.821   2.102  24.637  0.00  0.00    +0.169 C 
ATOM     10  O   UNL     1      -4.406   1.953  25.200  0.00  0.00    -0.350 OA
ATOM     11  C   UNL     1      -4.599   1.152  25.162  0.00  0.00    +0.162 C 
ATOM     12  C   UNL     1      -4.134   0.805  24.576  0.00  0.00    +0.135 C 
ATOM     22  C   UNL     1      -3.653   1.391  24.251  0.00  0.00    +0.199 C 
ATOM     23  O   UNL     1      -3.102   1.286  23.647  0.00  0.00    -0.219 OA
ENDROOT
BRANCH   9   8
ATOM      8  C   UNL     1      -3.467   2.831  24.486  0.00  0.00    +0.149 C 
BRANCH   8   7
ATOM      4  N   UNL     1      -2.014   4.171  25.410  0.00  0.00    -0.189 NA
ATOM      5  C   UNL     1      -2.514   3.832  24.849  0.00  0.00    +0.339 C 
ATOM      6  O   UNL     1      -2.563   4.154  24.091  0.00  0.00    -0.249 OA
ATOM      7  N   UNL     1      -2.966   3.170  25.046  0.00  0.00    -0.185 NA
BRANCH   4   2
ATOM      1  C   UNL     1      -1.889   5.588  25.266  0.00  0.00    +0.023 C 
ATOM      2  C   UNL     1      -1.562   4.833  25.213  0.00  0.00    +0.097 C 
ATOM      3  C   UNL     1      -0.781   4.739  24.963  0.00  0.00    +0.023 C 
ENDBRANCH   4   2
ENDBRANCH   8   7
ENDBRANCH   9   8
BRANCH  12  13
ATOM     13  N   UNL     1      -4.148   0.010  24.354  0.00  0.00    -0.209 NA
BRANCH  13  14
ATOM     14  C   UNL     1      -4.074  -0.580  24.926  0.00  0.00    +0.118 C 
BRANCH  14  15
ATOM     15  C   UNL     1      -3.958  -1.363  24.698  0.00  0.00    +0.034 A 
ATOM     16  C   UNL     1      -3.545  -1.880  25.190  0.00  0.00    +0.193 A 
ATOM     17  O   UNL     1      -3.248  -1.612  25.912  0.00  0.00    -0.287 OA
ATOM     18  C   UNL     1      -3.429  -2.664  24.962  0.00  0.00    +0.042 A 
ATOM     19  C   UNL     1      -3.726  -2.932  24.240  0.00  0.00    +0.003 A 
ATOM     20  C   UNL     1      -4.139  -2.415  23.748  0.00  0.00    -0.000 A 
ATOM     21  C   UNL     1      -4.255  -1.632  23.976  0.00  0.00    +0.000 A 
ENDBRANCH  14  15
ENDBRANCH  13  14
ENDBRANCH  12  13
TORSDOF 6
ENDMDL
MODEL 2
REMARK VINA RESULT:      -9.2      1.761      5.817
REMARK  Name = 
REMARK  6 active torsions:
REMARK  status: ('A' for Active; 'I' for Inactive)
REMARK    1  A    between atoms: C_2  and  N_4
REMARK    2  A    between atoms: N_7  and  C_8
REMARK    3  A    between atoms: C_8  and  C_9
REMARK    4  A    between atoms: C_12  and  N_13
REMARK    5  A    between atoms: N_13  and  C_14
REMARK    6  A    between atoms: C_14  and  C_15
REMARK                            x       y       z     vdW  Elec       q    Type
REMARK                         _______ _______ _______ _____ _____    ______ ____
ROOT
ATOM      9  C   UNL     1      -1.463   0.368  24.940  0.00  0.00    +0.169 C 
ATOM     10  O   UNL     1      -1.118   0.474  25.683  0.00  0.00    -0.350 OA
ATOM     11  C   UNL     1      -0.941   1.275  25.769  0.00  0.00    +0.162 C 
ATOM     12  C   UNL     1      -1.176   1.664  25.081  0.00  0.00    +0.135 C 
ATOM     22  C   UNL     1      -1.499   1.104  24.569  0.00  0.00    +0.199 C 
ATOM     23  O   UNL     1      -1.803   1.253  23.817  0.00  0.00    -0.219 OA
ENDROOT
BRANCH   9   8
ATOM      8  C   UNL     1      -1.726  -0.347  24.626  0.00  0.00    +0.149 C 
BRANCH   8   7
ATOM      4  N   UNL     1      -3.374  -1.755  24.879  0.00  0.00    -0.189 NA
ATOM      5  C   UNL     1      -2.677  -1.414  24.602  0.00  0.00    +0.339 C 
ATOM      6  O   UNL     1      -2.231  -1.798  24.024  0.00  0.00    -0.249 OA
ATOM      7  N   UNL     1      -2.424  -0.688  24.903  0.00  0.00    -0.185 NA
BRANCH   4   2
ATOM      1  C   UNL     1      -4.143  -2.505  23.936  0.00  0.00    +0.023 C 
ATOM      2  C   UNL     1      -3.627  -2.481  24.579  0.00  0.00    +0.097 C 
ATOM      3  C   UNL     1      -3.364  -3.183  24.922  0.00  0.00    +0.023 C 
ENDBRANCH   4   2
ENDBRANCH   8   7
ENDBRANCH   9   8
BRANCH  12  13
ATOM     13  N   UNL     1      -1.101   2.473  24.931  0.00  0.00    -0.209 NA
BRANCH  13  14
ATOM     14  C   UNL     1      -1.351   3.022  25.494  0.00  0.00    +0.118 C 
BRANCH  14  15
ATOM     15  C   UNL     1      -1.329   3.828  25.322  0.00  0.00    +0.034 A 
ATOM     16  C   UNL     1      -1.947   4.318  25.561  0.00  0.00    +0.193 A 
ATOM     17  O   UNL     1      -2.589   4.001  25.973  0.00  0.00    -0.287 OA
ATOM     18  C   UNL     1      -1.925   5.124  25.390  0.00  0.00    +0.042 A 
ATOM     19  C   UNL     1      -1.283   5.441  24.978  0.00  0.00    +0.003 A 
ATOM     20  C   UNL     1      -0.664   4.951  24.739  0.00  0.00    -0.000 A 
ATOM     21  C   UNL     1      -0.687   4.144  24.911  0.00  0.00    +0.000 A 
ENDBRANCH  14  15
ENDBRANCH  13  14
ENDBRANCH  12  13
TORSDOF 6
ENDMDL
MODEL 3
REMARK VINA RESULT:      -9.1      0.962      1.177
REMARK  Name = 
REMARK  6 active torsions:
REMARK  status: ('A' for Active; 'I' for Inactive)
REMARK    1  A    between atoms: C_2  and  N_4
REMARK    2  A    between atoms: N_7  and  C_8
REMARK    3  A    between atoms: C_8  and  C_9
REMARK    4  A    between atoms: C_12  and  N_13
REMARK    5  A    between atoms: N_13  and  C_14
REMARK    6  A    between atoms: C_14  and  C_15
REMARK                            x       y       z     vdW  Elec       q    Type
REMARK                         _______ _______ _______ _____ _____    ______ ____
ROOT
ATOM      9  C   UNL     1      -2.583   1.748  24.853  0.00  0.00    +0.169 C 
ATOM     10  O   UNL     1      -1.942   1.302  25.122  0.00  0.00    -0.350 OA
ATOM     11  C   UNL     1      -2.131   0.504  25.032  0.00  0.00    +0.162 C 
ATOM     12  C   UNL     1      -2.887   0.456  24.707  0.00  0.00    +0.135 C 
ATOM     22  C   UNL     1      -3.167   1.225  24.597  0.00  0.00    +0.199 C 
ATOM     23  O   UNL     1      -3.901   1.433  24.284  0.00  0.00    -0.219 OA
ENDROOT
BRANCH   9   8
ATOM      8  C   UNL     1      -2.631   2.571  24.843  0.00  0.00    +0.149 C 
BRANCH   8   7
ATOM      4  N   UNL     1      -1.342   4.280  25.266  0.00  0.00    -0.189 NA
ATOM      5  C   UNL     1      -1.961   3.827  24.963  0.00  0.00    +0.339 C 
ATOM      6  O   UNL     1      -2.528   4.177  24.478  0.00  0.00    -0.249 OA
ATOM      7  N   UNL     1      -2.012   3.024  25.146  0.00  0.00    -0.185 NA
BRANCH   4   2
ATOM      1  C   UNL     1      -0.645   5.370  24.659  0.00  0.00    +0.023 C 
ATOM      2  C   UNL     1      -1.290   5.084  25.084  0.00  0.00    +0.097 C 
ATOM      3  C   UNL     1      -1.885   5.601  25.328  0.00  0.00    +0.023 C 
ENDBRANCH   4   2
ENDBRANCH   8   7
ENDBRANCH   9   8
BRANCH  12  13
ATOM     13  N   UNL     1      -3.293  -0.239  24.525  0.00  0.00    -0.209 NA
BRANCH  13  14
ATOM     14  C   UNL     1      -2.940  -0.971  24.663  0.00  0.00    +0.118 C 
BRANCH  14  15
ATOM     15  C   UNL     1      -3.329  -1.665  24.442  0.00  0.00    +0.034 A 
ATOM     16  C   UNL     1      -3.000  -2.398  24.627  0.00  0.00    +0.193 A 
ATOM     17  O   UNL     1      -2.282  -2.438  25.032  0.00  0.00    -0.287 OA
ATOM     18  C   UNL     1      -3.388  -3.091  24.406  0.00  0.00    +0.042 A 
ATOM     19  C   UNL     1      -4.106  -3.051  24.001  0.00  0.00    +0.003 A 
ATOM     20  C   UNL     1      -4.435  -2.318  23.817  0.00  0.00    -0.000 A 
ATOM     21  C   UNL     1      -4.047  -1.625  24.037  0.00  0.00    +0.000 A 
ENDBRANCH  14  15
ENDBRANCH  13  14
ENDBRANCH  12  13
TORSDOF 6
ENDMDL
MODEL 4
REMARK VINA RESULT:      -8.1      3.224      4.566
REMARK  Name = 
REMARK  6 active torsions:
REMARK  status: ('A' for Active; 'I' for Inactive)
REMARK    1  A    between atoms: C_2  and  N_4
REMARK    2  A    between atoms: N_7  and  C_8
REMARK    3  A    between atoms: C_8  and  C_9
REMARK    4  A    between atoms: C_12  and  N_13
REMARK    5  A    between atoms: N_13  and  C_14
REMARK    6  A    between atoms: C_14  and  C_15
REMARK                            x       y       z     vdW  Elec       q    Type
REMARK                         _______ _______ _______ _____ _____    ______ ____
ROOT
ATOM      9  C   UNL     1      -1.370   0.953  23.973  0.00  0.00    +0.169 C 
ATOM     10  O   UNL     1      -1.555   1.588  23.479  0.00  0.00    -0.350 OA
ATOM     11  C   UNL     1      -2.296   1.876  23.700  0.00  0.00    +0.162 C 
ATOM     12  C   UNL     1      -2.569   1.419  24.330  0.00  0.00    +0.135 C 
ATOM     22  C   UNL     1      -1.997   0.849  24.499  0.00  0.00    +0.199 C 
ATOM     23  O   UNL     1      -2.044   0.276  25.090  0.00  0.00    -0.219 OA
ENDROOT
BRANCH   9   8
ATOM      8  C   UNL     1      -0.680   0.503  23.945  0.00  0.00    +0.149 C 
BRANCH   8   7
ATOM      4  N   UNL     1       1.224   0.543  22.881  0.00  0.00    -0.189 NA
ATOM      5  C   UNL     1       0.563   0.260  23.283  0.00  0.00    +0.339 C 
ATOM      6  O   UNL     1       0.482  -0.548  23.428  0.00  0.00    -0.249 OA
ATOM      7  N   UNL     1      -0.019   0.785  23.543  0.00  0.00    -0.185 NA
BRANCH   4   2
ATOM      1  C   UNL     1       2.506  -0.067  23.049  0.00  0.00    +0.023 C 
ATOM      2  C   UNL     1       1.806   0.018  22.621  0.00  0.00    +0.097 C 
ATOM      3  C   UNL     1       1.687  -0.422  21.934  0.00  0.00    +0.023 C 
ENDBRANCH   4   2
ENDBRANCH   8   7
ENDBRANCH   9   8
BRANCH  12  13
ATOM     13  N   UNL     1      -3.289   1.516  24.723  0.00  0.00    -0.209 NA
BRANCH  13  14
ATOM     14  C   UNL     1      -3.672   2.246  24.708  0.00  0.00    +0.118 C 
BRANCH  14  15
ATOM     15  C   UNL     1      -4.434   2.318  25.016  0.00  0.00    +0.034 A 
ATOM     16  C   UNL     1      -4.643   2.990  25.445  0.00  0.00    +0.193 A 
ATOM     17  O   UNL     1      -4.090   3.591  25.567  0.00  0.00    -0.287 OA
ATOM     18  C   UNL     1      -5.405   3.063  25.753  0.00  0.00    +0.042 A 
ATOM     19  C   UNL     1      -5.958   2.462  25.631  0.00  0.00    +0.003 A 
ATOM     20  C   UNL     1      -5.749   1.790  25.201  0.00  0.00    -0.000 A 
ATOM     21  C   UNL     1      -4.987   1.718  24.894  0.00  0.00    +0.000 A 
ENDBRANCH  14  15
ENDBRANCH  13  14
ENDBRANCH  12  13
TORSDOF 6
ENDMDL
MODEL 5
REMARK VINA RESULT:      -7.1     17.725     19.473
REMARK  Name = 
REMARK  6 active torsions:
REMARK  status: ('A' for Active; 'I' for Inactive)
REMARK    1  A    between atoms: C_2  and  N_4
REMARK    2  A    between atoms: N_7  and  C_8
REMARK    3  A    between atoms: C_8  and  C_9
REMARK    4  A    between atoms: C_12  and  N_13
REMARK    5  A    between atoms: N_13  and  C_14
REMARK    6  A    between atoms: C_14  and  C_15
REMARK                            x       y       z     vdW  Elec       q    Type
REMARK                         _______ _______ _______ _____ _____    ______ ____
ROOT
ATOM      9  C   UNL     1      12.748   7.608  19.024  0.00  0.00    +0.169 C 
ATOM     10  O   UNL     1      12.591   6.845  19.298  0.00  0.00    -0.350 OA
ATOM     11  C   UNL     1      13.263   6.570  19.688  0.00  0.00    +0.162 C 
ATOM     12  C   UNL     1      13.836   7.162  19.656  0.00  0.00    +0.135 C 
ATOM     22  C   UNL     1      13.518   7.803  19.246  0.00  0.00    +0.199 C 
ATOM     23  O   UNL     1      13.903   8.515  19.086  0.00  0.00    -0.219 OA
ENDROOT
BRANCH   9   8
ATOM      8  C   UNL     1      12.228   8.089  18.604  0.00  0.00    +0.149 C 
BRANCH   8   7
ATOM      4  N   UNL     1      11.246   8.151  16.656  0.00  0.00    -0.189 NA
ATOM      5  C   UNL     1      11.480   8.363  17.417  0.00  0.00    +0.339 C 
ATOM      6  O   UNL     1      11.200   9.062  17.755  0.00  0.00    -0.249 OA
ATOM      7  N   UNL     1      11.994   7.877  17.842  0.00  0.00    -0.185 NA
BRANCH   4   2
ATOM      1  C   UNL     1      11.017   9.094  15.606  0.00  0.00    +0.023 C 
ATOM      2  C   UNL     1      10.732   8.638  16.231  0.00  0.00    +0.097 C 
ATOM      3  C   UNL     1       9.933   8.667  16.432  0.00  0.00    +0.023 C 
ENDBRANCH   4   2
ENDBRANCH   8   7
ENDBRANCH   9   8
BRANCH  12  13
ATOM     13  N   UNL     1      14.595   7.119  19.979  0.00  0.00    -0.209 NA
BRANCH  13  14
ATOM     14  C   UNL     1      15.090   6.487  19.789  0.00  0.00    +0.118 C 
BRANCH  14  15
ATOM     15  C   UNL     1      15.861   6.465  20.079  0.00  0.00    +0.034 A 
ATOM     16  C   UNL     1      16.484   6.254  19.581  0.00  0.00    +0.193 A 
ATOM     17  O   UNL     1      16.333   6.065  18.791  0.00  0.00    -0.287 OA
ATOM     18  C   UNL     1      17.255   6.233  19.870  0.00  0.00    +0.042 A 
ATOM     19  C   UNL     1      17.405   6.422  20.659  0.00  0.00    +0.003 A 
ATOM     20  C   UNL     1      16.783   6.634  21.158  0.00  0.00    -0.000 A 
ATOM     21  C   UNL     1      16.012   6.655  20.868  0.00  0.00    +0.000 A 
ENDBRANCH  14  15
ENDBRANCH  13  14
ENDBRANCH  12  13
TORSDOF 6
ENDMDL
MODEL 6
REMARK VINA RESULT:      -6.4     15.944     18.864
REMARK  Name = 
REMARK  6 active torsions:
REMARK  status: ('A' for Active; 'I' for Inactive)
REMARK    1  A    between atoms: C_2  and  N_4
REMARK    2  A    between atoms: N_7  and  C_8
REMARK    3  A    between atoms: C_8  and  C_9
REMARK    4  A    between atoms: C_12  and  N_13
REMARK    5  A    between atoms: N_13  and  C_14
REMARK    6  A    between atoms: C_14  and  C_15
REMARK                            x       y       z     vdW  Elec       q    Type
REMARK                         _______ _______ _______ _____ _____    ______ ____
ROOT
ATOM      9  C   UNL     1      13.907   7.574  19.343  0.00  0.00    +0.169 C 
ATOM     10  O   UNL     1      13.303   7.214  18.910  0.00  0.00    -0.350 OA
ATOM     11  C   UNL     1      12.583   7.432  19.247  0.00  0.00    +0.162 C 
ATOM     12  C   UNL     1      12.740   7.926  19.888  0.00  0.00    +0.135 C 
ATOM     22  C   UNL     1      13.559   8.014  19.947  0.00  0.00    +0.199 C 
ATOM     23  O   UNL     1      13.958   8.463  20.512  0.00  0.00    -0.219 OA
ENDROOT
BRANCH   9   8
ATOM      8  C   UNL     1      14.716   7.506  19.196  0.00  0.00    +0.149 C 
BRANCH   8   7
ATOM      4  N   UNL     1      16.184   5.915  18.918  0.00  0.00    -0.189 NA
ATOM      5  C   UNL     1      15.857   6.652  19.091  0.00  0.00    +0.339 C 
ATOM      6  O   UNL     1      16.344   7.274  19.330  0.00  0.00    -0.249 OA
ATOM      7  N   UNL     1      15.043   6.769  19.024  0.00  0.00    -0.185 NA
BRANCH   4   2
ATOM      1  C   UNL     1      17.405   5.384  18.400  0.00  0.00    +0.023 C 
ATOM      2  C   UNL     1      16.998   5.799  18.985  0.00  0.00    +0.097 C 
ATOM      3  C   UNL     1      17.405   6.098  19.637  0.00  0.00    +0.023 C 
ENDBRANCH   4   2
ENDBRANCH   8   7
ENDBRANCH   9   8
BRANCH  12  13
ATOM     13  N   UNL     1      12.178   8.272  20.384  0.00  0.00    -0.209 NA
BRANCH  13  14
ATOM     14  C   UNL     1      11.509   7.846  20.610  0.00  0.00    +0.118 C 
BRANCH  14  15
ATOM     15  C   UNL     1      11.082   8.073  21.278  0.00  0.00    +0.034 A 
ATOM     16  C   UNL     1      10.680   7.506  21.722  0.00  0.00    +0.193 A 
ATOM     17  O   UNL     1      10.706   6.712  21.499  0.00  0.00    -0.287 OA
ATOM     18  C   UNL     1      10.253   7.733  22.390  0.00  0.00    +0.042 A 
ATOM     19  C   UNL     1      10.227   8.527  22.614  0.00  0.00    +0.003 A 
ATOM     20  C   UNL     1      10.629   9.093  22.169  0.00  0.00    -0.000 A 
ATOM     21  C   UNL     1      11.056   8.867  21.501  0.00  0.00    +0.000 A 
ENDBRANCH  14  15
ENDBRANCH  13  14
ENDBRANCH  12  13
TORSDOF 6
ENDMDL
MODEL 7
REMARK VINA RESULT:      -6.0     16.394     19.276
REMARK  Name = 
REMARK  6 active torsions:
REMARK  status: ('A' for Active; 'I' for Inactive)
REMARK    1  A    between atoms: C_2  and  N_4
REMARK    2  A    between atoms: N_7  and  C_8
REMARK    3  A    between atoms: C_8  and  C_9
REMARK    4  A    between atoms: C_12  and  N_13
REMARK    5  A    between atoms: N_13  and  C_14
REMARK    6  A    between atoms: C_14  and  C_15
REMARK                            x       y       z     vdW  Elec       q    Type
REMARK                         _______ _______ _______ _____ _____    ______ ____
ROOT
ATOM      9  C   UNL     1      13.037   8.130  19.600  0.00  0.00    +0.169 C 
ATOM     10  O   UNL     1      13.451   8.806  19.371  0.00  0.00    -0.350 OA
ATOM     11  C   UNL     1      14.191   8.570  19.093  0.00  0.00    +0.162 C 
ATOM     12  C   UNL     1      14.234   7.749  19.149  0.00  0.00    +0.135 C 
ATOM     22  C   UNL     1      13.521   7.477  19.463  0.00  0.00    +0.199 C 
ATOM     23  O   UNL     1      13.327   6.689  19.612  0.00  0.00    -0.219 OA
ENDROOT
BRANCH   9   8
ATOM      8  C   UNL     1      12.273   8.112  19.910  0.00  0.00    +0.149 C 
BRANCH   8   7
ATOM      4  N   UNL     1      11.313   8.110  21.870  0.00  0.00    -0.189 NA
ATOM      5  C   UNL     1      11.426   8.196  21.058  0.00  0.00    +0.339 C 
ATOM      6  O   UNL     1      10.804   8.450  20.580  0.00  0.00    -0.249 OA
ATOM      7  N   UNL     1      12.160   8.026  20.723  0.00  0.00    -0.185 NA
BRANCH   4   2
ATOM      1  C   UNL     1      10.398   9.049  22.439  0.00  0.00    +0.023 C 
ATOM      2  C   UNL     1      10.578   8.280  22.205  0.00  0.00    +0.097 C 
ATOM      3  C   UNL     1      10.023   7.678  22.306  0.00  0.00    +0.023 C 
ENDBRANCH   4   2
ENDBRANCH   8   7
ENDBRANCH   9   8
BRANCH  12  13
ATOM     13  N   UNL     1      14.878   7.281  18.931  0.00  0.00    -0.209 NA
BRANCH  13  14
ATOM     14  C   UNL     1      15.597   7.357  19.327  0.00  0.00    +0.118 C 
BRANCH  14  15
ATOM     15  C   UNL     1      16.194   6.799  19.212  0.00  0.00    +0.034 A 
ATOM     16  C   UNL     1      16.808   6.732  19.758  0.00  0.00    +0.193 A 
ATOM     17  O   UNL     1      16.825   7.224  20.421  0.00  0.00    -0.287 OA
ATOM     18  C   UNL     1      17.404   6.174  19.643  0.00  0.00    +0.042 A 
ATOM     19  C   UNL     1      17.386   5.683  18.980  0.00  0.00    +0.003 A 
ATOM     20  C   UNL     1      16.772   5.750  18.433  0.00  0.00    -0.000 A 
ATOM     21  C   UNL     1      16.176   6.308  18.549  0.00  0.00    +0.000 A 
ENDBRANCH  14  15
ENDBRANCH  13  14
ENDBRANCH  12  13
TORSDOF 6
ENDMDL
