MODEL 1
REMARK VINA RESULT:     -11.6      0.000      0.000
REMARK  Name = 
REMARK  4 active torsions:
REMARK  status: ('A' for Active; 'I' for Inactive)
REMARK    1  A    between atoms: C_2  and  C_4
REMARK    2  A    between atoms: C_11  and  C_13
REMARK    3  A    between atoms: N_16  and  C_17
REMARK    4  A    between atoms: C_17  and  C_18
REMARK                            x       y       z     vdW  Elec       q    Type
REMARK                         _______ _______ _______ _____ _____    ______ ____
ROOT
ATOM      4  C   UNL     1      -2.691  -1.606  24.748  0.00  0.00    +0.076 A 
ATOM      5  C   UNL     1      -2.856  -2.383  24.526  0.00  0.00    +0.006 A 
ATOM      6  C   UNL     1      -3.595  -2.575  24.214  0.00  0.00    +0.002 A 
ATOM      7  C   UNL     1      -4.169  -1.990  24.123  0.00  0.00    +0.021 A 
ATOM      8  C   UNL     1      -4.005  -1.212  24.345  0.00  0.00    +0.100 A 
ATOM      9  C   UNL     1      -3.266  -1.020  24.657  0.00  0.00    +0.105 A 
ATOM     10  N   UNL     1      -3.262  -0.213  24.826  0.00  0.00    -0.229 NA
ATOM     11  C   UNL     1      -3.999   0.094  24.618  0.00  0.00    +0.140 A 
ATOM     12  N   UNL     1      -4.458  -0.524  24.321  0.00  0.00    -0.229 NA
ENDROOT
BRANCH  11  13
ATOM     13  C   UNL     1      -4.236   0.881  24.693  0.00  0.00    +0.076 C 
ATOM     14  C   UNL     1      -4.916   1.148  25.075  0.00  0.00    +0.026 C 
ATOM     15  C   UNL     1      -4.934   1.972  25.018  0.00  0.00    +0.073 C 
ATOM     16  N   UNL     1      -4.264   2.213  24.601  0.00  0.00    -0.267 NA
ATOM     24  C   UNL     1      -3.832   1.539  24.400  0.00  0.00    +0.080 C 
BRANCH  16  17
ATOM     17  C   UNL     1      -4.062   2.991  24.417  0.00  0.00    +0.119 C 
BRANCH  17  18
ATOM     18  C   UNL     1      -3.490   3.385  24.862  0.00  0.00    +0.075 A 
ATOM     19  N   UNL     1      -2.709   3.411  24.600  0.00  0.00    -0.247 NA
ATOM     20  C   UNL     1      -2.136   3.806  25.045  0.00  0.00    +0.098 A 
ATOM     21  C   UNL     1      -2.346   4.173  25.753  0.00  0.00    +0.021 A 
ATOM     22  C   UNL     1      -3.128   4.146  26.016  0.00  0.00    +0.003 A 
ATOM     23  C   UNL     1      -3.699   3.752  25.571  0.00  0.00    +0.016 A 
ENDBRANCH  17  18
ENDBRANCH  16  17
ENDBRANCH  11  13
BRANCH   4   2
ATOM      1  N   UNL     1      -1.302  -1.331  24.560  0.00  0.00    -0.084 NA
ATOM      2  C   UNL     1      -1.953  -1.414  25.060  0.00  0.00    +0.286 C 
ATOM      3  O   UNL     1      -1.864  -1.305  25.874  0.00  0.00    -0.267 OA
ENDBRANCH   4   2
TORSDOF 4
ENDMDL
MODEL 2
REMARK VINA RESULT:     -11.5      1.485      4.707
REMARK  Name = 
REMARK  4 active torsions:
REMARK  status: ('A' for Active; 'I' for Inactive)
REMARK    1  A    between atoms: C_2  and  C_4
REMARK    2  A    between atoms: C_11  and  C_13
REMARK    3  A    between atoms: N_16  and  C_17
REMARK    4  A    between atoms: C_17  and  C_18
REMARK                            x       y       z     vdW  Elec       q    Type
REMARK                         _______ _______ _______ _____ _____    ______ ____
ROOT
ATOM      4  C   UNL     1      -0.989   3.283  25.312  0.00  0.00    +0.076 A 
ATOM      5  C   UNL     1      -0.958   4.095  25.458  0.00  0.00    +0.006 A 
ATOM      6  C   UNL     1      -1.625   4.563  25.330  0.00  0.00    +0.002 A 
ATOM      7  C   UNL     1      -2.323   4.220  25.056  0.00  0.00    +0.021 A 
ATOM      8  C   UNL     1      -2.355   3.409  24.909  0.00  0.00    +0.100 A 
ATOM      9  C   UNL     1      -1.688   2.940  25.037  0.00  0.00    +0.105 A 
ATOM     10  N   UNL     1      -1.882   2.162  24.845  0.00  0.00    -0.229 NA
ATOM     11  C   UNL     1      -2.670   2.150  24.599  0.00  0.00    +0.140 A 
ATOM     12  N   UNL     1      -2.962   2.920  24.638  0.00  0.00    -0.229 NA
ENDROOT
BRANCH  11  13
ATOM     13  C   UNL     1      -3.091   1.484  24.355  0.00  0.00    +0.076 C 
ATOM     14  C   UNL     1      -3.138   1.194  23.585  0.00  0.00    +0.026 C 
ATOM     15  C   UNL     1      -3.616   0.521  23.593  0.00  0.00    +0.073 C 
ATOM     16  N   UNL     1      -3.864   0.395  24.370  0.00  0.00    -0.267 NA
ATOM     24  C   UNL     1      -3.540   0.989  24.841  0.00  0.00    +0.080 C 
BRANCH  16  17
ATOM     17  C   UNL     1      -4.351  -0.219  24.630  0.00  0.00    +0.119 C 
BRANCH  17  18
ATOM     18  C   UNL     1      -4.058  -0.988  24.670  0.00  0.00    +0.075 A 
ATOM     19  N   UNL     1      -3.626  -1.232  25.329  0.00  0.00    -0.247 NA
ATOM     20  C   UNL     1      -3.334  -2.003  25.369  0.00  0.00    +0.098 A 
ATOM     21  C   UNL     1      -3.474  -2.530  24.749  0.00  0.00    +0.021 A 
ATOM     22  C   UNL     1      -3.906  -2.286  24.091  0.00  0.00    +0.003 A 
ATOM     23  C   UNL     1      -4.198  -1.516  24.050  0.00  0.00    +0.016 A 
ENDBRANCH  17  18
ENDBRANCH  16  17
ENDBRANCH  11  13
BRANCH   4   2
ATOM      1  N   UNL     1      -0.143   2.552  26.200  0.00  0.00    -0.084 NA
ATOM      2  C   UNL     1      -0.323   2.816  25.439  0.00  0.00    +0.286 C 
ATOM      3  O   UNL     1       0.165   2.610  24.806  0.00  0.00    -0.267 OA
ENDBRANCH   4   2
TORSDOF 4
ENDMDL
MODEL 3
REMARK VINA RESULT:     -11.1      1.467      4.642
REMARK  Name = 
REMARK  4 active torsions:
REMARK  status: ('A' for Active; 'I' for Inactive)
REMARK    1  A    between atoms: C_2  and  C_4
REMARK    2  A    between atoms: C_11  and  C_13
REMARK    3  A    between atoms: N_16  and  C_17
REMARK    4  A    between atoms: C_17  and  C_18
REMARK                            x       y       z     vdW  Elec       q    Type
REMARK                         _______ _______ _______ _____ _____    ______ ____
ROOT
ATOM      4  C   UNL     1      -4.310   3.131  24.881  0.00  0.00    +0.076 A 
ATOM      5  C   UNL     1      -4.832   3.692  25.184  0.00  0.00    +0.006 A 
ATOM      6  C   UNL     1      -5.521   3.450  25.569  0.00  0.00    +0.002 A 
ATOM      7  C   UNL     1      -5.687   2.647  25.651  0.00  0.00    +0.021 A 
ATOM      8  C   UNL     1      -5.165   2.084  25.348  0.00  0.00    +0.100 A 
ATOM      9  C   UNL     1      -4.477   2.326  24.962  0.00  0.00    +0.105 A 
ATOM     10  N   UNL     1      -4.069   1.651  24.722  0.00  0.00    -0.229 NA
ATOM     11  C   UNL     1      -4.505   0.992  24.958  0.00  0.00    +0.140 A 
ATOM     12  N   UNL     1      -5.183   1.260  25.345  0.00  0.00    -0.229 NA
ENDROOT
BRANCH  11  13
ATOM     13  C   UNL     1      -4.300   0.203  24.830  0.00  0.00    +0.076 C 
ATOM     14  C   UNL     1      -4.512  -0.253  24.177  0.00  0.00    +0.026 C 
ATOM     15  C   UNL     1      -4.190  -1.007  24.276  0.00  0.00    +0.073 C 
ATOM     16  N   UNL     1      -3.777  -1.015  24.991  0.00  0.00    -0.267 NA
ATOM     24  C   UNL     1      -3.846  -0.267  25.334  0.00  0.00    +0.080 C 
BRANCH  16  17
ATOM     17  C   UNL     1      -3.369  -1.658  25.308  0.00  0.00    +0.119 C 
BRANCH  17  18
ATOM     18  C   UNL     1      -2.586  -1.797  25.090  0.00  0.00    +0.075 A 
ATOM     19  N   UNL     1      -1.978  -1.362  25.437  0.00  0.00    -0.247 NA
ATOM     20  C   UNL     1      -1.194  -1.502  25.219  0.00  0.00    +0.098 A 
ATOM     21  C   UNL     1      -1.020  -2.077  24.654  0.00  0.00    +0.021 A 
ATOM     22  C   UNL     1      -1.628  -2.512  24.307  0.00  0.00    +0.003 A 
ATOM     23  C   UNL     1      -2.411  -2.373  24.525  0.00  0.00    +0.016 A 
ENDBRANCH  17  18
ENDBRANCH  16  17
ENDBRANCH  11  13
BRANCH   4   2
ATOM      1  N   UNL     1      -2.949   3.560  24.933  0.00  0.00    -0.084 NA
ATOM      2  C   UNL     1      -3.623   3.372  24.496  0.00  0.00    +0.286 C 
ATOM      3  O   UNL     1      -3.608   3.426  23.672  0.00  0.00    -0.267 OA
ENDBRANCH   4   2
TORSDOF 4
ENDMDL
MODEL 4
REMARK VINA RESULT:     -11.0      1.976      5.267
REMARK  Name = 
REMARK  4 active torsions:
REMARK  status: ('A' for Active; 'I' for Inactive)
REMARK    1  A    between atoms: C_2  and  C_4
REMARK    2  A    between atoms: C_11  and  C_13
REMARK    3  A    between atoms: N_16  and  C_17
REMARK    4  A    between atoms: C_17  and  C_18
REMARK                            x       y       z     vdW  Elec       q    Type
REMARK                         _______ _______ _______ _____ _____    ______ ____
ROOT
ATOM      4  C   UNL     1      -2.228   3.992  25.217  0.00  0.00    +0.076 A 
ATOM      5  C   UNL     1      -1.895   4.747  25.201  0.00  0.00    +0.006 A 
ATOM      6  C   UNL     1      -1.083   4.838  25.085  0.00  0.00    +0.002 A 
ATOM      7  C   UNL     1      -0.604   4.174  24.985  0.00  0.00    +0.021 A 
ATOM      8  C   UNL     1      -0.936   3.419  25.002  0.00  0.00    +0.100 A 
ATOM      9  C   UNL     1      -1.747   3.328  25.118  0.00  0.00    +0.105 A 
ATOM     10  N   UNL     1      -1.917   2.521  25.108  0.00  0.00    -0.229 NA
ATOM     11  C   UNL     1      -1.210   2.113  24.986  0.00  0.00    +0.140 A 
ATOM     12  N   UNL     1      -0.604   2.669  24.920  0.00  0.00    -0.229 NA
ENDROOT
BRANCH  11  13
ATOM     13  C   UNL     1      -1.125   1.294  24.937  0.00  0.00    +0.076 C 
ATOM     14  C   UNL     1      -0.730   0.882  24.342  0.00  0.00    +0.026 C 
ATOM     15  C   UNL     1      -0.781   0.076  24.513  0.00  0.00    +0.073 C 
ATOM     16  N   UNL     1      -1.207  -0.010  25.214  0.00  0.00    -0.267 NA
ATOM     24  C   UNL     1      -1.420   0.743  25.477  0.00  0.00    +0.080 C 
BRANCH  16  17
ATOM     17  C   UNL     1      -1.389  -0.722  25.587  0.00  0.00    +0.119 C 
BRANCH  17  18
ATOM     18  C   UNL     1      -2.052  -1.154  25.353  0.00  0.00    +0.075 A 
ATOM     19  N   UNL     1      -1.990  -1.706  24.744  0.00  0.00    -0.247 NA
ATOM     20  C   UNL     1      -2.653  -2.138  24.509  0.00  0.00    +0.098 A 
ATOM     21  C   UNL     1      -3.378  -2.017  24.884  0.00  0.00    +0.021 A 
ATOM     22  C   UNL     1      -3.439  -1.464  25.493  0.00  0.00    +0.003 A 
ATOM     23  C   UNL     1      -2.777  -1.033  25.728  0.00  0.00    +0.016 A 
ENDBRANCH  17  18
ENDBRANCH  16  17
ENDBRANCH  11  13
BRANCH   4   2
ATOM      1  N   UNL     1      -3.350   3.909  26.097  0.00  0.00    -0.084 NA
ATOM      2  C   UNL     1      -3.038   3.901  25.333  0.00  0.00    +0.286 C 
ATOM      3  O   UNL     1      -3.540   3.801  24.685  0.00  0.00    -0.267 OA
ENDBRANCH   4   2
TORSDOF 4
ENDMDL
MODEL 5
REMARK VINA RESULT:     -11.0      1.637      2.680
REMARK  Name = 
REMARK  4 active torsions:
REMARK  status: ('A' for Active; 'I' for Inactive)
REMARK    1  A    between atoms: C_2  and  C_4
REMARK    2  A    between atoms: C_11  and  C_13
REMARK    3  A    between atoms: N_16  and  C_17
REMARK    4  A    between atoms: C_17  and  C_18
REMARK                            x       y       z     vdW  Elec       q    Type
REMARK                         _______ _______ _______ _____ _____    ______ ____
ROOT
ATOM      4  C   UNL     1      -3.118  -1.330  24.800  0.00  0.00    +0.076 A 
ATOM      5  C   UNL     1      -3.119  -2.151  24.722  0.00  0.00    +0.006 A 
ATOM      6  C   UNL     1      -2.405  -2.560  24.654  0.00  0.00    +0.002 A 
ATOM      7  C   UNL     1      -1.691  -2.148  24.665  0.00  0.00    +0.021 A 
ATOM      8  C   UNL     1      -1.690  -1.326  24.743  0.00  0.00    +0.100 A 
ATOM      9  C   UNL     1      -2.403  -0.917  24.811  0.00  0.00    +0.105 A 
ATOM     10  N   UNL     1      -2.232  -0.114  24.881  0.00  0.00    -0.229 NA
ATOM     11  C   UNL     1      -1.411  -0.026  24.856  0.00  0.00    +0.140 A 
ATOM     12  N   UNL     1      -1.077  -0.775  24.772  0.00  0.00    -0.229 NA
ENDROOT
BRANCH  11  13
ATOM     13  C   UNL     1      -0.998   0.686  24.908  0.00  0.00    +0.076 C 
ATOM     14  C   UNL     1      -0.435   0.960  24.371  0.00  0.00    +0.026 C 
ATOM     15  C   UNL     1      -0.165   1.693  24.637  0.00  0.00    +0.073 C 
ATOM     16  N   UNL     1      -0.561   1.872  25.338  0.00  0.00    -0.267 NA
ATOM     24  C   UNL     1      -1.076   1.250  25.506  0.00  0.00    +0.080 C 
BRANCH  16  17
ATOM     17  C   UNL     1      -0.460   2.554  25.792  0.00  0.00    +0.119 C 
BRANCH  17  18
ATOM     18  C   UNL     1      -0.899   3.231  25.623  0.00  0.00    +0.075 A 
ATOM     19  N   UNL     1      -1.667   3.309  25.913  0.00  0.00    -0.247 NA
ATOM     20  C   UNL     1      -2.106   3.987  25.743  0.00  0.00    +0.098 A 
ATOM     21  C   UNL     1      -1.776   4.587  25.283  0.00  0.00    +0.021 A 
ATOM     22  C   UNL     1      -1.008   4.509  24.993  0.00  0.00    +0.003 A 
ATOM     23  C   UNL     1      -0.569   3.832  25.162  0.00  0.00    +0.016 A 
ENDBRANCH  17  18
ENDBRANCH  16  17
ENDBRANCH  11  13
BRANCH   4   2
ATOM      1  N   UNL     1      -4.283  -0.766  24.196  0.00  0.00    -0.084 NA
ATOM      2  C   UNL     1      -3.831  -0.922  24.868  0.00  0.00    +0.286 C 
ATOM      3  O   UNL     1      -4.093  -0.669  25.609  0.00  0.00    -0.267 OA
ENDBRANCH   4   2
TORSDOF 4
ENDMDL
MODEL 6
REMARK VINA RESULT:      -8.7     17.152     19.158
REMARK  Name = 
REMARK  4 active torsions:
REMARK  status: ('A' for Active; 'I' for Inactive)
REMARK    1  A    between atoms: C_2  and  C_4
REMARK    2  A    between atoms: C_11  and  C_13
REMARK    3  A    between atoms: N_16  and  C_17
REMARK    4  A    between atoms: C_17  and  C_18
REMARK                            x       y       z     vdW  Elec       q    Type
REMARK                         _______ _______ _______ _____ _____    ______ ____
ROOT
ATOM      4  C   UNL     1      11.333   6.976  21.585  0.00  0.00    +0.076 A 
ATOM      5  C   UNL     1      10.642   7.329  21.865  0.00  0.00    +0.006 A 
ATOM      6  C   UNL     1      10.670   8.080  22.205  0.00  0.00    +0.002 A 
ATOM      7  C   UNL     1      11.389   8.478  22.266  0.00  0.00    +0.021 A 
ATOM      8  C   UNL     1      12.081   8.126  21.987  0.00  0.00    +0.100 A 
ATOM      9  C   UNL     1      12.053   7.375  21.646  0.00  0.00    +0.105 A 
ATOM     10  N   UNL     1      12.819   7.168  21.421  0.00  0.00    -0.229 NA
ATOM     11  C   UNL     1      13.321   7.792  21.623  0.00  0.00    +0.140 A 
ATOM     12  N   UNL     1      12.864   8.383  21.972  0.00  0.00    -0.229 NA
ENDROOT
BRANCH  11  13
ATOM     13  C   UNL     1      14.136   7.819  21.497  0.00  0.00    +0.076 C 
ATOM     14  C   UNL     1      14.719   7.729  22.073  0.00  0.00    +0.026 C 
ATOM     15  C   UNL     1      15.454   7.795  21.705  0.00  0.00    +0.073 C 
ATOM     16  N   UNL     1      15.326   7.925  20.900  0.00  0.00    -0.267 NA
ATOM     24  C   UNL     1      14.510   7.940  20.771  0.00  0.00    +0.080 C 
BRANCH  16  17
ATOM     17  C   UNL     1      15.909   8.023  20.325  0.00  0.00    +0.119 C 
BRANCH  17  18
ATOM     18  C   UNL     1      16.275   7.363  19.993  0.00  0.00    +0.075 A 
ATOM     19  N   UNL     1      15.915   6.961  19.370  0.00  0.00    -0.247 NA
ATOM     20  C   UNL     1      16.282   6.300  19.037  0.00  0.00    +0.098 A 
ATOM     21  C   UNL     1      17.010   6.044  19.328  0.00  0.00    +0.021 A 
ATOM     22  C   UNL     1      17.370   6.446  19.951  0.00  0.00    +0.003 A 
ATOM     23  C   UNL     1      17.004   7.106  20.283  0.00  0.00    +0.016 A 
ENDBRANCH  17  18
ENDBRANCH  16  17
ENDBRANCH  11  13
BRANCH   4   2
ATOM      1  N   UNL     1      11.229   5.558  21.723  0.00  0.00    -0.084 NA
ATOM      2  C   UNL     1      11.305   6.226  21.245  0.00  0.00    +0.286 C 
ATOM      3  O   UNL     1      11.352   6.142  20.425  0.00  0.00    -0.267 OA
ENDBRANCH   4   2
TORSDOF 4
ENDMDL
MODEL 7
REMARK VINA RESULT:      -8.0     17.586     19.385
REMARK  Name = 
REMARK  4 active torsions:
REMARK  status: ('A' for Active; 'I' for Inactive)
REMARK    1  A    between atoms: C_2  and  C_4
REMARK    2  A    between atoms: C_11  and  C_13
REMARK    3  A    between atoms: N_16  and  C_17
REMARK    4  A    between atoms: C_17  and  C_18
REMARK                            x       y       z     vdW  Elec       q    Type
REMARK                         _______ _______ _______ _____ _____    ______ ____
ROOT
ATOM      4  C   UNL     1      16.757   6.326  19.743  0.00  0.00    +0.076 A 
ATOM      5  C   UNL     1      17.405   6.494  20.224  0.00  0.00    +0.006 A 
ATOM      6  C   UNL     1      17.297   6.885  20.943  0.00  0.00    +0.002 A 
ATOM      7  C   UNL     1      16.540   7.107  21.180  0.00  0.00    +0.021 A 
ATOM      8  C   UNL     1      15.890   6.940  20.700  0.00  0.00    +0.100 A 
ATOM      9  C   UNL     1      15.998   6.549  19.982  0.00  0.00    +0.105 A 
ATOM     10  N   UNL     1      15.260   6.458  19.627  0.00  0.00    -0.229 NA
ATOM     11  C   UNL     1      14.694   6.793  20.126  0.00  0.00    +0.140 A 
ATOM     12  N   UNL     1      15.084   7.090  20.789  0.00  0.00    -0.229 NA
ENDROOT
BRANCH  11  13
ATOM     13  C   UNL     1      13.882   6.825  19.986  0.00  0.00    +0.076 C 
ATOM     14  C   UNL     1      13.519   7.088  19.295  0.00  0.00    +0.026 C 
ATOM     15  C   UNL     1      12.702   7.025  19.395  0.00  0.00    +0.073 C 
ATOM     16  N   UNL     1      12.560   6.722  20.149  0.00  0.00    -0.267 NA
ATOM     24  C   UNL     1      13.289   6.598  20.515  0.00  0.00    +0.080 C 
BRANCH  16  17
ATOM     17  C   UNL     1      11.820   6.569  20.479  0.00  0.00    +0.119 C 
BRANCH  17  18
ATOM     18  C   UNL     1      11.427   7.159  20.901  0.00  0.00    +0.075 A 
ATOM     19  N   UNL     1      11.021   7.754  20.498  0.00  0.00    -0.247 NA
ATOM     20  C   UNL     1      10.628   8.344  20.920  0.00  0.00    +0.098 A 
ATOM     21  C   UNL     1      10.640   8.338  21.745  0.00  0.00    +0.021 A 
ATOM     22  C   UNL     1      11.046   7.743  22.148  0.00  0.00    +0.003 A 
ATOM     23  C   UNL     1      11.439   7.154  21.726  0.00  0.00    +0.016 A 
ENDBRANCH  17  18
ENDBRANCH  16  17
ENDBRANCH  11  13
BRANCH   4   2
ATOM      1  N   UNL     1      17.120   5.152  19.016  0.00  0.00    -0.084 NA
ATOM      2  C   UNL     1      16.865   5.936  19.026  0.00  0.00    +0.286 C 
ATOM      3  O   UNL     1      16.718   6.330  18.315  0.00  0.00    -0.267 OA
ENDBRANCH   4   2
TORSDOF 4
ENDMDL
