MODEL 1
REMARK VINA RESULT:     -10.4      0.000      0.000
REMARK  Name = 
REMARK  5 active torsions:
REMARK  status: ('A' for Active; 'I' for Inactive)
REMARK    1  A    between atoms: N_2  and  C_3
REMARK    2  A    between atoms: C_6  and  C_9
REMARK    3  A    between atoms: C_12  and  C_14
REMARK    4  A    between atoms: N_18  and  C_19
REMARK    5  A    between atoms: C_19  and  C_20
REMARK                            x       y       z     vdW  Elec       q    Type
REMARK                         _______ _______ _______ _____ _____    ______ ____
ROOT
ATOM      9  C   UNL     1      -3.799   0.577  24.494  0.00  0.00    +0.205 A 
ATOM     10  N   UNL     1      -3.595   0.944  23.785  0.00  0.00    -0.056 NA
ATOM     11  O   UNL     1      -3.753   1.750  23.860  0.00  0.00    -0.336 OA
ATOM     12  C   UNL     1      -4.055   1.882  24.616  0.00  0.00    +0.251 A 
ATOM     13  N   UNL     1      -4.084   1.156  25.009  0.00  0.00    -0.190 NA
ENDROOT
BRANCH   9   6
ATOM      3  C   UNL     1      -3.595  -1.839  24.994  0.00  0.00    +0.148 A 
ATOM      4  C   UNL     1      -3.962  -1.592  24.299  0.00  0.00    +0.036 A 
ATOM      5  C   UNL     1      -4.030  -0.787  24.132  0.00  0.00    +0.008 A 
ATOM      6  C   UNL     1      -3.731  -0.229  24.661  0.00  0.00    +0.058 A 
ATOM      7  C   UNL     1      -3.364  -0.477  25.358  0.00  0.00    +0.103 A 
ATOM      8  N   UNL     1      -3.296  -1.282  25.524  0.00  0.00    -0.228 NA
BRANCH   3   2
ATOM      1  C   UNL     1      -3.220  -3.159  24.594  0.00  0.00    +0.137 C 
ATOM      2  N   UNL     1      -3.527  -2.644  25.161  0.00  0.00    -0.218 NA
ENDBRANCH   3   2
ENDBRANCH   9   6
BRANCH  12  14
ATOM     14  C   UNL     1      -4.287   2.610  24.926  0.00  0.00    +0.138 C 
ATOM     15  C   UNL     1      -5.063   2.853  25.060  0.00  0.00    +0.027 C 
ATOM     16  C   UNL     1      -5.040   3.616  25.374  0.00  0.00    +0.019 C 
ATOM     17  C   UNL     1      -4.250   3.844  25.432  0.00  0.00    +0.073 C 
ATOM     18  N   UNL     1      -3.785   3.222  25.156  0.00  0.00    -0.266 NA
BRANCH  18  19
ATOM     19  C   UNL     1      -2.961   3.214  25.116  0.00  0.00    +0.072 C 
BRANCH  19  20
ATOM     20  C   UNL     1      -2.529   3.868  25.371  0.00  0.00    +0.015 C 
ATOM     21  C   UNL     1      -2.097   4.524  25.626  0.00  0.00    +0.001 C 
ATOM     22  C   UNL     1      -2.588   4.202  24.618  0.00  0.00    +0.001 C 
ATOM     23  C   UNL     1      -2.469   3.536  26.124  0.00  0.00    +0.001 C 
ENDBRANCH  19  20
ENDBRANCH  18  19
ENDBRANCH  12  14
TORSDOF 5
ENDMDL
MODEL 2
REMARK VINA RESULT:      -9.9      1.394      4.547
REMARK  Name = 
REMARK  5 active torsions:
REMARK  status: ('A' for Active; 'I' for Inactive)
REMARK    1  A    between atoms: N_2  and  C_3
REMARK    2  A    between atoms: C_6  and  C_9
REMARK    3  A    between atoms: C_12  and  C_14
REMARK    4  A    between atoms: N_18  and  C_19
REMARK    5  A    between atoms: C_19  and  C_20
REMARK                            x       y       z     vdW  Elec       q    Type
REMARK                         _______ _______ _______ _____ _____    ______ ____
ROOT
ATOM      9  C   UNL     1      -4.144   0.843  24.518  0.00  0.00    +0.205 A 
ATOM     10  N   UNL     1      -3.833   0.811  23.755  0.00  0.00    -0.056 NA
ATOM     11  O   UNL     1      -3.513   0.058  23.641  0.00  0.00    -0.336 OA
ATOM     12  C   UNL     1      -3.627  -0.375  24.334  0.00  0.00    +0.251 A 
ATOM     13  N   UNL     1      -4.018   0.110  24.877  0.00  0.00    -0.190 NA
ENDROOT
BRANCH   9   6
ATOM      3  C   UNL     1      -5.263   2.793  25.552  0.00  0.00    +0.148 A 
ATOM      4  C   UNL     1      -5.699   2.117  25.370  0.00  0.00    +0.036 A 
ATOM      5  C   UNL     1      -5.326   1.467  25.026  0.00  0.00    +0.008 A 
ATOM      6  C   UNL     1      -4.517   1.493  24.863  0.00  0.00    +0.058 A 
ATOM      7  C   UNL     1      -4.082   2.170  25.045  0.00  0.00    +0.103 A 
ATOM      8  N   UNL     1      -4.455   2.820  25.390  0.00  0.00    -0.228 NA
BRANCH   3   2
ATOM      1  C   UNL     1      -5.621   4.177  25.518  0.00  0.00    +0.137 C 
ATOM      2  N   UNL     1      -5.637   3.443  25.897  0.00  0.00    -0.218 NA
ENDBRANCH   3   2
ENDBRANCH   9   6
BRANCH  12  14
ATOM     14  C   UNL     1      -3.393  -1.155  24.463  0.00  0.00    +0.138 C 
ATOM     15  C   UNL     1      -3.870  -1.823  24.384  0.00  0.00    +0.027 C 
ATOM     16  C   UNL     1      -3.412  -2.485  24.566  0.00  0.00    +0.019 C 
ATOM     17  C   UNL     1      -2.652  -2.226  24.756  0.00  0.00    +0.073 C 
ATOM     18  N   UNL     1      -2.641  -1.404  24.693  0.00  0.00    -0.266 NA
BRANCH  18  19
ATOM     19  C   UNL     1      -1.991  -0.916  24.834  0.00  0.00    +0.072 C 
BRANCH  19  20
ATOM     20  C   UNL     1      -1.278  -1.243  25.092  0.00  0.00    +0.015 C 
ATOM     21  C   UNL     1      -0.566  -1.569  25.350  0.00  0.00    +0.001 C 
ATOM     22  C   UNL     1      -1.068  -1.402  24.310  0.00  0.00    +0.001 C 
ATOM     23  C   UNL     1      -1.488  -1.083  25.873  0.00  0.00    +0.001 C 
ENDBRANCH  19  20
ENDBRANCH  18  19
ENDBRANCH  12  14
TORSDOF 5
ENDMDL
MODEL 3
REMARK VINA RESULT:      -9.7      1.777      2.459
REMARK  Name = 
REMARK  5 active torsions:
REMARK  status: ('A' for Active; 'I' for Inactive)
REMARK    1  A    between atoms: N_2  and  C_3
REMARK    2  A    between atoms: C_6  and  C_9
REMARK    3  A    between atoms: C_12  and  C_14
REMARK    4  A    between atoms: N_18  and  C_19
REMARK    5  A    between atoms: C_19  and  C_20
REMARK                            x       y       z     vdW  Elec       q    Type
REMARK                         _______ _______ _______ _____ _____    ______ ____
ROOT
ATOM      9  C   UNL     1      -2.020   0.662  24.408  0.00  0.00    +0.205 A 
ATOM     10  N   UNL     1      -1.537   0.922  23.792  0.00  0.00    -0.056 NA
ATOM     11  O   UNL     1      -1.022   1.491  24.094  0.00  0.00    -0.336 OA
ATOM     12  C   UNL     1      -1.187   1.583  24.897  0.00  0.00    +0.251 A 
ATOM     13  N   UNL     1      -1.804   1.071  25.091  0.00  0.00    -0.190 NA
ENDROOT
BRANCH   9   6
ATOM      3  C   UNL     1      -3.805  -1.044  24.237  0.00  0.00    +0.148 A 
ATOM      4  C   UNL     1      -3.960  -0.263  24.025  0.00  0.00    +0.036 A 
ATOM      5  C   UNL     1      -3.365   0.306  24.082  0.00  0.00    +0.008 A 
ATOM      6  C   UNL     1      -2.615   0.093  24.351  0.00  0.00    +0.058 A 
ATOM      7  C   UNL     1      -2.460  -0.689  24.563  0.00  0.00    +0.103 A 
ATOM      8  N   UNL     1      -3.055  -1.258  24.506  0.00  0.00    -0.228 NA
BRANCH   3   2
ATOM      1  C   UNL     1      -4.250  -2.331  23.801  0.00  0.00    +0.137 C 
ATOM      2  N   UNL     1      -4.400  -1.613  24.180  0.00  0.00    -0.218 NA
ENDBRANCH   3   2
ENDBRANCH   9   6
BRANCH  12  14
ATOM     14  C   UNL     1      -0.803   2.097  25.416  0.00  0.00    +0.138 C 
ATOM     15  C   UNL     1      -0.225   1.888  25.966  0.00  0.00    +0.027 C 
ATOM     16  C   UNL     1       0.006   2.573  26.365  0.00  0.00    +0.019 C 
ATOM     17  C   UNL     1      -0.429   3.204  26.061  0.00  0.00    +0.073 C 
ATOM     18  N   UNL     1      -0.928   2.910  25.475  0.00  0.00    -0.266 NA
BRANCH  18  19
ATOM     19  C   UNL     1      -1.461   3.353  25.026  0.00  0.00    +0.072 C 
BRANCH  19  20
ATOM     20  C   UNL     1      -1.533   4.164  25.153  0.00  0.00    +0.015 C 
ATOM     21  C   UNL     1      -1.605   4.977  25.280  0.00  0.00    +0.001 C 
ATOM     22  C   UNL     1      -0.891   4.301  24.652  0.00  0.00    +0.001 C 
ATOM     23  C   UNL     1      -2.174   4.029  25.653  0.00  0.00    +0.001 C 
ENDBRANCH  19  20
ENDBRANCH  18  19
ENDBRANCH  12  14
TORSDOF 5
ENDMDL
MODEL 4
REMARK VINA RESULT:      -9.5      1.832      5.236
REMARK  Name = 
REMARK  5 active torsions:
REMARK  status: ('A' for Active; 'I' for Inactive)
REMARK    1  A    between atoms: N_2  and  C_3
REMARK    2  A    between atoms: C_6  and  C_9
REMARK    3  A    between atoms: C_12  and  C_14
REMARK    4  A    between atoms: N_18  and  C_19
REMARK    5  A    between atoms: C_19  and  C_20
REMARK                            x       y       z     vdW  Elec       q    Type
REMARK                         _______ _______ _______ _____ _____    ______ ____
ROOT
ATOM      9  C   UNL     1      -1.572   1.646  24.504  0.00  0.00    +0.205 A 
ATOM     10  N   UNL     1      -1.647   1.372  23.729  0.00  0.00    -0.056 NA
ATOM     11  O   UNL     1      -1.544   0.553  23.737  0.00  0.00    -0.336 OA
ATOM     12  C   UNL     1      -1.406   0.321  24.516  0.00  0.00    +0.251 A 
ATOM     13  N   UNL     1      -1.423   0.996  24.990  0.00  0.00    -0.190 NA
ENDROOT
BRANCH   9   6
ATOM      3  C   UNL     1      -1.761   4.001  25.240  0.00  0.00    +0.148 A 
ATOM      4  C   UNL     1      -1.020   3.646  25.183  0.00  0.00    +0.036 A 
ATOM      5  C   UNL     1      -0.957   2.861  24.938  0.00  0.00    +0.008 A 
ATOM      6  C   UNL     1      -1.635   2.431  24.749  0.00  0.00    +0.058 A 
ATOM      7  C   UNL     1      -2.378   2.788  24.806  0.00  0.00    +0.103 A 
ATOM      8  N   UNL     1      -2.441   3.573  25.051  0.00  0.00    -0.228 NA
BRANCH   3   2
ATOM      1  C   UNL     1      -1.426   5.381  25.074  0.00  0.00    +0.137 C 
ATOM      2  N   UNL     1      -1.824   4.786  25.485  0.00  0.00    -0.218 NA
ENDBRANCH   3   2
ENDBRANCH   9   6
BRANCH  12  14
ATOM     14  C   UNL     1      -1.274  -0.451  24.776  0.00  0.00    +0.138 C 
ATOM     15  C   UNL     1      -0.539  -0.787  24.940  0.00  0.00    +0.027 C 
ATOM     16  C   UNL     1      -0.664  -1.566  25.183  0.00  0.00    +0.019 C 
ATOM     17  C   UNL     1      -1.476  -1.710  25.168  0.00  0.00    +0.073 C 
ATOM     18  N   UNL     1      -1.853  -1.021  24.917  0.00  0.00    -0.266 NA
BRANCH  18  19
ATOM     19  C   UNL     1      -2.666  -0.920  24.823  0.00  0.00    +0.072 C 
BRANCH  19  20
ATOM     20  C   UNL     1      -3.182  -1.537  25.005  0.00  0.00    +0.015 C 
ATOM     21  C   UNL     1      -3.698  -2.154  25.187  0.00  0.00    +0.001 C 
ATOM     22  C   UNL     1      -3.272  -1.237  25.769  0.00  0.00    +0.001 C 
ATOM     23  C   UNL     1      -3.093  -1.837  24.242  0.00  0.00    +0.001 C 
ENDBRANCH  19  20
ENDBRANCH  18  19
ENDBRANCH  12  14
TORSDOF 5
ENDMDL
