MODEL 1
REMARK VINA RESULT:      -9.6      0.000      0.000
REMARK  Name = 
REMARK  8 active torsions:
REMARK  status: ('A' for Active; 'I' for Inactive)
REMARK    1  A    between atoms: O_2  and  C_3
REMARK    2  A    between atoms: C_3  and  C_4
REMARK    3  A    between atoms: C_4  and  N_5
REMARK    4  A    between atoms: N_8  and  C_9
REMARK    5  A    between atoms: C_9  and  C_10
REMARK    6  A    between atoms: C_14  and  C_15
REMARK    7  A    between atoms: C_15  and  C_16
REMARK    8  A    between atoms: C_23  and  C_24
REMARK                            x       y       z     vdW  Elec       q    Type
REMARK                         _______ _______ _______ _____ _____    ______ ____
ROOT
ATOM     10  C   UNL     1      -1.792   2.594  24.556  0.00  0.00    +0.037 C 
ATOM     11  C   UNL     1      -2.305   2.193  24.049  0.00  0.00    -0.034 C 
ATOM     12  C   UNL     1      -3.067   2.483  23.920  0.00  0.00    -0.048 C 
ATOM     13  C   UNL     1      -3.579   2.082  23.413  0.00  0.00    +0.026 C 
ATOM     14  C   UNL     1      -3.316   3.173  24.297  0.00  0.00    +0.027 C 
ATOM     22  C   UNL     1      -2.803   3.574  24.804  0.00  0.00    +0.005 C 
ATOM     23  C   UNL     1      -2.041   3.285  24.934  0.00  0.00    +0.006 C 
ENDROOT
BRANCH  23  24
ATOM     24  C   UNL     1      -1.528   3.686  25.441  0.00  0.00    +0.000 C 
ATOM     25  C   UNL     1      -1.563   3.550  26.254  0.00  0.00    +0.000 C 
ATOM     26  C   UNL     1      -0.982   4.222  25.134  0.00  0.00    +0.000 C 
ENDBRANCH  23  24
BRANCH  10   9
ATOM      9  C   UNL     1      -1.031   2.305  24.686  0.00  0.00    +0.076 C 
BRANCH   9   8
ATOM      5  N   UNL     1      -0.604  -0.133  24.616  0.00  0.00    -0.268 NA
ATOM      6  C   UNL     1      -0.424   0.338  23.962  0.00  0.00    +0.090 C 
ATOM      7  C   UNL     1      -0.566   1.149  23.985  0.00  0.00    +0.090 C 
ATOM      8  N   UNL     1      -0.888   1.492  24.663  0.00  0.00    -0.270 NA
ATOM     27  C   UNL     1      -1.069   1.023  25.317  0.00  0.00    +0.090 C 
ATOM     28  C   UNL     1      -0.927   0.210  25.293  0.00  0.00    +0.090 C 
BRANCH   5   4
ATOM      4  C   UNL     1      -0.463  -0.944  24.592  0.00  0.00    +0.105 C 
BRANCH   4   3
ATOM      3  C   UNL     1      -1.093  -1.474  24.641  0.00  0.00    +0.160 C 
BRANCH   3   2
ATOM      1  C   UNL     1      -1.615  -2.785  24.411  0.00  0.00    +0.174 C 
ATOM      2  O   UNL     1      -0.970  -2.276  24.493  0.00  0.00    -0.350 OA
ENDBRANCH   3   2
ENDBRANCH   4   3
ENDBRANCH   5   4
ENDBRANCH   9   8
ENDBRANCH  10   9
BRANCH  14  15
ATOM     15  C   UNL     1      -4.077   3.462  24.168  0.00  0.00    +0.091 C 
BRANCH  15  16
ATOM     16  C   UNL     1      -4.631   3.453  24.779  0.00  0.00    +0.226 A 
ATOM     17  N   UNL     1      -4.890   4.107  25.209  0.00  0.00    -0.112 NA
ATOM     18  N   UNL     1      -5.442   3.846  25.764  0.00  0.00    -0.112 NA
ATOM     19  C   UNL     1      -5.524   3.030  25.677  0.00  0.00    +0.227 A 
ATOM     20  C   UNL     1      -6.020   2.542  26.120  0.00  0.00    +0.097 C 
ATOM     21  O   UNL     1      -5.023   2.786  25.068  0.00  0.00    -0.423 OA
ENDBRANCH  15  16
ENDBRANCH  14  15
TORSDOF 8
ENDMDL
MODEL 2
REMARK VINA RESULT:      -9.6      1.880      3.134
REMARK  Name = 
REMARK  8 active torsions:
REMARK  status: ('A' for Active; 'I' for Inactive)
REMARK    1  A    between atoms: O_2  and  C_3
REMARK    2  A    between atoms: C_3  and  C_4
REMARK    3  A    between atoms: C_4  and  N_5
REMARK    4  A    between atoms: N_8  and  C_9
REMARK    5  A    between atoms: C_9  and  C_10
REMARK    6  A    between atoms: C_14  and  C_15
REMARK    7  A    between atoms: C_15  and  C_16
REMARK    8  A    between atoms: C_23  and  C_24
REMARK                            x       y       z     vdW  Elec       q    Type
REMARK                         _______ _______ _______ _____ _____    ______ ____
ROOT
ATOM     10  C   UNL     1      -4.525   1.136  24.532  0.00  0.00    +0.037 C 
ATOM     11  C   UNL     1      -3.848   1.132  24.061  0.00  0.00    -0.034 C 
ATOM     12  C   UNL     1      -3.516   1.845  23.811  0.00  0.00    -0.048 C 
ATOM     13  C   UNL     1      -2.839   1.842  23.339  0.00  0.00    +0.026 C 
ATOM     14  C   UNL     1      -3.861   2.561  24.032  0.00  0.00    +0.027 C 
ATOM     22  C   UNL     1      -4.538   2.564  24.503  0.00  0.00    +0.005 C 
ATOM     23  C   UNL     1      -4.871   1.852  24.754  0.00  0.00    +0.006 C 
ENDROOT
BRANCH  23  24
ATOM     24  C   UNL     1      -5.548   1.856  25.225  0.00  0.00    +0.000 C 
ATOM     25  C   UNL     1      -6.292   1.786  24.877  0.00  0.00    +0.000 C 
ATOM     26  C   UNL     1      -5.479   1.929  26.043  0.00  0.00    +0.000 C 
ENDBRANCH  23  24
BRANCH  10   9
ATOM      9  C   UNL     1      -4.857   0.424  24.783  0.00  0.00    +0.076 C 
BRANCH   9   8
ATOM      5  N   UNL     1      -3.490  -1.640  24.799  0.00  0.00    -0.268 NA
ATOM      6  C   UNL     1      -3.459  -1.119  25.438  0.00  0.00    +0.090 C 
ATOM      7  C   UNL     1      -3.914  -0.432  25.433  0.00  0.00    +0.090 C 
ATOM      8  N   UNL     1      -4.401  -0.265  24.788  0.00  0.00    -0.270 NA
ATOM     27  C   UNL     1      -4.433  -0.785  24.149  0.00  0.00    +0.090 C 
ATOM     28  C   UNL     1      -3.977  -1.473  24.154  0.00  0.00    +0.090 C 
BRANCH   5   4
ATOM      4  C   UNL     1      -3.035  -2.328  24.804  0.00  0.00    +0.105 C 
BRANCH   4   3
ATOM      3  C   UNL     1      -2.250  -2.304  24.552  0.00  0.00    +0.160 C 
BRANCH   3   2
ATOM      1  C   UNL     1      -0.935  -2.860  24.621  0.00  0.00    +0.174 C 
ATOM      2  O   UNL     1      -1.752  -2.948  24.689  0.00  0.00    -0.350 OA
ENDBRANCH   3   2
ENDBRANCH   4   3
ENDBRANCH   5   4
ENDBRANCH   9   8
ENDBRANCH  10   9
BRANCH  14  15
ATOM     15  C   UNL     1      -3.530   3.274  23.781  0.00  0.00    +0.091 C 
BRANCH  15  16
ATOM     16  C   UNL     1      -3.172   3.777  24.329  0.00  0.00    +0.226 A 
ATOM     17  N   UNL     1      -3.537   4.401  24.726  0.00  0.00    -0.112 NA
ATOM     18  N   UNL     1      -2.977   4.753  25.219  0.00  0.00    -0.112 NA
ATOM     19  C   UNL     1      -2.265   4.347  25.127  0.00  0.00    +0.227 A 
ATOM     20  C   UNL     1      -1.557   4.514  25.516  0.00  0.00    +0.097 C 
ATOM     21  O   UNL     1      -2.385   3.743  24.577  0.00  0.00    -0.423 OA
ENDBRANCH  15  16
ENDBRANCH  14  15
TORSDOF 8
ENDMDL
MODEL 3
REMARK VINA RESULT:      -9.5      2.258      4.556
REMARK  Name = 
REMARK  8 active torsions:
REMARK  status: ('A' for Active; 'I' for Inactive)
REMARK    1  A    between atoms: O_2  and  C_3
REMARK    2  A    between atoms: C_3  and  C_4
REMARK    3  A    between atoms: C_4  and  N_5
REMARK    4  A    between atoms: N_8  and  C_9
REMARK    5  A    between atoms: C_9  and  C_10
REMARK    6  A    between atoms: C_14  and  C_15
REMARK    7  A    between atoms: C_15  and  C_16
REMARK    8  A    between atoms: C_23  and  C_24
REMARK                            x       y       z     vdW  Elec       q    Type
REMARK                         _______ _______ _______ _____ _____    ______ ____
ROOT
ATOM     10  C   UNL     1      -1.521   0.363  25.011  0.00  0.00    +0.037 C 
ATOM     11  C   UNL     1      -2.201   0.829  24.979  0.00  0.00    -0.034 C 
ATOM     12  C   UNL     1      -2.945   0.472  24.999  0.00  0.00    -0.048 C 
ATOM     13  C   UNL     1      -3.626   0.938  24.967  0.00  0.00    +0.026 C 
ATOM     14  C   UNL     1      -3.009  -0.348  25.051  0.00  0.00    +0.027 C 
ATOM     22  C   UNL     1      -2.329  -0.813  25.083  0.00  0.00    +0.005 C 
ATOM     23  C   UNL     1      -1.584  -0.458  25.063  0.00  0.00    +0.006 C 
ENDROOT
BRANCH  23  24
ATOM     24  C   UNL     1      -0.904  -0.924  25.095  0.00  0.00    +0.000 C 
ATOM     25  C   UNL     1      -0.633  -1.208  25.821  0.00  0.00    +0.000 C 
ATOM     26  C   UNL     1      -0.495  -1.104  24.402  0.00  0.00    +0.000 C 
ENDBRANCH  23  24
BRANCH  10   9
ATOM      9  C   UNL     1      -0.776   0.718  24.991  0.00  0.00    +0.076 C 
BRANCH   9   8
ATOM      5  N   UNL     1      -0.582   3.185  25.058  0.00  0.00    -0.268 NA
ATOM      6  C   UNL     1      -0.634   2.795  24.333  0.00  0.00    +0.090 C 
ATOM      7  C   UNL     1      -0.699   1.973  24.310  0.00  0.00    +0.090 C 
ATOM      8  N   UNL     1      -0.712   1.541  25.013  0.00  0.00    -0.270 NA
ATOM     27  C   UNL     1      -0.659   1.931  25.738  0.00  0.00    +0.090 C 
ATOM     28  C   UNL     1      -0.594   2.753  25.760  0.00  0.00    +0.090 C 
BRANCH   5   4
ATOM      4  C   UNL     1      -0.517   4.007  25.080  0.00  0.00    +0.105 C 
BRANCH   4   3
ATOM      3  C   UNL     1      -1.197   4.474  25.086  0.00  0.00    +0.160 C 
BRANCH   3   2
ATOM      1  C   UNL     1      -1.812   5.764  25.092  0.00  0.00    +0.174 C 
ATOM      2  O   UNL     1      -1.133   5.297  25.093  0.00  0.00    -0.350 OA
ENDBRANCH   3   2
ENDBRANCH   4   3
ENDBRANCH   5   4
ENDBRANCH   9   8
ENDBRANCH  10   9
BRANCH  14  15
ATOM     15  C   UNL     1      -3.753  -0.704  25.072  0.00  0.00    +0.091 C 
BRANCH  15  16
ATOM     16  C   UNL     1      -3.909  -1.360  24.596  0.00  0.00    +0.226 A 
ATOM     17  N   UNL     1      -4.218  -1.342  23.831  0.00  0.00    -0.112 NA
ATOM     18  N   UNL     1      -4.283  -2.120  23.564  0.00  0.00    -0.112 NA
ATOM     19  C   UNL     1      -4.015  -2.619  24.163  0.00  0.00    +0.227 A 
ATOM     20  C   UNL     1      -3.983  -3.442  24.131  0.00  0.00    +0.097 C 
ATOM     21  O   UNL     1      -3.783  -2.149  24.801  0.00  0.00    -0.423 OA
ENDBRANCH  15  16
ENDBRANCH  14  15
TORSDOF 8
ENDMDL
MODEL 4
REMARK VINA RESULT:      -9.5      2.158      4.772
REMARK  Name = 
REMARK  8 active torsions:
REMARK  status: ('A' for Active; 'I' for Inactive)
REMARK    1  A    between atoms: O_2  and  C_3
REMARK    2  A    between atoms: C_3  and  C_4
REMARK    3  A    between atoms: C_4  and  N_5
REMARK    4  A    between atoms: N_8  and  C_9
REMARK    5  A    between atoms: C_9  and  C_10
REMARK    6  A    between atoms: C_14  and  C_15
REMARK    7  A    between atoms: C_15  and  C_16
REMARK    8  A    between atoms: C_23  and  C_24
REMARK                            x       y       z     vdW  Elec       q    Type
REMARK                         _______ _______ _______ _____ _____    ______ ____
ROOT
ATOM     10  C   UNL     1      -4.265   1.829  24.781  0.00  0.00    +0.037 C 
ATOM     11  C   UNL     1      -3.542   1.735  24.395  0.00  0.00    -0.034 C 
ATOM     12  C   UNL     1      -3.366   1.022  24.017  0.00  0.00    -0.048 C 
ATOM     13  C   UNL     1      -2.643   0.928  23.632  0.00  0.00    +0.026 C 
ATOM     14  C   UNL     1      -3.912   0.405  24.024  0.00  0.00    +0.027 C 
ATOM     22  C   UNL     1      -4.636   0.499  24.410  0.00  0.00    +0.005 C 
ATOM     23  C   UNL     1      -4.813   1.211  24.788  0.00  0.00    +0.006 C 
ENDROOT
BRANCH  23  24
ATOM     24  C   UNL     1      -5.536   1.305  25.173  0.00  0.00    +0.000 C 
ATOM     25  C   UNL     1      -5.613   1.085  25.965  0.00  0.00    +0.000 C 
ATOM     26  C   UNL     1      -6.182   1.617  24.767  0.00  0.00    +0.000 C 
ENDBRANCH  23  24
BRANCH  10   9
ATOM      9  C   UNL     1      -4.442   2.540  25.159  0.00  0.00    +0.076 C 
BRANCH   9   8
ATOM      5  N   UNL     1      -2.720   4.310  25.331  0.00  0.00    -0.268 NA
ATOM      6  C   UNL     1      -3.215   4.278  24.672  0.00  0.00    +0.090 C 
ATOM      7  C   UNL     1      -3.789   3.689  24.614  0.00  0.00    +0.090 C 
ATOM      8  N   UNL     1      -3.868   3.130  25.216  0.00  0.00    -0.270 NA
ATOM     27  C   UNL     1      -3.373   3.161  25.876  0.00  0.00    +0.090 C 
ATOM     28  C   UNL     1      -2.799   3.751  25.933  0.00  0.00    +0.090 C 
BRANCH   5   4
ATOM      4  C   UNL     1      -2.146   4.899  25.388  0.00  0.00    +0.105 C 
BRANCH   4   3
ATOM      3  C   UNL     1      -1.392   4.773  25.078  0.00  0.00    +0.160 C 
BRANCH   3   2
ATOM      1  C   UNL     1      -0.195   5.332  24.535  0.00  0.00    +0.174 C 
ATOM      2  O   UNL     1      -0.860   5.400  25.018  0.00  0.00    -0.350 OA
ENDBRANCH   3   2
ENDBRANCH   4   3
ENDBRANCH   5   4
ENDBRANCH   9   8
ENDBRANCH  10   9
BRANCH  14  15
ATOM     15  C   UNL     1      -3.736  -0.307  23.646  0.00  0.00    +0.091 C 
BRANCH  15  16
ATOM     16  C   UNL     1      -3.805  -1.019  24.057  0.00  0.00    +0.226 A 
ATOM     17  N   UNL     1      -4.380  -1.597  23.933  0.00  0.00    -0.112 NA
ATOM     18  N   UNL     1      -4.242  -2.214  24.463  0.00  0.00    -0.112 NA
ATOM     19  C   UNL     1      -3.580  -2.017  24.915  0.00  0.00    +0.227 A 
ATOM     20  C   UNL     1      -3.247  -2.477  25.513  0.00  0.00    +0.097 C 
ATOM     21  O   UNL     1      -3.310  -1.279  24.665  0.00  0.00    -0.423 OA
ENDBRANCH  15  16
ENDBRANCH  14  15
TORSDOF 8
ENDMDL
MODEL 5
REMARK VINA RESULT:      -9.2      1.868      2.935
REMARK  Name = 
REMARK  8 active torsions:
REMARK  status: ('A' for Active; 'I' for Inactive)
REMARK    1  A    between atoms: O_2  and  C_3
REMARK    2  A    between atoms: C_3  and  C_4
REMARK    3  A    between atoms: C_4  and  N_5
REMARK    4  A    between atoms: N_8  and  C_9
REMARK    5  A    between atoms: C_9  and  C_10
REMARK    6  A    between atoms: C_14  and  C_15
REMARK    7  A    between atoms: C_15  and  C_16
REMARK    8  A    between atoms: C_23  and  C_24
REMARK                            x       y       z     vdW  Elec       q    Type
REMARK                         _______ _______ _______ _____ _____    ______ ____
ROOT
ATOM     10  C   UNL     1      -2.640  -0.067  24.730  0.00  0.00    +0.037 C 
ATOM     11  C   UNL     1      -2.430   0.622  24.327  0.00  0.00    -0.034 C 
ATOM     12  C   UNL     1      -3.013   1.156  24.092  0.00  0.00    -0.048 C 
ATOM     13  C   UNL     1      -2.803   1.845  23.689  0.00  0.00    +0.026 C 
ATOM     14  C   UNL     1      -3.806   1.002  24.259  0.00  0.00    +0.027 C 
ATOM     22  C   UNL     1      -4.016   0.314  24.662  0.00  0.00    +0.005 C 
ATOM     23  C   UNL     1      -3.434  -0.221  24.897  0.00  0.00    +0.006 C 
ENDROOT
BRANCH  23  24
ATOM     24  C   UNL     1      -3.644  -0.910  25.300  0.00  0.00    +0.000 C 
ATOM     25  C   UNL     1      -3.922  -1.564  24.880  0.00  0.00    +0.000 C 
ATOM     26  C   UNL     1      -3.577  -0.944  26.121  0.00  0.00    +0.000 C 
ENDBRANCH  23  24
BRANCH  10   9
ATOM      9  C   UNL     1      -2.058  -0.602  24.965  0.00  0.00    +0.076 C 
BRANCH   9   8
ATOM      5  N   UNL     1       0.157  -0.583  23.860  0.00  0.00    -0.268 NA
ATOM      6  C   UNL     1      -0.435  -1.091  23.590  0.00  0.00    +0.090 C 
ATOM      7  C   UNL     1      -1.173  -1.097  23.958  0.00  0.00    +0.090 C 
ATOM      8  N   UNL     1      -1.319  -0.596  24.597  0.00  0.00    -0.270 NA
ATOM     27  C   UNL     1      -0.728  -0.088  24.867  0.00  0.00    +0.090 C 
ATOM     28  C   UNL     1       0.010  -0.082  24.499  0.00  0.00    +0.090 C 
BRANCH   5   4
ATOM      4  C   UNL     1       0.895  -0.577  23.492  0.00  0.00    +0.105 C 
BRANCH   4   3
ATOM      3  C   UNL     1       1.102   0.048  22.995  0.00  0.00    +0.160 C 
BRANCH   3   2
ATOM      1  C   UNL     1       2.422   0.314  22.515  0.00  0.00    +0.174 C 
ATOM      2  O   UNL     1       1.690  -0.055  22.425  0.00  0.00    -0.350 OA
ENDBRANCH   3   2
ENDBRANCH   4   3
ENDBRANCH   5   4
ENDBRANCH   9   8
ENDBRANCH  10   9
BRANCH  14  15
ATOM     15  C   UNL     1      -4.389   1.537  24.024  0.00  0.00    +0.091 C 
BRANCH  15  16
ATOM     16  C   UNL     1      -4.903   1.858  24.584  0.00  0.00    +0.226 A 
ATOM     17  N   UNL     1      -5.675   1.609  24.733  0.00  0.00    -0.112 NA
ATOM     18  N   UNL     1      -5.984   2.083  25.335  0.00  0.00    -0.112 NA
ATOM     19  C   UNL     1      -5.402   2.625  25.557  0.00  0.00    +0.227 A 
ATOM     20  C   UNL     1      -5.476   3.203  26.140  0.00  0.00    +0.097 C 
ATOM     21  O   UNL     1      -4.734   2.486  25.093  0.00  0.00    -0.423 OA
ENDBRANCH  15  16
ENDBRANCH  14  15
TORSDOF 8
ENDMDL
