MODEL 1
REMARK VINA RESULT:      -9.8      0.000      0.000
REMARK  Name = 
REMARK  4 active torsions:
REMARK  status: ('A' for Active; 'I' for Inactive)
REMARK    1  A    between atoms: C_2  and  C_3
REMARK    2  A    between atoms: N_5  and  C_6
REMARK    3  A    between atoms: C_6  and  C_7
REMARK    4  A    between atoms: C_14  and  C_15
REMARK                            x       y       z     vdW  Elec       q    Type
REMARK                         _______ _______ _______ _____ _____    ______ ____
ROOT
ATOM      7  C   UNL     1      -3.461   1.752  24.063  0.00  0.00    +0.082 C 
ATOM      8  C   UNL     1      -4.017   1.416  24.492  0.00  0.00    +0.019 C 
ATOM      9  C   UNL     1      -4.154   0.619  24.544  0.00  0.00    +0.013 C 
ATOM     10  C   UNL     1      -4.841   0.435  25.090  0.00  0.00    +0.018 C 
ATOM     11  C   UNL     1      -4.419   0.820  24.775  0.00  0.00    +0.072 C 
ATOM     12  N   UNL     1      -3.607   0.942  24.122  0.00  0.00    -0.272 NA
ATOM     13  C   UNL     1      -3.204   0.219  23.738  0.00  0.00    +0.081 C 
ATOM     14  C   UNL     1      -3.761  -0.071  24.171  0.00  0.00    +0.093 C 
ENDROOT
BRANCH  14  15
ATOM     15  C   UNL     1      -3.954  -0.868  24.269  0.00  0.00    +0.227 C 
ATOM     16  O   UNL     1      -4.741  -1.111  24.213  0.00  0.00    -0.275 OA
ATOM     17  N   UNL     1      -3.361  -1.419  24.422  0.00  0.00    -0.274 N 
ATOM     18  C   UNL     1      -3.554  -2.216  24.519  0.00  0.00    +0.125 C 
ATOM     19  C   UNL     1      -2.960  -2.768  24.672  0.00  0.00    +0.164 C 
ATOM     20  O   UNL     1      -2.174  -2.524  24.728  0.00  0.00    -0.350 OA
ATOM     21  C   UNL     1      -1.981  -1.728  24.631  0.00  0.00    +0.164 C 
ATOM     22  C   UNL     1      -2.575  -1.176  24.478  0.00  0.00    +0.125 C 
ENDBRANCH  14  15
BRANCH   7   6
ATOM      6  C   UNL     1      -3.048   2.406  23.776  0.00  0.00    +0.145 C 
BRANCH   6   5
ATOM      3  C   UNL     1      -2.417   3.987  25.064  0.00  0.00    +0.134 A 
ATOM      4  C   UNL     1      -2.270   3.278  24.666  0.00  0.00    +0.116 A 
ATOM      5  N   UNL     1      -2.952   3.074  24.250  0.00  0.00    -0.229 N 
ATOM     23  N   UNL     1      -3.521   3.655  24.390  0.00  0.00    -0.064 NA
ATOM     24  N   UNL     1      -3.190   4.219  24.893  0.00  0.00    -0.130 NA
BRANCH   3   2
ATOM      1  O   UNL     1      -1.516   5.075  25.273  0.00  0.00    -0.213 OA
ATOM      2  C   UNL     1      -1.885   4.391  25.548  0.00  0.00    +0.231 C 
ENDBRANCH   3   2
ENDBRANCH   6   5
ENDBRANCH   7   6
TORSDOF 4
ENDMDL
MODEL 2
REMARK VINA RESULT:      -9.6      0.990      4.777
REMARK  Name = 
REMARK  4 active torsions:
REMARK  status: ('A' for Active; 'I' for Inactive)
REMARK    1  A    between atoms: C_2  and  C_3
REMARK    2  A    between atoms: N_5  and  C_6
REMARK    3  A    between atoms: C_6  and  C_7
REMARK    4  A    between atoms: C_14  and  C_15
REMARK                            x       y       z     vdW  Elec       q    Type
REMARK                         _______ _______ _______ _____ _____    ______ ____
ROOT
ATOM      7  C   UNL     1      -3.588   0.849  24.033  0.00  0.00    +0.082 C 
ATOM      8  C   UNL     1      -4.058   1.296  24.464  0.00  0.00    +0.019 C 
ATOM      9  C   UNL     1      -3.931   2.074  24.648  0.00  0.00    +0.013 C 
ATOM     10  C   UNL     1      -4.591   2.409  25.155  0.00  0.00    +0.018 C 
ATOM     11  C   UNL     1      -4.278   1.948  24.813  0.00  0.00    +0.072 C 
ATOM     12  N   UNL     1      -3.466   1.643  24.225  0.00  0.00    -0.272 NA
ATOM     13  C   UNL     1      -2.794   2.225  24.016  0.00  0.00    +0.081 C 
ATOM     14  C   UNL     1      -3.282   2.628  24.443  0.00  0.00    +0.093 C 
ENDROOT
BRANCH  14  15
ATOM     15  C   UNL     1      -3.213   3.420  24.666  0.00  0.00    +0.227 C 
ATOM     16  O   UNL     1      -3.882   3.904  24.680  0.00  0.00    -0.275 OA
ATOM     17  N   UNL     1      -2.477   3.727  24.873  0.00  0.00    -0.274 N 
ATOM     18  C   UNL     1      -2.408   4.519  25.096  0.00  0.00    +0.125 C 
ATOM     19  C   UNL     1      -1.671   4.826  25.304  0.00  0.00    +0.164 C 
ATOM     20  O   UNL     1      -1.003   4.342  25.289  0.00  0.00    -0.350 OA
ATOM     21  C   UNL     1      -1.071   3.551  25.066  0.00  0.00    +0.164 C 
ATOM     22  C   UNL     1      -1.808   3.244  24.859  0.00  0.00    +0.125 C 
ENDBRANCH  14  15
BRANCH   7   6
ATOM      6  C   UNL     1      -3.377   0.140  23.670  0.00  0.00    +0.145 C 
BRANCH   6   5
ATOM      3  C   UNL     1      -3.626  -1.714  24.699  0.00  0.00    +0.134 A 
ATOM      4  C   UNL     1      -3.175  -1.048  24.510  0.00  0.00    +0.116 A 
ATOM      5  N   UNL     1      -3.617  -0.579  23.997  0.00  0.00    -0.229 N 
ATOM     23  N   UNL     1      -4.341  -0.953  23.868  0.00  0.00    -0.064 NA
ATOM     24  N   UNL     1      -4.346  -1.654  24.301  0.00  0.00    -0.130 NA
BRANCH   3   2
ATOM      1  O   UNL     1      -3.469  -3.113  24.946  0.00  0.00    -0.213 OA
ATOM      2  C   UNL     1      -3.396  -2.331  25.197  0.00  0.00    +0.231 C 
ENDBRANCH   3   2
ENDBRANCH   6   5
ENDBRANCH   7   6
TORSDOF 4
ENDMDL
MODEL 3
REMARK VINA RESULT:      -9.6      2.050      2.577
REMARK  Name = 
REMARK  4 active torsions:
REMARK  status: ('A' for Active; 'I' for Inactive)
REMARK    1  A    between atoms: C_2  and  C_3
REMARK    2  A    between atoms: N_5  and  C_6
REMARK    3  A    between atoms: C_6  and  C_7
REMARK    4  A    between atoms: C_14  and  C_15
REMARK                            x       y       z     vdW  Elec       q    Type
REMARK                         _______ _______ _______ _____ _____    ______ ____
ROOT
ATOM      7  C   UNL     1      -4.436   0.440  24.789  0.00  0.00    +0.082 C 
ATOM      8  C   UNL     1      -4.211  -0.113  25.289  0.00  0.00    +0.019 C 
ATOM      9  C   UNL     1      -3.525  -0.541  25.241  0.00  0.00    +0.013 C 
ATOM     10  C   UNL     1      -3.451  -1.129  25.913  0.00  0.00    +0.018 C 
ATOM     11  C   UNL     1      -3.737  -0.656  25.565  0.00  0.00    +0.072 C 
ATOM     12  N   UNL     1      -3.739  -0.001  24.747  0.00  0.00    -0.272 NA
ATOM     13  C   UNL     1      -3.048   0.005  24.151  0.00  0.00    +0.081 C 
ATOM     14  C   UNL     1      -2.864  -0.530  24.663  0.00  0.00    +0.093 C 
ENDROOT
BRANCH  14  15
ATOM     15  C   UNL     1      -2.185  -0.999  24.673  0.00  0.00    +0.227 C 
ATOM     16  O   UNL     1      -2.243  -1.803  24.853  0.00  0.00    -0.275 OA
ATOM     17  N   UNL     1      -1.451  -0.666  24.502  0.00  0.00    -0.274 N 
ATOM     18  C   UNL     1      -0.773  -1.135  24.511  0.00  0.00    +0.125 C 
ATOM     19  C   UNL     1      -0.038  -0.801  24.340  0.00  0.00    +0.164 C 
ATOM     20  O   UNL     1       0.019   0.002  24.160  0.00  0.00    -0.350 OA
ATOM     21  C   UNL     1      -0.659   0.472  24.151  0.00  0.00    +0.164 C 
ATOM     22  C   UNL     1      -1.394   0.138  24.322  0.00  0.00    +0.125 C 
ENDBRANCH  14  15
BRANCH   7   6
ATOM      6  C   UNL     1      -4.960   1.015  24.516  0.00  0.00    +0.145 C 
BRANCH   6   5
ATOM      3  C   UNL     1      -5.243   2.868  25.537  0.00  0.00    +0.134 A 
ATOM      4  C   UNL     1      -4.889   2.420  24.940  0.00  0.00    +0.116 A 
ATOM      5  N   UNL     1      -5.169   1.647  25.003  0.00  0.00    -0.229 N 
ATOM     23  N   UNL     1      -5.696   1.617  25.637  0.00  0.00    -0.064 NA
ATOM     24  N   UNL     1      -5.741   2.372  25.967  0.00  0.00    -0.130 NA
BRANCH   3   2
ATOM      1  O   UNL     1      -5.762   4.188  25.709  0.00  0.00    -0.213 OA
ATOM      2  C   UNL     1      -5.120   3.672  25.678  0.00  0.00    +0.231 C 
ENDBRANCH   3   2
ENDBRANCH   6   5
ENDBRANCH   7   6
TORSDOF 4
ENDMDL
MODEL 4
REMARK VINA RESULT:      -9.1      1.958      2.655
REMARK  Name = 
REMARK  4 active torsions:
REMARK  status: ('A' for Active; 'I' for Inactive)
REMARK    1  A    between atoms: C_2  and  C_3
REMARK    2  A    between atoms: N_5  and  C_6
REMARK    3  A    between atoms: C_6  and  C_7
REMARK    4  A    between atoms: C_14  and  C_15
REMARK                            x       y       z     vdW  Elec       q    Type
REMARK                         _______ _______ _______ _____ _____    ______ ____
ROOT
ATOM      7  C   UNL     1      -0.668   1.371  25.494  0.00  0.00    +0.082 C 
ATOM      8  C   UNL     1      -0.479   0.989  24.843  0.00  0.00    +0.019 C 
ATOM      9  C   UNL     1      -0.706   0.234  24.657  0.00  0.00    +0.013 C 
ATOM     10  C   UNL     1      -0.384  -0.025  23.861  0.00  0.00    +0.018 C 
ATOM     11  C   UNL     1      -0.477   0.386  24.360  0.00  0.00    +0.072 C 
ATOM     12  N   UNL     1      -0.896   0.603  25.297  0.00  0.00    -0.272 NA
ATOM     13  C   UNL     1      -1.405  -0.015  25.736  0.00  0.00    +0.081 C 
ATOM     14  C   UNL     1      -1.197  -0.355  25.084  0.00  0.00    +0.093 C 
ENDROOT
BRANCH  14  15
ATOM     15  C   UNL     1      -1.393  -1.117  24.835  0.00  0.00    +0.227 C 
ATOM     16  O   UNL     1      -0.825  -1.587  24.463  0.00  0.00    -0.275 OA
ATOM     17  N   UNL     1      -2.154  -1.408  24.958  0.00  0.00    -0.274 N 
ATOM     18  C   UNL     1      -2.350  -2.170  24.708  0.00  0.00    +0.125 C 
ATOM     19  C   UNL     1      -3.112  -2.461  24.831  0.00  0.00    +0.164 C 
ATOM     20  O   UNL     1      -3.678  -1.991  25.204  0.00  0.00    -0.350 OA
ATOM     21  C   UNL     1      -3.483  -1.229  25.453  0.00  0.00    +0.164 C 
ATOM     22  C   UNL     1      -2.721  -0.938  25.330  0.00  0.00    +0.125 C 
ENDBRANCH  14  15
BRANCH   7   6
ATOM      6  C   UNL     1      -0.654   2.029  25.991  0.00  0.00    +0.145 C 
BRANCH   6   5
ATOM      3  C   UNL     1      -1.287   3.961  25.339  0.00  0.00    +0.134 A 
ATOM      4  C   UNL     1      -1.433   3.246  25.727  0.00  0.00    +0.116 A 
ATOM      5  N   UNL     1      -0.751   2.786  25.677  0.00  0.00    -0.229 N 
ATOM     23  N   UNL     1      -0.184   3.214  25.259  0.00  0.00    -0.064 NA
ATOM     24  N   UNL     1      -0.515   3.940  25.050  0.00  0.00    -0.130 NA
BRANCH   3   2
ATOM      1  O   UNL     1      -1.548   5.364  25.267  0.00  0.00    -0.213 OA
ATOM      2  C   UNL     1      -1.820   4.585  25.256  0.00  0.00    +0.231 C 
ENDBRANCH   3   2
ENDBRANCH   6   5
ENDBRANCH   7   6
TORSDOF 4
ENDMDL
MODEL 5
REMARK VINA RESULT:      -8.9      1.926      2.690
REMARK  Name = 
REMARK  4 active torsions:
REMARK  status: ('A' for Active; 'I' for Inactive)
REMARK    1  A    between atoms: C_2  and  C_3
REMARK    2  A    between atoms: N_5  and  C_6
REMARK    3  A    between atoms: C_6  and  C_7
REMARK    4  A    between atoms: C_14  and  C_15
REMARK                            x       y       z     vdW  Elec       q    Type
REMARK                         _______ _______ _______ _____ _____    ______ ____
ROOT
ATOM      7  C   UNL     1      -2.766   2.299  24.383  0.00  0.00    +0.082 C 
ATOM      8  C   UNL     1      -2.143   2.315  24.849  0.00  0.00    +0.019 C 
ATOM      9  C   UNL     1      -1.594   1.725  24.924  0.00  0.00    +0.013 C 
ATOM     10  C   UNL     1      -0.952   1.939  25.513  0.00  0.00    +0.018 C 
ATOM     11  C   UNL     1      -1.497   2.034  25.166  0.00  0.00    +0.072 C 
ATOM     12  N   UNL     1      -2.202   1.702  24.464  0.00  0.00    -0.272 NA
ATOM     13  C   UNL     1      -2.118   0.883  24.070  0.00  0.00    +0.081 C 
ATOM     14  C   UNL     1      -1.519   0.939  24.541  0.00  0.00    +0.093 C 
ENDROOT
BRANCH  14  15
ATOM     15  C   UNL     1      -0.927   0.378  24.664  0.00  0.00    +0.227 C 
ATOM     16  O   UNL     1      -0.136   0.614  24.697  0.00  0.00    -0.275 OA
ATOM     17  N   UNL     1      -1.124  -0.417  24.753  0.00  0.00    -0.274 N 
ATOM     18  C   UNL     1      -0.532  -0.978  24.875  0.00  0.00    +0.125 C 
ATOM     19  C   UNL     1      -0.729  -1.774  24.965  0.00  0.00    +0.164 C 
ATOM     20  O   UNL     1      -1.519  -2.009  24.931  0.00  0.00    -0.350 OA
ATOM     21  C   UNL     1      -2.112  -1.449  24.809  0.00  0.00    +0.164 C 
ATOM     22  C   UNL     1      -1.914  -0.653  24.719  0.00  0.00    +0.125 C 
ENDBRANCH  14  15
BRANCH   7   6
ATOM      6  C   UNL     1      -3.452   2.623  24.060  0.00  0.00    +0.145 C 
BRANCH   6   5
ATOM      3  C   UNL     1      -5.112   3.115  25.307  0.00  0.00    +0.134 A 
ATOM      4  C   UNL     1      -4.699   2.578  24.835  0.00  0.00    +0.116 A 
ATOM      5  N   UNL     1      -4.023   2.956  24.553  0.00  0.00    -0.229 N 
ATOM     23  N   UNL     1      -4.017   3.725  24.851  0.00  0.00    -0.064 NA
ATOM     24  N   UNL     1      -4.690   3.823  25.317  0.00  0.00    -0.130 NA
BRANCH   3   2
ATOM      1  O   UNL     1      -5.814   2.708  26.483  0.00  0.00    -0.213 OA
ATOM      2  C   UNL     1      -5.822   2.968  25.701  0.00  0.00    +0.231 C 
ENDBRANCH   3   2
ENDBRANCH   6   5
ENDBRANCH   7   6
TORSDOF 4
ENDMDL
MODEL 6
REMARK VINA RESULT:      -8.9      2.085      4.375
REMARK  Name = 
REMARK  4 active torsions:
REMARK  status: ('A' for Active; 'I' for Inactive)
REMARK    1  A    between atoms: C_2  and  C_3
REMARK    2  A    between atoms: N_5  and  C_6
REMARK    3  A    between atoms: C_6  and  C_7
REMARK    4  A    between atoms: C_14  and  C_15
REMARK                            x       y       z     vdW  Elec       q    Type
REMARK                         _______ _______ _______ _____ _____    ______ ____
ROOT
ATOM      7  C   UNL     1      -1.720   1.998  24.071  0.00  0.00    +0.082 C 
ATOM      8  C   UNL     1      -1.705   2.509  24.658  0.00  0.00    +0.019 C 
ATOM      9  C   UNL     1      -2.346   2.901  24.958  0.00  0.00    +0.013 C 
ATOM     10  C   UNL     1      -2.118   3.446  25.633  0.00  0.00    +0.018 C 
ATOM     11  C   UNL     1      -2.012   3.009  25.159  0.00  0.00    +0.072 C 
ATOM     12  N   UNL     1      -2.369   2.402  24.382  0.00  0.00    -0.272 NA
ATOM     13  C   UNL     1      -3.255   2.392  24.166  0.00  0.00    +0.081 C 
ATOM     14  C   UNL     1      -3.197   2.887  24.744  0.00  0.00    +0.093 C 
ENDROOT
BRANCH  14  15
ATOM     15  C   UNL     1      -3.807   3.318  25.096  0.00  0.00    +0.227 C 
ATOM     16  O   UNL     1      -3.685   4.104  25.312  0.00  0.00    -0.275 OA
ATOM     17  N   UNL     1      -4.538   2.962  25.230  0.00  0.00    -0.274 N 
ATOM     18  C   UNL     1      -5.149   3.392  25.581  0.00  0.00    +0.125 C 
ATOM     19  C   UNL     1      -5.881   3.036  25.715  0.00  0.00    +0.164 C 
ATOM     20  O   UNL     1      -6.003   2.250  25.499  0.00  0.00    -0.350 OA
ATOM     21  C   UNL     1      -5.393   1.818  25.148  0.00  0.00    +0.164 C 
ATOM     22  C   UNL     1      -4.661   2.175  25.013  0.00  0.00    +0.125 C 
ENDBRANCH  14  15
BRANCH   7   6
ATOM      6  C   UNL     1      -1.365   1.469  23.547  0.00  0.00    +0.145 C 
BRANCH   6   5
ATOM      3  C   UNL     1      -0.457  -0.310  24.301  0.00  0.00    +0.134 A 
ATOM      4  C   UNL     1      -1.121   0.107  24.043  0.00  0.00    +0.116 A 
ATOM      5  N   UNL     1      -0.879   0.867  23.834  0.00  0.00    -0.229 N 
ATOM     23  N   UNL     1      -0.066   0.921  23.964  0.00  0.00    -0.064 NA
ATOM     24  N   UNL     1       0.194   0.193  24.252  0.00  0.00    -0.130 NA
BRANCH   3   2
ATOM      1  O   UNL     1      -0.539  -1.261  25.365  0.00  0.00    -0.213 OA
ATOM      2  C   UNL     1      -0.447  -1.093  24.563  0.00  0.00    +0.231 C 
ENDBRANCH   3   2
ENDBRANCH   6   5
ENDBRANCH   7   6
TORSDOF 4
ENDMDL
