MODEL 1
REMARK VINA RESULT:      -8.7      0.000      0.000
REMARK  Name = 
REMARK  8 active torsions:
REMARK  status: ('A' for Active; 'I' for Inactive)
REMARK    1  A    between atoms: C_2  and  C_4
REMARK    2  A    between atoms: C_4  and  S_5
REMARK    3  A    between atoms: S_5  and  C_6
REMARK    4  A    between atoms: C_6  and  C_7
REMARK    5  A    between atoms: N_9  and  C_10
REMARK    6  A    between atoms: C_14  and  N_18
REMARK    7  A    between atoms: C_22  and  O_23
REMARK    8  A    between atoms: O_23  and  C_24
REMARK                            x       y       z     vdW  Elec       q    Type
REMARK                         _______ _______ _______ _____ _____    ______ ____
ROOT
ATOM     10  C   UNL     1       1.075   0.618  23.382  0.00  0.00    +0.154 C 
ATOM     11  C   UNL     1       0.672  -0.015  23.039  0.00  0.00    +0.166 C 
ATOM     12  O   UNL     1      -0.061  -0.082  23.412  0.00  0.00    -0.350 OA
ATOM     13  C   UNL     1      -0.110   0.509  23.985  0.00  0.00    +0.169 C 
ATOM     14  C   UNL     1      -0.594   0.834  24.570  0.00  0.00    +0.170 C 
ATOM     15  C   UNL     1      -0.191   1.466  24.912  0.00  0.00    +0.169 C 
ATOM     16  O   UNL     1       0.542   1.534  24.539  0.00  0.00    -0.350 OA
ATOM     17  C   UNL     1       0.592   0.942  23.966  0.00  0.00    +0.167 C 
ENDROOT
BRANCH  14  18
ATOM     18  N   UNL     1      -1.348   0.571  24.775  0.00  0.00    -0.180 N 
ATOM     19  N   UNL     1      -1.535  -0.165  25.097  0.00  0.00    -0.040 NA
ATOM     20  N   UNL     1      -2.351  -0.193  25.215  0.00  0.00    -0.020 NA
ATOM     21  N   UNL     1      -2.669   0.527  24.967  0.00  0.00    -0.071 NA
ATOM     22  C   UNL     1      -2.049   0.999  24.695  0.00  0.00    +0.343 A 
BRANCH  22  23
ATOM     23  O   UNL     1      -2.119   1.764  24.395  0.00  0.00    -0.421 OA
BRANCH  23  24
ATOM     24  C   UNL     1      -2.842   2.158  24.433  0.00  0.00    +0.152 A 
ATOM     25  C   UNL     1      -3.366   2.120  23.797  0.00  0.00    +0.041 A 
ATOM     26  C   UNL     1      -4.090   2.513  23.833  0.00  0.00    +0.043 A 
ATOM     27  C   UNL     1      -4.291   2.946  24.506  0.00  0.00    +0.177 A 
ATOM     28  O   UNL     1      -4.960   3.388  24.701  0.00  0.00    -0.435 OA
ATOM     29  C   UNL     1      -4.850   3.700  25.457  0.00  0.00    +0.429 C 
ATOM     30  O   UNL     1      -4.112   3.450  25.730  0.00  0.00    -0.435 OA
ATOM     31  C   UNL     1      -3.767   2.984  25.143  0.00  0.00    +0.179 A 
ATOM     32  C   UNL     1      -3.043   2.591  25.106  0.00  0.00    +0.078 A 
ENDBRANCH  23  24
ENDBRANCH  22  23
ENDBRANCH  14  18
BRANCH  10   9
ATOM      7  C   UNL     1       2.369   0.359  22.834  0.00  0.00    +0.252 C 
ATOM      8  O   UNL     1       2.155  -0.426  22.699  0.00  0.00    -0.272 OA
ATOM      9  N   UNL     1       1.830   0.880  23.175  0.00  0.00    -0.201 NA
BRANCH   7   6
ATOM      6  C   UNL     1       3.124   0.621  22.628  0.00  0.00    +0.145 C 
BRANCH   6   5
ATOM      5  S   UNL     1       3.789   0.289  22.985  0.00  0.00    -0.119 S 
BRANCH   5   4
ATOM      4  C   UNL     1       4.529   0.640  22.888  0.00  0.00    +0.172 C 
BRANCH   4   2
ATOM      1  O   UNL     1       5.677  -0.193  23.063  0.00  0.00    -0.245 OA
ATOM      2  C   UNL     1       5.167   0.392  23.346  0.00  0.00    +0.376 C 
ATOM      3  O   UNL     1       5.298   0.727  24.088  0.00  0.00    -0.245 OA
ENDBRANCH   4   2
ENDBRANCH   5   4
ENDBRANCH   6   5
ENDBRANCH   7   6
ENDBRANCH  10   9
TORSDOF 8
ENDMDL
MODEL 2
REMARK VINA RESULT:      -8.0      1.592      2.084
REMARK  Name = 
REMARK  8 active torsions:
REMARK  status: ('A' for Active; 'I' for Inactive)
REMARK    1  A    between atoms: C_2  and  C_4
REMARK    2  A    between atoms: C_4  and  S_5
REMARK    3  A    between atoms: S_5  and  C_6
REMARK    4  A    between atoms: C_6  and  C_7
REMARK    5  A    between atoms: N_9  and  C_10
REMARK    6  A    between atoms: C_14  and  N_18
REMARK    7  A    between atoms: C_22  and  O_23
REMARK    8  A    between atoms: O_23  and  C_24
REMARK                            x       y       z     vdW  Elec       q    Type
REMARK                         _______ _______ _______ _____ _____    ______ ____
ROOT
ATOM     10  C   UNL     1      -0.356  -0.541  24.205  0.00  0.00    +0.154 C 
ATOM     11  C   UNL     1      -0.335  -0.083  24.892  0.00  0.00    +0.166 C 
ATOM     12  O   UNL     1      -1.068  -0.151  25.264  0.00  0.00    -0.350 OA
ATOM     13  C   UNL     1      -1.541  -0.650  24.809  0.00  0.00    +0.169 C 
ATOM     14  C   UNL     1      -2.286  -1.000  24.757  0.00  0.00    +0.170 C 
ATOM     15  C   UNL     1      -2.307  -1.457  24.071  0.00  0.00    +0.169 C 
ATOM     16  O   UNL     1      -1.574  -1.390  23.698  0.00  0.00    -0.350 OA
ATOM     17  C   UNL     1      -1.100  -0.890  24.154  0.00  0.00    +0.167 C 
ENDROOT
BRANCH  14  18
ATOM     18  N   UNL     1      -2.903  -0.908  25.298  0.00  0.00    -0.180 N 
ATOM     19  N   UNL     1      -3.012  -1.346  25.988  0.00  0.00    -0.040 NA
ATOM     20  N   UNL     1      -3.695  -1.070  26.360  0.00  0.00    -0.020 NA
ATOM     21  N   UNL     1      -4.008  -0.462  25.898  0.00  0.00    -0.071 NA
ATOM     22  C   UNL     1      -3.519  -0.362  25.242  0.00  0.00    +0.343 A 
BRANCH  22  23
ATOM     23  O   UNL     1      -3.627   0.188  24.636  0.00  0.00    -0.421 OA
BRANCH  23  24
ATOM     24  C   UNL     1      -4.121   0.837  24.752  0.00  0.00    +0.152 A 
ATOM     25  C   UNL     1      -4.938   0.753  24.670  0.00  0.00    +0.041 A 
ATOM     26  C   UNL     1      -5.434   1.402  24.786  0.00  0.00    +0.043 A 
ATOM     27  C   UNL     1      -5.113   2.136  24.982  0.00  0.00    +0.177 A 
ATOM     28  O   UNL     1      -5.460   2.870  25.129  0.00  0.00    -0.435 OA
ATOM     29  C   UNL     1      -4.859   3.408  25.300  0.00  0.00    +0.429 C 
ATOM     30  O   UNL     1      -4.139   3.006  25.260  0.00  0.00    -0.435 OA
ATOM     31  C   UNL     1      -4.296   2.221  25.063  0.00  0.00    +0.179 A 
ATOM     32  C   UNL     1      -3.800   1.571  24.948  0.00  0.00    +0.078 A 
ENDBRANCH  23  24
ENDBRANCH  22  23
ENDBRANCH  14  18
BRANCH  10   9
ATOM      7  C   UNL     1       0.678   0.028  23.400  0.00  0.00    +0.252 C 
ATOM      8  O   UNL     1       0.478   0.780  23.674  0.00  0.00    -0.272 OA
ATOM      9  N   UNL     1       0.262  -0.631  23.665  0.00  0.00    -0.201 NA
BRANCH   7   6
ATOM      6  C   UNL     1       1.296  -0.062  22.859  0.00  0.00    +0.145 C 
BRANCH   6   5
ATOM      5  S   UNL     1       2.023   0.300  22.999  0.00  0.00    -0.119 S 
BRANCH   5   4
ATOM      4  C   UNL     1       2.657   0.165  22.488  0.00  0.00    +0.172 C 
BRANCH   4   2
ATOM      1  O   UNL     1       3.586   1.238  22.653  0.00  0.00    -0.245 OA
ATOM      2  C   UNL     1       3.411   0.432  22.686  0.00  0.00    +0.376 C 
ATOM      3  O   UNL     1       3.992  -0.106  22.917  0.00  0.00    -0.245 OA
ENDBRANCH   4   2
ENDBRANCH   5   4
ENDBRANCH   6   5
ENDBRANCH   7   6
ENDBRANCH  10   9
TORSDOF 8
ENDMDL
MODEL 3
REMARK VINA RESULT:      -7.6      3.240      6.055
REMARK  Name = 
REMARK  8 active torsions:
REMARK  status: ('A' for Active; 'I' for Inactive)
REMARK    1  A    between atoms: C_2  and  C_4
REMARK    2  A    between atoms: C_4  and  S_5
REMARK    3  A    between atoms: S_5  and  C_6
REMARK    4  A    between atoms: C_6  and  C_7
REMARK    5  A    between atoms: N_9  and  C_10
REMARK    6  A    between atoms: C_14  and  N_18
REMARK    7  A    between atoms: C_22  and  O_23
REMARK    8  A    between atoms: O_23  and  C_24
REMARK                            x       y       z     vdW  Elec       q    Type
REMARK                         _______ _______ _______ _____ _____    ______ ____
ROOT
ATOM     10  C   UNL     1      -2.188   2.449  24.105  0.00  0.00    +0.154 C 
ATOM     11  C   UNL     1      -2.219   2.149  23.337  0.00  0.00    +0.166 C 
ATOM     12  O   UNL     1      -1.703   1.507  23.293  0.00  0.00    -0.350 OA
ATOM     13  C   UNL     1      -1.353   1.411  24.033  0.00  0.00    +0.169 C 
ATOM     14  C   UNL     1      -0.817   0.954  24.464  0.00  0.00    +0.170 C 
ATOM     15  C   UNL     1      -0.786   1.254  25.232  0.00  0.00    +0.169 C 
ATOM     16  O   UNL     1      -1.302   1.896  25.276  0.00  0.00    -0.350 OA
ATOM     17  C   UNL     1      -1.653   1.993  24.535  0.00  0.00    +0.167 C 
ENDROOT
BRANCH  14  18
ATOM     18  N   UNL     1      -0.389   0.311  24.177  0.00  0.00    -0.180 N 
ATOM     19  N   UNL     1       0.209   0.339  23.609  0.00  0.00    -0.040 NA
ATOM     20  N   UNL     1       0.484  -0.429  23.488  0.00  0.00    -0.020 NA
ATOM     21  N   UNL     1       0.056  -0.933  23.982  0.00  0.00    -0.071 NA
ATOM     22  C   UNL     1      -0.483  -0.476  24.407  0.00  0.00    +0.343 A 
BRANCH  22  23
ATOM     23  O   UNL     1      -1.023  -0.757  24.965  0.00  0.00    -0.421 OA
BRANCH  23  24
ATOM     24  C   UNL     1      -1.492  -1.412  24.791  0.00  0.00    +0.152 A 
ATOM     25  C   UNL     1      -1.147  -2.156  24.703  0.00  0.00    +0.041 A 
ATOM     26  C   UNL     1      -1.616  -2.812  24.530  0.00  0.00    +0.043 A 
ATOM     27  C   UNL     1      -2.431  -2.724  24.444  0.00  0.00    +0.177 A 
ATOM     28  O   UNL     1      -3.031  -3.265  24.274  0.00  0.00    -0.435 OA
ATOM     29  C   UNL     1      -3.747  -2.856  24.257  0.00  0.00    +0.429 C 
ATOM     30  O   UNL     1      -3.590  -2.062  24.416  0.00  0.00    -0.435 OA
ATOM     31  C   UNL     1      -2.777  -1.981  24.532  0.00  0.00    +0.179 A 
ATOM     32  C   UNL     1      -2.308  -1.325  24.705  0.00  0.00    +0.078 A 
ENDBRANCH  23  24
ENDBRANCH  22  23
ENDBRANCH  14  18
BRANCH  10   9
ATOM      7  C   UNL     1      -3.420   3.164  24.218  0.00  0.00    +0.252 C 
ATOM      8  O   UNL     1      -3.795   2.591  23.757  0.00  0.00    -0.272 OA
ATOM      9  N   UNL     1      -2.617   3.093  24.391  0.00  0.00    -0.201 NA
BRANCH   7   6
ATOM      6  C   UNL     1      -3.849   3.808  24.504  0.00  0.00    +0.145 C 
BRANCH   6   5
ATOM      5  S   UNL     1      -4.611   3.698  24.799  0.00  0.00    -0.119 S 
BRANCH   5   4
ATOM      4  C   UNL     1      -4.869   4.134  25.451  0.00  0.00    +0.172 C 
BRANCH   4   2
ATOM      1  O   UNL     1      -5.794   3.293  26.142  0.00  0.00    -0.245 OA
ATOM      2  C   UNL     1      -5.621   4.004  25.763  0.00  0.00    +0.376 C 
ATOM      3  O   UNL     1      -6.201   4.587  25.695  0.00  0.00    -0.245 OA
ENDBRANCH   4   2
ENDBRANCH   5   4
ENDBRANCH   6   5
ENDBRANCH   7   6
ENDBRANCH  10   9
TORSDOF 8
ENDMDL
MODEL 4
REMARK VINA RESULT:      -7.5      1.743      2.342
REMARK  Name = 
REMARK  8 active torsions:
REMARK  status: ('A' for Active; 'I' for Inactive)
REMARK    1  A    between atoms: C_2  and  C_4
REMARK    2  A    between atoms: C_4  and  S_5
REMARK    3  A    between atoms: S_5  and  C_6
REMARK    4  A    between atoms: C_6  and  C_7
REMARK    5  A    between atoms: N_9  and  C_10
REMARK    6  A    between atoms: C_14  and  N_18
REMARK    7  A    between atoms: C_22  and  O_23
REMARK    8  A    between atoms: O_23  and  C_24
REMARK                            x       y       z     vdW  Elec       q    Type
REMARK                         _______ _______ _______ _____ _____    ______ ____
ROOT
ATOM     10  C   UNL     1      -0.121   1.468  24.225  0.00  0.00    +0.154 C 
ATOM     11  C   UNL     1      -0.353   1.069  24.909  0.00  0.00    +0.166 C 
ATOM     12  O   UNL     1      -0.864   1.561  25.329  0.00  0.00    -0.350 OA
ATOM     13  C   UNL     1      -0.949   2.263  24.905  0.00  0.00    +0.169 C 
ATOM     14  C   UNL     1      -1.318   3.001  24.903  0.00  0.00    +0.170 C 
ATOM     15  C   UNL     1      -1.086   3.400  24.219  0.00  0.00    +0.169 C 
ATOM     16  O   UNL     1      -0.574   2.908  23.798  0.00  0.00    -0.350 OA
ATOM     17  C   UNL     1      -0.489   2.205  24.223  0.00  0.00    +0.167 C 
ENDROOT
BRANCH  14  18
ATOM     18  N   UNL     1      -1.828   3.289  25.483  0.00  0.00    -0.180 N 
ATOM     19  N   UNL     1      -1.608   3.592  26.217  0.00  0.00    -0.040 NA
ATOM     20  N   UNL     1      -2.293   3.815  26.619  0.00  0.00    -0.020 NA
ATOM     21  N   UNL     1      -2.938   3.649  26.132  0.00  0.00    -0.071 NA
ATOM     22  C   UNL     1      -2.651   3.324  25.430  0.00  0.00    +0.343 A 
BRANCH  22  23
ATOM     23  O   UNL     1      -3.107   3.078  24.788  0.00  0.00    -0.421 OA
BRANCH  23  24
ATOM     24  C   UNL     1      -3.908   2.911  24.890  0.00  0.00    +0.152 A 
ATOM     25  C   UNL     1      -4.452   3.527  24.959  0.00  0.00    +0.041 A 
ATOM     26  C   UNL     1      -5.254   3.361  25.062  0.00  0.00    +0.043 A 
ATOM     27  C   UNL     1      -5.512   2.578  25.096  0.00  0.00    +0.177 A 
ATOM     28  O   UNL     1      -6.261   2.246  25.192  0.00  0.00    -0.435 OA
ATOM     29  C   UNL     1      -6.180   1.425  25.183  0.00  0.00    +0.429 C 
ATOM     30  O   UNL     1      -5.380   1.249  25.081  0.00  0.00    -0.435 OA
ATOM     31  C   UNL     1      -4.967   1.961  25.027  0.00  0.00    +0.179 A 
ATOM     32  C   UNL     1      -4.166   2.127  24.925  0.00  0.00    +0.078 A 
ENDBRANCH  23  24
ENDBRANCH  22  23
ENDBRANCH  14  18
BRANCH  10   9
ATOM      7  C   UNL     1       0.466   0.366  23.529  0.00  0.00    +0.252 C 
ATOM      8  O   UNL     1       0.031  -0.159  23.994  0.00  0.00    -0.272 OA
ATOM      9  N   UNL     1       0.390   1.179  23.645  0.00  0.00    -0.201 NA
BRANCH   7   6
ATOM      6  C   UNL     1       0.977   0.077  22.950  0.00  0.00    +0.145 C 
BRANCH   6   5
ATOM      5  S   UNL     1       1.792   0.083  23.076  0.00  0.00    -0.119 S 
BRANCH   5   4
ATOM      4  C   UNL     1       2.310  -0.011  22.441  0.00  0.00    +0.172 C 
BRANCH   4   2
ATOM      1  O   UNL     1       3.545  -0.525  22.943  0.00  0.00    -0.245 OA
ATOM      2  C   UNL     1       3.122   0.069  22.556  0.00  0.00    +0.376 C 
ATOM      3  O   UNL     1       3.513   0.742  22.283  0.00  0.00    -0.245 OA
ENDBRANCH   4   2
ENDBRANCH   5   4
ENDBRANCH   6   5
ENDBRANCH   7   6
ENDBRANCH  10   9
TORSDOF 8
ENDMDL
MODEL 5
REMARK VINA RESULT:      -7.4      1.932      2.840
REMARK  Name = 
REMARK  8 active torsions:
REMARK  status: ('A' for Active; 'I' for Inactive)
REMARK    1  A    between atoms: C_2  and  C_4
REMARK    2  A    between atoms: C_4  and  S_5
REMARK    3  A    between atoms: S_5  and  C_6
REMARK    4  A    between atoms: C_6  and  C_7
REMARK    5  A    between atoms: N_9  and  C_10
REMARK    6  A    between atoms: C_14  and  N_18
REMARK    7  A    between atoms: C_22  and  O_23
REMARK    8  A    between atoms: O_23  and  C_24
REMARK                            x       y       z     vdW  Elec       q    Type
REMARK                         _______ _______ _______ _____ _____    ______ ____
ROOT
ATOM     10  C   UNL     1       1.233   0.883  23.373  0.00  0.00    +0.154 C 
ATOM     11  C   UNL     1       0.886   0.447  22.764  0.00  0.00    +0.166 C 
ATOM     12  O   UNL     1       0.067   0.490  22.855  0.00  0.00    -0.350 OA
ATOM     13  C   UNL     1      -0.092   0.953  23.519  0.00  0.00    +0.169 C 
ATOM     14  C   UNL     1      -0.696   1.266  23.986  0.00  0.00    +0.170 C 
ATOM     15  C   UNL     1      -0.350   1.701  24.594  0.00  0.00    +0.169 C 
ATOM     16  O   UNL     1       0.469   1.659  24.504  0.00  0.00    -0.350 OA
ATOM     17  C   UNL     1       0.629   1.195  23.839  0.00  0.00    +0.167 C 
ENDROOT
BRANCH  14  18
ATOM     18  N   UNL     1      -1.505   1.160  23.864  0.00  0.00    -0.180 N 
ATOM     19  N   UNL     1      -1.982   1.602  23.357  0.00  0.00    -0.040 NA
ATOM     20  N   UNL     1      -2.752   1.309  23.409  0.00  0.00    -0.020 NA
ATOM     21  N   UNL     1      -2.750   0.685  23.948  0.00  0.00    -0.071 NA
ATOM     22  C   UNL     1      -1.980   0.593  24.230  0.00  0.00    +0.343 A 
BRANCH  22  23
ATOM     23  O   UNL     1      -1.729   0.031  24.780  0.00  0.00    -0.421 OA
BRANCH  23  24
ATOM     24  C   UNL     1      -2.220  -0.601  24.977  0.00  0.00    +0.152 A 
ATOM     25  C   UNL     1      -2.729  -0.543  25.624  0.00  0.00    +0.041 A 
ATOM     26  C   UNL     1      -3.220  -1.175  25.822  0.00  0.00    +0.043 A 
ATOM     27  C   UNL     1      -3.202  -1.867  25.373  0.00  0.00    +0.177 A 
ATOM     28  O   UNL     1      -3.619  -2.576  25.434  0.00  0.00    -0.435 OA
ATOM     29  C   UNL     1      -3.368  -3.074  24.826  0.00  0.00    +0.429 C 
ATOM     30  O   UNL     1      -2.795  -2.671  24.388  0.00  0.00    -0.435 OA
ATOM     31  C   UNL     1      -2.694  -1.926  24.727  0.00  0.00    +0.179 A 
ATOM     32  C   UNL     1      -2.202  -1.293  24.529  0.00  0.00    +0.078 A 
ENDBRANCH  23  24
ENDBRANCH  22  23
ENDBRANCH  14  18
BRANCH  10   9
ATOM      7  C   UNL     1       2.585   0.639  22.980  0.00  0.00    +0.252 C 
ATOM      8  O   UNL     1       2.318   0.185  22.345  0.00  0.00    -0.272 OA
ATOM      9  N   UNL     1       2.042   0.988  23.493  0.00  0.00    -0.201 NA
BRANCH   7   6
ATOM      6  C   UNL     1       3.394   0.744  23.100  0.00  0.00    +0.145 C 
BRANCH   6   5
ATOM      5  S   UNL     1       3.893   0.089  23.149  0.00  0.00    -0.119 S 
BRANCH   5   4
ATOM      4  C   UNL     1       4.711   0.189  23.118  0.00  0.00    +0.172 C 
BRANCH   4   2
ATOM      1  O   UNL     1       5.807   0.174  24.034  0.00  0.00    -0.245 OA
ATOM      2  C   UNL     1       5.197  -0.220  23.643  0.00  0.00    +0.376 C 
ATOM      3  O   UNL     1       5.075  -1.025  23.776  0.00  0.00    -0.245 OA
ENDBRANCH   4   2
ENDBRANCH   5   4
ENDBRANCH   6   5
ENDBRANCH   7   6
ENDBRANCH  10   9
TORSDOF 8
ENDMDL
MODEL 6
REMARK VINA RESULT:      -7.1      2.231      6.616
REMARK  Name = 
REMARK  8 active torsions:
REMARK  status: ('A' for Active; 'I' for Inactive)
REMARK    1  A    between atoms: C_2  and  C_4
REMARK    2  A    between atoms: C_4  and  S_5
REMARK    3  A    between atoms: S_5  and  C_6
REMARK    4  A    between atoms: C_6  and  C_7
REMARK    5  A    between atoms: N_9  and  C_10
REMARK    6  A    between atoms: C_14  and  N_18
REMARK    7  A    between atoms: C_22  and  O_23
REMARK    8  A    between atoms: O_23  and  C_24
REMARK                            x       y       z     vdW  Elec       q    Type
REMARK                         _______ _______ _______ _____ _____    ______ ____
ROOT
ATOM     10  C   UNL     1      -3.279   0.672  24.291  0.00  0.00    +0.154 C 
ATOM     11  C   UNL     1      -3.372  -0.123  24.087  0.00  0.00    +0.166 C 
ATOM     12  O   UNL     1      -2.637  -0.491  24.160  0.00  0.00    -0.350 OA
ATOM     13  C   UNL     1      -2.092   0.075  24.408  0.00  0.00    +0.169 C 
ATOM     14  C   UNL     1      -1.300   0.198  24.607  0.00  0.00    +0.170 C 
ATOM     15  C   UNL     1      -1.208   0.991  24.810  0.00  0.00    +0.169 C 
ATOM     16  O   UNL     1      -1.942   1.361  24.737  0.00  0.00    -0.350 OA
ATOM     17  C   UNL     1      -2.489   0.794  24.489  0.00  0.00    +0.167 C 
ENDROOT
BRANCH  14  18
ATOM     18  N   UNL     1      -0.706  -0.374  24.602  0.00  0.00    -0.180 N 
ATOM     19  N   UNL     1      -0.659  -1.030  25.100  0.00  0.00    -0.040 NA
ATOM     20  N   UNL     1       0.023  -1.452  24.904  0.00  0.00    -0.020 NA
ATOM     21  N   UNL     1       0.397  -1.056  24.284  0.00  0.00    -0.071 NA
ATOM     22  C   UNL     1      -0.053  -0.391  24.097  0.00  0.00    +0.343 A 
BRANCH  22  23
ATOM     23  O   UNL     1       0.120   0.162  23.509  0.00  0.00    -0.421 OA
BRANCH  23  24
ATOM     24  C   UNL     1       0.860   0.158  23.144  0.00  0.00    +0.152 A 
ATOM     25  C   UNL     1       0.993  -0.324  22.488  0.00  0.00    +0.041 A 
ATOM     26  C   UNL     1       1.732  -0.328  22.122  0.00  0.00    +0.043 A 
ATOM     27  C   UNL     1       2.339   0.150  22.413  0.00  0.00    +0.177 A 
ATOM     28  O   UNL     1       3.119   0.262  22.169  0.00  0.00    -0.435 OA
ATOM     29  C   UNL     1       3.468   0.812  22.675  0.00  0.00    +0.429 C 
ATOM     30  O   UNL     1       2.903   1.041  23.231  0.00  0.00    -0.435 OA
ATOM     31  C   UNL     1       2.205   0.632  23.069  0.00  0.00    +0.179 A 
ATOM     32  C   UNL     1       1.466   0.636  23.435  0.00  0.00    +0.078 A 
ENDBRANCH  23  24
ENDBRANCH  22  23
ENDBRANCH  14  18
BRANCH  10   9
ATOM      7  C   UNL     1      -4.595   1.087  24.665  0.00  0.00    +0.252 C 
ATOM      8  O   UNL     1      -4.720   0.359  25.031  0.00  0.00    -0.272 OA
ATOM      9  N   UNL     1      -3.875   1.243  24.295  0.00  0.00    -0.201 NA
BRANCH   7   6
ATOM      6  C   UNL     1      -5.190   1.658  24.668  0.00  0.00    +0.145 C 
BRANCH   6   5
ATOM      5  S   UNL     1      -5.324   2.110  25.345  0.00  0.00    -0.119 S 
BRANCH   5   4
ATOM      4  C   UNL     1      -5.801   2.783  25.305  0.00  0.00    +0.172 C 
BRANCH   4   2
ATOM      1  O   UNL     1      -5.750   3.121  26.692  0.00  0.00    -0.245 OA
ATOM      2  C   UNL     1      -5.764   3.352  25.900  0.00  0.00    +0.376 C 
ATOM      3  O   UNL     1      -5.740   4.153  25.704  0.00  0.00    -0.245 OA
ENDBRANCH   4   2
ENDBRANCH   5   4
ENDBRANCH   6   5
ENDBRANCH   7   6
ENDBRANCH  10   9
TORSDOF 8
ENDMDL
MODEL 7
REMARK VINA RESULT:      -5.3     16.821     18.635
REMARK  Name = 
REMARK  8 active torsions:
REMARK  status: ('A' for Active; 'I' for Inactive)
REMARK    1  A    between atoms: C_2  and  C_4
REMARK    2  A    between atoms: C_4  and  S_5
REMARK    3  A    between atoms: S_5  and  C_6
REMARK    4  A    between atoms: C_6  and  C_7
REMARK    5  A    between atoms: N_9  and  C_10
REMARK    6  A    between atoms: C_14  and  N_18
REMARK    7  A    between atoms: C_22  and  O_23
REMARK    8  A    between atoms: O_23  and  C_24
REMARK                            x       y       z     vdW  Elec       q    Type
REMARK                         _______ _______ _______ _____ _____    ______ ____
ROOT
ATOM     10  C   UNL     1      -7.535  -9.934  11.438  0.00  0.00    +0.154 C 
ATOM     11  C   UNL     1      -7.332 -10.731  11.369  0.00  0.00    +0.166 C 
ATOM     12  O   UNL     1      -6.660 -10.781  10.892  0.00  0.00    -0.350 OA
ATOM     13  C   UNL     1      -6.449 -10.016  10.668  0.00  0.00    +0.169 C 
ATOM     14  C   UNL     1      -5.903  -9.574  10.235  0.00  0.00    +0.170 C 
ATOM     15  C   UNL     1      -6.107  -8.778  10.305  0.00  0.00    +0.169 C 
ATOM     16  O   UNL     1      -6.779  -8.727  10.781  0.00  0.00    -0.350 OA
ATOM     17  C   UNL     1      -6.990  -9.493  11.006  0.00  0.00    +0.167 C 
ENDROOT
BRANCH  14  18
ATOM     18  N   UNL     1      -5.266  -9.876   9.807  0.00  0.00    -0.180 N 
ATOM     19  N   UNL     1      -5.304 -10.230   9.064  0.00  0.00    -0.040 NA
ATOM     20  N   UNL     1      -4.539 -10.450   8.845  0.00  0.00    -0.020 NA
ATOM     21  N   UNL     1      -4.028 -10.231   9.455  0.00  0.00    -0.071 NA
ATOM     22  C   UNL     1      -4.476  -9.876  10.049  0.00  0.00    +0.343 A 
BRANCH  22  23
ATOM     23  O   UNL     1      -4.187  -9.575  10.761  0.00  0.00    -0.421 OA
BRANCH  23  24
ATOM     24  C   UNL     1      -3.394  -9.681  10.961  0.00  0.00    +0.152 A 
ATOM     25  C   UNL     1      -3.165 -10.336  11.406  0.00  0.00    +0.041 A 
ATOM     26  C   UNL     1      -2.372 -10.443  11.608  0.00  0.00    +0.043 A 
ATOM     27  C   UNL     1      -1.807  -9.893  11.363  0.00  0.00    +0.177 A 
ATOM     28  O   UNL     1      -0.991  -9.850  11.477  0.00  0.00    -0.435 OA
ATOM     29  C   UNL     1      -0.716  -9.169  11.102  0.00  0.00    +0.429 C 
ATOM     30  O   UNL     1      -1.362  -8.790  10.757  0.00  0.00    -0.435 OA
ATOM     31  C   UNL     1      -2.036  -9.237  10.918  0.00  0.00    +0.179 A 
ATOM     32  C   UNL     1      -2.829  -9.130  10.717  0.00  0.00    +0.078 A 
ENDBRANCH  23  24
ENDBRANCH  22  23
ENDBRANCH  14  18
BRANCH  10   9
ATOM      7  C   UNL     1      -8.426 -10.013  12.553  0.00  0.00    +0.252 C 
ATOM      8  O   UNL     1      -8.041 -10.695  12.812  0.00  0.00    -0.272 OA
ATOM      9  N   UNL     1      -8.173  -9.633  11.867  0.00  0.00    -0.201 NA
BRANCH   7   6
ATOM      6  C   UNL     1      -9.064  -9.712  12.981  0.00  0.00    +0.145 C 
BRANCH   6   5
ATOM      5  S   UNL     1      -9.031  -9.680  13.804  0.00  0.00    -0.119 S 
BRANCH   5   4
ATOM      4  C   UNL     1      -9.608  -9.267  14.225  0.00  0.00    +0.172 C 
BRANCH   4   2
ATOM      1  O   UNL     1      -9.072  -8.915  15.502  0.00  0.00    -0.245 OA
ATOM      2  C   UNL     1      -9.632  -9.316  15.048  0.00  0.00    +0.376 C 
ATOM      3  O   UNL     1     -10.217  -9.765  15.418  0.00  0.00    -0.245 OA
ENDBRANCH   4   2
ENDBRANCH   5   4
ENDBRANCH   6   5
ENDBRANCH   7   6
ENDBRANCH  10   9
TORSDOF 8
ENDMDL
MODEL 8
REMARK VINA RESULT:      -5.2     17.136     18.870
REMARK  Name = 
REMARK  8 active torsions:
REMARK  status: ('A' for Active; 'I' for Inactive)
REMARK    1  A    between atoms: C_2  and  C_4
REMARK    2  A    between atoms: C_4  and  S_5
REMARK    3  A    between atoms: S_5  and  C_6
REMARK    4  A    between atoms: C_6  and  C_7
REMARK    5  A    between atoms: N_9  and  C_10
REMARK    6  A    between atoms: C_14  and  N_18
REMARK    7  A    between atoms: C_22  and  O_23
REMARK    8  A    between atoms: O_23  and  C_24
REMARK                            x       y       z     vdW  Elec       q    Type
REMARK                         _______ _______ _______ _____ _____    ______ ____
ROOT
ATOM     10  C   UNL     1      -6.038  -8.934   9.279  0.00  0.00    +0.154 C 
ATOM     11  C   UNL     1      -5.779  -8.211   9.582  0.00  0.00    +0.166 C 
ATOM     12  O   UNL     1      -5.001  -8.307   9.838  0.00  0.00    -0.350 OA
ATOM     13  C   UNL     1      -4.779  -9.088   9.694  0.00  0.00    +0.169 C 
ATOM     14  C   UNL     1      -4.161  -9.630   9.763  0.00  0.00    +0.170 C 
ATOM     15  C   UNL     1      -4.420 -10.352   9.461  0.00  0.00    +0.169 C 
ATOM     16  O   UNL     1      -5.199 -10.257   9.205  0.00  0.00    -0.350 OA
ATOM     17  C   UNL     1      -5.421  -9.475   9.349  0.00  0.00    +0.167 C 
ENDROOT
BRANCH  14  18
ATOM     18  N   UNL     1      -3.415  -9.476  10.079  0.00  0.00    -0.180 N 
ATOM     19  N   UNL     1      -2.864  -8.938   9.784  0.00  0.00    -0.040 NA
ATOM     20  N   UNL     1      -2.197  -8.963  10.269  0.00  0.00    -0.020 NA
ATOM     21  N   UNL     1      -2.336  -9.517  10.865  0.00  0.00    -0.071 NA
ATOM     22  C   UNL     1      -3.088  -9.834  10.748  0.00  0.00    +0.343 A 
BRANCH  22  23
ATOM     23  O   UNL     1      -3.451 -10.408  11.217  0.00  0.00    -0.421 OA
BRANCH  23  24
ATOM     24  C   UNL     1      -3.216 -10.509  12.001  0.00  0.00    +0.152 A 
ATOM     25  C   UNL     1      -2.428 -10.675  12.177  0.00  0.00    +0.041 A 
ATOM     26  C   UNL     1      -2.192 -10.776  12.961  0.00  0.00    +0.043 A 
ATOM     27  C   UNL     1      -2.745 -10.711  13.569  0.00  0.00    +0.177 A 
ATOM     28  O   UNL     1      -2.677 -10.781  14.388  0.00  0.00    -0.435 OA
ATOM     29  C   UNL     1      -3.423 -10.659  14.719  0.00  0.00    +0.429 C 
ATOM     30  O   UNL     1      -3.953 -10.512  14.103  0.00  0.00    -0.435 OA
ATOM     31  C   UNL     1      -3.534 -10.544  13.393  0.00  0.00    +0.179 A 
ATOM     32  C   UNL     1      -3.770 -10.443  12.609  0.00  0.00    +0.078 A 
ENDBRANCH  23  24
ENDBRANCH  22  23
ENDBRANCH  14  18
BRANCH  10   9
ATOM      7  C   UNL     1      -7.462  -8.839   9.364  0.00  0.00    +0.252 C 
ATOM      8  O   UNL     1      -7.392  -8.437  10.081  0.00  0.00    -0.272 OA
ATOM      9  N   UNL     1      -6.785  -9.087   8.964  0.00  0.00    -0.201 NA
BRANCH   7   6
ATOM      6  C   UNL     1      -8.208  -8.991   9.048  0.00  0.00    +0.145 C 
BRANCH   6   5
ATOM      5  S   UNL     1      -8.822  -8.452   9.158  0.00  0.00    -0.119 S 
BRANCH   5   4
ATOM      4  C   UNL     1      -9.600  -8.672   8.994  0.00  0.00    +0.172 C 
BRANCH   4   2
ATOM      1  O   UNL     1     -10.658  -7.852   9.495  0.00  0.00    -0.245 OA
ATOM      2  C   UNL     1     -10.175  -8.094   8.871  0.00  0.00    +0.376 C 
ATOM      3  O   UNL     1     -10.268  -7.757   8.124  0.00  0.00    -0.245 OA
ENDBRANCH   4   2
ENDBRANCH   5   4
ENDBRANCH   6   5
ENDBRANCH   7   6
ENDBRANCH  10   9
TORSDOF 8
ENDMDL
