MODEL 1
REMARK VINA RESULT:     -12.6      0.000      0.000
REMARK  Name = 
REMARK  5 active torsions:
REMARK  status: ('A' for Active; 'I' for Inactive)
REMARK    1  A    between atoms: C_5  and  C_6
REMARK    2  A    between atoms: C_6  and  N_7
REMARK    3  A    between atoms: C_12  and  O_14
REMARK    4  A    between atoms: O_14  and  C_15
REMARK    5  A    between atoms: C_18  and  C_21
REMARK                            x       y       z     vdW  Elec       q    Type
REMARK                         _______ _______ _______ _____ _____    ______ ____
ROOT
ATOM      7  N   UNL     1      -3.148   2.983  25.385  0.00  0.00    -0.264 NA
ATOM      8  C   UNL     1      -3.848   3.417  25.443  0.00  0.00    +0.105 C 
ATOM      9  C   UNL     1      -4.565   3.289  25.057  0.00  0.00    +0.160 C 
ATOM     10  O   UNL     1      -4.761   2.696  24.517  0.00  0.00    -0.348 OA
ATOM     11  C   UNL     1      -4.286   2.085  24.230  0.00  0.00    +0.187 C 
ATOM     12  C   UNL     1      -3.499   1.916  24.413  0.00  0.00    +0.213 C 
ATOM     13  C   UNL     1      -2.993   2.316  24.927  0.00  0.00    +0.119 C 
ENDROOT
BRANCH   7   6
ATOM      6  C   UNL     1      -2.520   3.254  25.847  0.00  0.00    +0.099 C 
BRANCH   6   5
ATOM      1  F   UNL     1      -0.382   5.442  24.610  0.00  0.00    -0.204 F 
ATOM      2  C   UNL     1      -0.916   4.895  24.919  0.00  0.00    +0.140 A 
ATOM      3  C   UNL     1      -1.647   5.148  25.206  0.00  0.00    +0.029 A 
ATOM      4  C   UNL     1      -2.181   4.602  25.515  0.00  0.00    -0.001 A 
ATOM      5  C   UNL     1      -1.986   3.801  25.538  0.00  0.00    -0.006 A 
ATOM     25  C   UNL     1      -1.254   3.547  25.251  0.00  0.00    -0.001 A 
ATOM     26  C   UNL     1      -0.720   4.093  24.942  0.00  0.00    +0.029 A 
ENDBRANCH   6   5
ENDBRANCH   7   6
BRANCH  12  14
ATOM     14  O   UNL     1      -3.176   1.259  24.030  0.00  0.00    -0.460 OA
BRANCH  14  15
ATOM     15  C   UNL     1      -3.276   0.506  24.351  0.00  0.00    +0.225 A 
ATOM     16  C   UNL     1      -3.941   0.059  24.153  0.00  0.00    +0.058 A 
ATOM     17  C   UNL     1      -4.040  -0.695  24.474  0.00  0.00    +0.010 A 
ATOM     18  C   UNL     1      -3.476  -1.001  24.992  0.00  0.00    +0.091 A 
ATOM     19  C   UNL     1      -2.811  -0.554  25.189  0.00  0.00    +0.106 A 
ATOM     20  N   UNL     1      -2.712   0.200  24.868  0.00  0.00    -0.210 NA
BRANCH  18  21
ATOM     21  C   UNL     1      -3.576  -1.755  25.312  0.00  0.00    +0.420 C 
ATOM     22  F   UNL     1      -3.676  -2.508  25.632  0.00  0.00    -0.166 F 
ATOM     23  F   UNL     1      -3.454  -2.087  24.567  0.00  0.00    -0.166 F 
ATOM     24  F   UNL     1      -3.697  -1.423  26.057  0.00  0.00    -0.166 F 
ENDBRANCH  18  21
ENDBRANCH  14  15
ENDBRANCH  12  14
TORSDOF 5
ENDMDL
MODEL 2
REMARK VINA RESULT:     -12.3      1.456      5.418
REMARK  Name = 
REMARK  5 active torsions:
REMARK  status: ('A' for Active; 'I' for Inactive)
REMARK    1  A    between atoms: C_5  and  C_6
REMARK    2  A    between atoms: C_6  and  N_7
REMARK    3  A    between atoms: C_12  and  O_14
REMARK    4  A    between atoms: O_14  and  C_15
REMARK    5  A    between atoms: C_18  and  C_21
REMARK                            x       y       z     vdW  Elec       q    Type
REMARK                         _______ _______ _______ _____ _____    ______ ____
ROOT
ATOM      7  N   UNL     1      -2.343  -0.150  25.218  0.00  0.00    -0.264 NA
ATOM      8  C   UNL     1      -1.718  -0.581  25.542  0.00  0.00    +0.105 C 
ATOM      9  C   UNL     1      -0.907  -0.446  25.468  0.00  0.00    +0.160 C 
ATOM     10  O   UNL     1      -0.521   0.154  25.052  0.00  0.00    -0.348 OA
ATOM     11  C   UNL     1      -0.852   0.765  24.608  0.00  0.00    +0.187 C 
ATOM     12  C   UNL     1      -1.649   0.929  24.470  0.00  0.00    +0.213 C 
ATOM     13  C   UNL     1      -2.311   0.521  24.741  0.00  0.00    +0.119 C 
ENDROOT
BRANCH   7   6
ATOM      6  C   UNL     1      -3.099  -0.429  25.396  0.00  0.00    +0.099 C 
BRANCH   6   5
ATOM      1  F   UNL     1      -4.438  -2.840  23.583  0.00  0.00    -0.204 F 
ATOM      2  C   UNL     1      -4.103  -2.237  24.036  0.00  0.00    +0.140 A 
ATOM      3  C   UNL     1      -4.263  -1.448  23.857  0.00  0.00    +0.029 A 
ATOM      4  C   UNL     1      -3.929  -0.846  24.310  0.00  0.00    -0.001 A 
ATOM      5  C   UNL     1      -3.433  -1.032  24.943  0.00  0.00    -0.006 A 
ATOM     25  C   UNL     1      -3.273  -1.822  25.122  0.00  0.00    -0.001 A 
ATOM     26  C   UNL     1      -3.607  -2.424  24.670  0.00  0.00    +0.029 A 
ENDBRANCH   6   5
ENDBRANCH   7   6
BRANCH  12  14
ATOM     14  O   UNL     1      -1.802   1.588  23.997  0.00  0.00    -0.460 OA
BRANCH  14  15
ATOM     15  C   UNL     1      -1.741   2.346  24.315  0.00  0.00    +0.225 A 
ATOM     16  C   UNL     1      -2.420   2.744  24.565  0.00  0.00    +0.058 A 
ATOM     17  C   UNL     1      -2.359   3.503  24.884  0.00  0.00    +0.010 A 
ATOM     18  C   UNL     1      -1.621   3.864  24.953  0.00  0.00    +0.091 A 
ATOM     19  C   UNL     1      -0.943   3.467  24.703  0.00  0.00    +0.106 A 
ATOM     20  N   UNL     1      -1.003   2.708  24.384  0.00  0.00    -0.210 NA
BRANCH  18  21
ATOM     21  C   UNL     1      -1.561   4.622  25.272  0.00  0.00    +0.420 C 
ATOM     22  F   UNL     1      -1.502   5.381  25.590  0.00  0.00    -0.166 F 
ATOM     23  F   UNL     1      -2.072   4.406  25.882  0.00  0.00    -0.166 F 
ATOM     24  F   UNL     1      -1.051   4.839  24.662  0.00  0.00    -0.166 F 
ENDBRANCH  18  21
ENDBRANCH  14  15
ENDBRANCH  12  14
TORSDOF 5
ENDMDL
MODEL 3
REMARK VINA RESULT:     -12.0      1.759      2.503
REMARK  Name = 
REMARK  5 active torsions:
REMARK  status: ('A' for Active; 'I' for Inactive)
REMARK    1  A    between atoms: C_5  and  C_6
REMARK    2  A    between atoms: C_6  and  N_7
REMARK    3  A    between atoms: C_12  and  O_14
REMARK    4  A    between atoms: O_14  and  C_15
REMARK    5  A    between atoms: C_18  and  C_21
REMARK                            x       y       z     vdW  Elec       q    Type
REMARK                         _______ _______ _______ _____ _____    ______ ____
ROOT
ATOM      7  N   UNL     1      -0.487   1.702  25.390  0.00  0.00    -0.264 NA
ATOM      8  C   UNL     1      -0.045   1.787  24.699  0.00  0.00    +0.105 C 
ATOM      9  C   UNL     1       0.069   1.241  24.091  0.00  0.00    +0.160 C 
ATOM     10  O   UNL     1      -0.232   0.476  24.023  0.00  0.00    -0.348 OA
ATOM     11  C   UNL     1      -0.721   0.068  24.548  0.00  0.00    +0.187 C 
ATOM     12  C   UNL     1      -1.029   0.324  25.269  0.00  0.00    +0.213 C 
ATOM     13  C   UNL     1      -0.925   1.051  25.643  0.00  0.00    +0.119 C 
ENDROOT
BRANCH   7   6
ATOM      6  C   UNL     1      -0.491   2.355  25.894  0.00  0.00    +0.099 C 
BRANCH   6   5
ATOM      1  F   UNL     1      -2.152   5.080  25.053  0.00  0.00    -0.204 F 
ATOM      2  C   UNL     1      -1.737   4.399  25.263  0.00  0.00    +0.140 A 
ATOM      3  C   UNL     1      -0.946   4.314  25.046  0.00  0.00    +0.029 A 
ATOM      4  C   UNL     1      -0.531   3.633  25.256  0.00  0.00    -0.001 A 
ATOM      5  C   UNL     1      -0.906   3.036  25.684  0.00  0.00    -0.006 A 
ATOM     25  C   UNL     1      -1.698   3.121  25.902  0.00  0.00    -0.001 A 
ATOM     26  C   UNL     1      -2.113   3.801  25.692  0.00  0.00    +0.029 A 
ENDBRANCH   6   5
ENDBRANCH   7   6
BRANCH  12  14
ATOM     14  O   UNL     1      -1.505  -0.220  25.668  0.00  0.00    -0.460 OA
BRANCH  14  15
ATOM     15  C   UNL     1      -2.149  -0.562  25.285  0.00  0.00    +0.225 A 
ATOM     16  C   UNL     1      -2.884  -0.185  25.297  0.00  0.00    +0.058 A 
ATOM     17  C   UNL     1      -3.529  -0.528  24.913  0.00  0.00    +0.010 A 
ATOM     18  C   UNL     1      -3.440  -1.247  24.518  0.00  0.00    +0.091 A 
ATOM     19  C   UNL     1      -2.707  -1.623  24.506  0.00  0.00    +0.106 A 
ATOM     20  N   UNL     1      -2.061  -1.280  24.890  0.00  0.00    -0.210 NA
BRANCH  18  21
ATOM     21  C   UNL     1      -4.086  -1.588  24.134  0.00  0.00    +0.420 C 
ATOM     22  F   UNL     1      -4.731  -1.930  23.751  0.00  0.00    -0.166 F 
ATOM     23  F   UNL     1      -4.111  -2.182  24.706  0.00  0.00    -0.166 F 
ATOM     24  F   UNL     1      -4.061  -0.995  23.562  0.00  0.00    -0.166 F 
ENDBRANCH  18  21
ENDBRANCH  14  15
ENDBRANCH  12  14
TORSDOF 5
ENDMDL
MODEL 4
REMARK VINA RESULT:     -11.7      2.021      2.677
REMARK  Name = 
REMARK  5 active torsions:
REMARK  status: ('A' for Active; 'I' for Inactive)
REMARK    1  A    between atoms: C_5  and  C_6
REMARK    2  A    between atoms: C_6  and  N_7
REMARK    3  A    between atoms: C_12  and  O_14
REMARK    4  A    between atoms: O_14  and  C_15
REMARK    5  A    between atoms: C_18  and  C_21
REMARK                            x       y       z     vdW  Elec       q    Type
REMARK                         _______ _______ _______ _____ _____    ______ ____
ROOT
ATOM      7  N   UNL     1      -3.020   1.719  23.934  0.00  0.00    -0.264 NA
ATOM      8  C   UNL     1      -2.399   2.047  23.501  0.00  0.00    +0.105 C 
ATOM      9  C   UNL     1      -1.595   1.867  23.538  0.00  0.00    +0.160 C 
ATOM     10  O   UNL     1      -1.213   1.315  24.017  0.00  0.00    -0.348 OA
ATOM     11  C   UNL     1      -1.541   0.806  24.577  0.00  0.00    +0.187 C 
ATOM     12  C   UNL     1      -2.332   0.724  24.797  0.00  0.00    +0.213 C 
ATOM     13  C   UNL     1      -2.990   1.131  24.511  0.00  0.00    +0.119 C 
ENDROOT
BRANCH   7   6
ATOM      6  C   UNL     1      -3.770   2.021  23.768  0.00  0.00    +0.099 C 
BRANCH   6   5
ATOM      1  F   UNL     1      -5.154   4.221  25.801  0.00  0.00    -0.204 F 
ATOM      2  C   UNL     1      -4.808   3.671  25.293  0.00  0.00    +0.140 A 
ATOM      3  C   UNL     1      -5.116   2.908  25.239  0.00  0.00    +0.029 A 
ATOM      4  C   UNL     1      -4.770   2.359  24.731  0.00  0.00    -0.001 A 
ATOM      5  C   UNL     1      -4.116   2.571  24.276  0.00  0.00    -0.006 A 
ATOM     25  C   UNL     1      -3.807   3.335  24.330  0.00  0.00    -0.001 A 
ATOM     26  C   UNL     1      -4.152   3.884  24.838  0.00  0.00    +0.029 A 
ENDBRANCH   6   5
ENDBRANCH   7   6
BRANCH  12  14
ATOM     14  O   UNL     1      -2.485   0.161  25.381  0.00  0.00    -0.460 OA
BRANCH  14  15
ATOM     15  C   UNL     1      -2.767  -0.585  25.169  0.00  0.00    +0.225 A 
ATOM     16  C   UNL     1      -3.542  -0.800  25.356  0.00  0.00    +0.058 A 
ATOM     17  C   UNL     1      -3.824  -1.547  25.144  0.00  0.00    +0.010 A 
ATOM     18  C   UNL     1      -3.332  -2.077  24.747  0.00  0.00    +0.091 A 
ATOM     19  C   UNL     1      -2.558  -1.861  24.560  0.00  0.00    +0.106 A 
ATOM     20  N   UNL     1      -2.276  -1.115  24.772  0.00  0.00    -0.210 NA
BRANCH  18  21
ATOM     21  C   UNL     1      -3.615  -2.822  24.536  0.00  0.00    +0.420 C 
ATOM     22  F   UNL     1      -3.898  -3.568  24.325  0.00  0.00    -0.166 F 
ATOM     23  F   UNL     1      -3.378  -3.119  25.268  0.00  0.00    -0.166 F 
ATOM     24  F   UNL     1      -3.852  -2.526  23.804  0.00  0.00    -0.166 F 
ENDBRANCH  18  21
ENDBRANCH  14  15
ENDBRANCH  12  14
TORSDOF 5
ENDMDL
