MODEL 1
REMARK VINA RESULT:      -7.9      0.000      0.000
REMARK  Name = 
REMARK  7 active torsions:
REMARK  status: ('A' for Active; 'I' for Inactive)
REMARK    1  A    between atoms: S_2  and  C_5
REMARK    2  A    between atoms: C_8  and  C_9
REMARK    3  A    between atoms: C_9  and  N_10
REMARK    4  A    between atoms: C_14  and  C_15
REMARK    5  A    between atoms: C_17  and  C_20
REMARK    6  A    between atoms: C_23  and  N_26
REMARK    7  A    between atoms: C_29  and  C_32
REMARK                            x       y       z     vdW  Elec       q    Type
REMARK                         _______ _______ _______ _____ _____    ______ ____
ROOT
ATOM     15  C   UNL     1      -2.735  -0.359  24.660  0.00  0.00    +0.251 A 
ATOM     16  N   UNL     1      -2.129  -0.116  24.154  0.00  0.00    -0.190 NA
ATOM     17  C   UNL     1      -1.409  -0.320  24.502  0.00  0.00    +0.205 A 
ATOM     18  N   UNL     1      -1.570  -0.689  25.222  0.00  0.00    -0.056 NA
ATOM     19  O   UNL     1      -2.388  -0.713  25.319  0.00  0.00    -0.336 OA
ENDROOT
BRANCH  17  20
ATOM     20  C   UNL     1      -0.660  -0.179  24.186  0.00  0.00    +0.058 A 
ATOM     21  C   UNL     1      -0.373   0.592  24.134  0.00  0.00    +0.008 A 
ATOM     22  C   UNL     1       0.376   0.732  23.817  0.00  0.00    +0.034 A 
ATOM     23  C   UNL     1       0.837   0.102  23.553  0.00  0.00    +0.132 A 
ATOM     24  N   UNL     1       0.550  -0.670  23.604  0.00  0.00    -0.229 NA
ATOM     25  C   UNL     1      -0.199  -0.810  23.921  0.00  0.00    +0.103 A 
BRANCH  23  26
ATOM     26  N   UNL     1       1.586   0.242  23.236  0.00  0.00    -0.293 N 
ATOM     27  C   UNL     1       2.036   0.878  23.508  0.00  0.00    +0.093 C 
ATOM     28  C   UNL     1       2.785   1.018  23.191  0.00  0.00    +0.031 C 
ATOM     29  C   UNL     1       3.084   0.523  22.603  0.00  0.00    +0.083 C 
ATOM     30  C   UNL     1       2.634  -0.113  22.331  0.00  0.00    +0.031 C 
ATOM     31  C   UNL     1       1.885  -0.254  22.648  0.00  0.00    +0.093 C 
BRANCH  29  32
ATOM     32  C   UNL     1       3.833   0.663  22.286  0.00  0.00    +0.260 C 
ATOM     33  N   UNL     1       4.489   0.708  22.784  0.00  0.00    -0.088 NA
ATOM     34  O   UNL     1       3.925   0.758  21.472  0.00  0.00    -0.272 OA
ENDBRANCH  29  32
ENDBRANCH  23  26
ENDBRANCH  17  20
BRANCH  15  14
ATOM     10  N   UNL     1      -4.011   0.351  24.813  0.00  0.00    -0.263 NA
ATOM     11  C   UNL     1      -4.783   0.229  24.549  0.00  0.00    +0.073 C 
ATOM     12  C   UNL     1      -4.792  -0.464  24.100  0.00  0.00    +0.019 C 
ATOM     13  C   UNL     1      -4.025  -0.768  24.087  0.00  0.00    +0.027 C 
ATOM     14  C   UNL     1      -3.543  -0.264  24.528  0.00  0.00    +0.138 C 
BRANCH  10   9
ATOM      9  C   UNL     1      -3.754   0.980  25.281  0.00  0.00    +0.099 C 
BRANCH   9   8
ATOM      5  C   UNL     1      -5.075   3.072  25.381  0.00  0.00    +0.106 A 
ATOM      6  C   UNL     1      -4.370   3.049  24.952  0.00  0.00    +0.018 A 
ATOM      7  C   UNL     1      -3.930   2.352  24.918  0.00  0.00    -0.002 A 
ATOM      8  C   UNL     1      -4.194   1.678  25.314  0.00  0.00    -0.006 A 
ATOM     35  C   UNL     1      -4.899   1.701  25.743  0.00  0.00    -0.002 A 
ATOM     36  C   UNL     1      -5.338   2.398  25.776  0.00  0.00    +0.018 A 
BRANCH   5   2
ATOM      1  C   UNL     1      -5.955   4.466  25.447  0.00  0.00    +0.182 C 
ATOM      2  S   UNL     1      -5.514   3.768  25.414  0.00  0.00    +0.010 S 
ATOM      3  O   UNL     1      -6.125   3.365  25.796  0.00  0.00    -0.169 OA
ATOM      4  O   UNL     1      -4.905   4.172  25.032  0.00  0.00    -0.169 OA
ENDBRANCH   5   2
ENDBRANCH   9   8
ENDBRANCH  10   9
ENDBRANCH  15  14
TORSDOF 7
ENDMDL
MODEL 2
REMARK VINA RESULT:      -7.7      2.473      7.493
REMARK  Name = 
REMARK  7 active torsions:
REMARK  status: ('A' for Active; 'I' for Inactive)
REMARK    1  A    between atoms: S_2  and  C_5
REMARK    2  A    between atoms: C_8  and  C_9
REMARK    3  A    between atoms: C_9  and  N_10
REMARK    4  A    between atoms: C_14  and  C_15
REMARK    5  A    between atoms: C_17  and  C_20
REMARK    6  A    between atoms: C_23  and  N_26
REMARK    7  A    between atoms: C_29  and  C_32
REMARK                            x       y       z     vdW  Elec       q    Type
REMARK                         _______ _______ _______ _____ _____    ______ ____
ROOT
ATOM     15  C   UNL     1       0.509  -0.116  23.098  0.00  0.00    +0.251 A 
ATOM     16  N   UNL     1      -0.112   0.427  23.115  0.00  0.00    -0.190 NA
ATOM     17  C   UNL     1      -0.507   0.341  23.834  0.00  0.00    +0.205 A 
ATOM     18  N   UNL     1      -0.130  -0.255  24.261  0.00  0.00    -0.056 NA
ATOM     19  O   UNL     1       0.497  -0.537  23.807  0.00  0.00    -0.336 OA
ENDROOT
BRANCH  17  20
ATOM     20  C   UNL     1      -1.163   0.775  24.082  0.00  0.00    +0.058 A 
ATOM     21  C   UNL     1      -1.432   1.410  23.630  0.00  0.00    +0.008 A 
ATOM     22  C   UNL     1      -2.089   1.844  23.878  0.00  0.00    +0.034 A 
ATOM     23  C   UNL     1      -2.476   1.643  24.577  0.00  0.00    +0.132 A 
ATOM     24  N   UNL     1      -2.208   1.007  25.030  0.00  0.00    -0.229 NA
ATOM     25  C   UNL     1      -1.551   0.573  24.782  0.00  0.00    +0.103 A 
BRANCH  23  26
ATOM     26  N   UNL     1      -3.133   2.077  24.825  0.00  0.00    -0.293 N 
ATOM     27  C   UNL     1      -3.893   1.777  24.708  0.00  0.00    +0.093 C 
ATOM     28  C   UNL     1      -4.549   2.211  24.956  0.00  0.00    +0.031 C 
ATOM     29  C   UNL     1      -4.446   2.944  25.321  0.00  0.00    +0.083 C 
ATOM     30  C   UNL     1      -3.686   3.243  25.438  0.00  0.00    +0.031 C 
ATOM     31  C   UNL     1      -3.029   2.809  25.190  0.00  0.00    +0.093 C 
BRANCH  29  32
ATOM     32  C   UNL     1      -5.103   3.378  25.569  0.00  0.00    +0.260 C 
ATOM     33  N   UNL     1      -5.612   3.066  26.139  0.00  0.00    -0.088 NA
ATOM     34  O   UNL     1      -5.250   4.123  25.248  0.00  0.00    -0.272 OA
ENDBRANCH  29  32
ENDBRANCH  23  26
ENDBRANCH  17  20
BRANCH  15  14
ATOM     10  N   UNL     1       1.834   0.025  22.478  0.00  0.00    -0.263 NA
ATOM     11  C   UNL     1       2.166  -0.188  21.754  0.00  0.00    +0.073 C 
ATOM     12  C   UNL     1       1.582  -0.565  21.308  0.00  0.00    +0.019 C 
ATOM     13  C   UNL     1       0.890  -0.584  21.757  0.00  0.00    +0.027 C 
ATOM     14  C   UNL     1       1.046  -0.219  22.481  0.00  0.00    +0.138 C 
BRANCH  10   9
ATOM      9  C   UNL     1       2.222   0.416  23.092  0.00  0.00    +0.099 C 
BRANCH   9   8
ATOM      5  C   UNL     1       4.682   0.238  23.312  0.00  0.00    +0.106 A 
ATOM      6  C   UNL     1       4.344   0.922  22.998  0.00  0.00    +0.018 A 
ATOM      7  C   UNL     1       3.525   0.982  22.924  0.00  0.00    -0.002 A 
ATOM      8  C   UNL     1       3.042   0.356  23.166  0.00  0.00    -0.006 A 
ATOM     35  C   UNL     1       3.380  -0.328  23.480  0.00  0.00    -0.002 A 
ATOM     36  C   UNL     1       4.200  -0.386  23.553  0.00  0.00    +0.018 A 
BRANCH   5   2
ATOM      1  C   UNL     1       6.321   0.120  23.459  0.00  0.00    +0.182 C 
ATOM      2  S   UNL     1       5.501   0.179  23.385  0.00  0.00    +0.010 S 
ATOM      3  O   UNL     1       5.464   0.568  24.112  0.00  0.00    -0.169 OA
ATOM      4  O   UNL     1       5.538  -0.210  22.659  0.00  0.00    -0.169 OA
ENDBRANCH   5   2
ENDBRANCH   9   8
ENDBRANCH  10   9
ENDBRANCH  15  14
TORSDOF 7
ENDMDL
MODEL 3
REMARK VINA RESULT:      -7.3      1.176      1.676
REMARK  Name = 
REMARK  7 active torsions:
REMARK  status: ('A' for Active; 'I' for Inactive)
REMARK    1  A    between atoms: S_2  and  C_5
REMARK    2  A    between atoms: C_8  and  C_9
REMARK    3  A    between atoms: C_9  and  N_10
REMARK    4  A    between atoms: C_14  and  C_15
REMARK    5  A    between atoms: C_17  and  C_20
REMARK    6  A    between atoms: C_23  and  N_26
REMARK    7  A    between atoms: C_29  and  C_32
REMARK                            x       y       z     vdW  Elec       q    Type
REMARK                         _______ _______ _______ _____ _____    ______ ____
ROOT
ATOM     15  C   UNL     1      -1.547   0.467  23.843  0.00  0.00    +0.251 A 
ATOM     16  N   UNL     1      -0.761   0.289  24.020  0.00  0.00    -0.190 NA
ATOM     17  C   UNL     1      -0.291   0.566  23.401  0.00  0.00    +0.205 A 
ATOM     18  N   UNL     1      -0.786   0.914  22.842  0.00  0.00    -0.056 NA
ATOM     19  O   UNL     1      -1.562   0.853  23.114  0.00  0.00    -0.336 OA
ENDROOT
BRANCH  17  20
ATOM     20  C   UNL     1       0.530   0.504  23.351  0.00  0.00    +0.058 A 
ATOM     21  C   UNL     1       0.872  -0.118  22.930  0.00  0.00    +0.008 A 
ATOM     22  C   UNL     1       1.693  -0.179  22.880  0.00  0.00    +0.034 A 
ATOM     23  C   UNL     1       2.172   0.381  23.250  0.00  0.00    +0.132 A 
ATOM     24  N   UNL     1       1.831   1.002  23.671  0.00  0.00    -0.229 NA
ATOM     25  C   UNL     1       1.009   1.064  23.722  0.00  0.00    +0.103 A 
BRANCH  23  26
ATOM     26  N   UNL     1       2.994   0.319  23.200  0.00  0.00    -0.293 N 
ATOM     27  C   UNL     1       3.371  -0.372  23.446  0.00  0.00    +0.093 C 
ATOM     28  C   UNL     1       4.193  -0.433  23.396  0.00  0.00    +0.031 C 
ATOM     29  C   UNL     1       4.636   0.196  23.100  0.00  0.00    +0.083 C 
ATOM     30  C   UNL     1       4.259   0.887  22.854  0.00  0.00    +0.031 C 
ATOM     31  C   UNL     1       3.437   0.948  22.904  0.00  0.00    +0.093 C 
BRANCH  29  32
ATOM     32  C   UNL     1       5.458   0.134  23.050  0.00  0.00    +0.260 C 
ATOM     33  N   UNL     1       5.927   0.352  23.692  0.00  0.00    -0.088 NA
ATOM     34  O   UNL     1       5.809  -0.144  22.357  0.00  0.00    -0.272 OA
ENDBRANCH  29  32
ENDBRANCH  23  26
ENDBRANCH  17  20
BRANCH  15  14
ATOM     10  N   UNL     1      -2.790   0.819  24.543  0.00  0.00    -0.263 NA
ATOM     11  C   UNL     1      -3.336   0.409  25.006  0.00  0.00    +0.073 C 
ATOM     12  C   UNL     1      -3.085  -0.376  25.060  0.00  0.00    +0.019 C 
ATOM     13  C   UNL     1      -2.384  -0.449  24.631  0.00  0.00    +0.027 C 
ATOM     14  C   UNL     1      -2.202   0.290  24.311  0.00  0.00    +0.138 C 
BRANCH  10   9
ATOM      9  C   UNL     1      -2.826   1.619  24.347  0.00  0.00    +0.099 C 
BRANCH   9   8
ATOM      5  C   UNL     1      -4.680   3.021  25.200  0.00  0.00    +0.106 A 
ATOM      6  C   UNL     1      -3.942   3.043  25.568  0.00  0.00    +0.018 A 
ATOM      7  C   UNL     1      -3.324   2.577  25.285  0.00  0.00    -0.002 A 
ATOM      8  C   UNL     1      -3.444   2.087  24.631  0.00  0.00    -0.006 A 
ATOM     35  C   UNL     1      -4.182   2.064  24.262  0.00  0.00    -0.002 A 
ATOM     36  C   UNL     1      -4.799   2.532  24.547  0.00  0.00    +0.018 A 
BRANCH   5   2
ATOM      1  C   UNL     1      -5.915   3.955  25.768  0.00  0.00    +0.182 C 
ATOM      2  S   UNL     1      -5.297   3.488  25.484  0.00  0.00    +0.010 S 
ATOM      3  O   UNL     1      -5.634   2.825  25.842  0.00  0.00    -0.169 OA
ATOM      4  O   UNL     1      -4.961   4.151  25.126  0.00  0.00    -0.169 OA
ENDBRANCH   5   2
ENDBRANCH   9   8
ENDBRANCH  10   9
ENDBRANCH  15  14
TORSDOF 7
ENDMDL
MODEL 4
REMARK VINA RESULT:      -7.0      1.847      3.153
REMARK  Name = 
REMARK  7 active torsions:
REMARK  status: ('A' for Active; 'I' for Inactive)
REMARK    1  A    between atoms: S_2  and  C_5
REMARK    2  A    between atoms: C_8  and  C_9
REMARK    3  A    between atoms: C_9  and  N_10
REMARK    4  A    between atoms: C_14  and  C_15
REMARK    5  A    between atoms: C_17  and  C_20
REMARK    6  A    between atoms: C_23  and  N_26
REMARK    7  A    between atoms: C_29  and  C_32
REMARK                            x       y       z     vdW  Elec       q    Type
REMARK                         _______ _______ _______ _____ _____    ______ ____
ROOT
ATOM     15  C   UNL     1      -2.530   1.866  24.781  0.00  0.00    +0.251 A 
ATOM     16  N   UNL     1      -1.943   1.556  24.290  0.00  0.00    -0.190 NA
ATOM     17  C   UNL     1      -1.210   1.758  24.610  0.00  0.00    +0.205 A 
ATOM     18  N   UNL     1      -1.344   2.192  25.298  0.00  0.00    -0.056 NA
ATOM     19  O   UNL     1      -2.158   2.260  25.403  0.00  0.00    -0.336 OA
ENDROOT
BRANCH  17  20
ATOM     20  C   UNL     1      -0.473   1.559  24.297  0.00  0.00    +0.058 A 
ATOM     21  C   UNL     1      -0.381   0.858  23.871  0.00  0.00    +0.008 A 
ATOM     22  C   UNL     1       0.356   0.660  23.558  0.00  0.00    +0.034 A 
ATOM     23  C   UNL     1       1.001   1.161  23.671  0.00  0.00    +0.132 A 
ATOM     24  N   UNL     1       0.909   1.862  24.096  0.00  0.00    -0.229 NA
ATOM     25  C   UNL     1       0.172   2.061  24.410  0.00  0.00    +0.103 A 
BRANCH  23  26
ATOM     26  N   UNL     1       1.738   0.963  23.357  0.00  0.00    -0.293 N 
ATOM     27  C   UNL     1       2.371   1.488  23.428  0.00  0.00    +0.093 C 
ATOM     28  C   UNL     1       3.108   1.289  23.115  0.00  0.00    +0.031 C 
ATOM     29  C   UNL     1       3.212   0.566  22.731  0.00  0.00    +0.083 C 
ATOM     30  C   UNL     1       2.579   0.041  22.661  0.00  0.00    +0.031 C 
ATOM     31  C   UNL     1       1.842   0.240  22.974  0.00  0.00    +0.093 C 
BRANCH  29  32
ATOM     32  C   UNL     1       3.949   0.367  22.418  0.00  0.00    +0.260 C 
ATOM     33  N   UNL     1       4.561   0.136  22.920  0.00  0.00    -0.088 NA
ATOM     34  O   UNL     1       4.074   0.400  21.603  0.00  0.00    -0.272 OA
ENDBRANCH  29  32
ENDBRANCH  23  26
ENDBRANCH  17  20
BRANCH  15  14
ATOM     10  N   UNL     1      -3.820   1.185  24.949  0.00  0.00    -0.263 NA
ATOM     11  C   UNL     1      -4.595   1.334  24.709  0.00  0.00    +0.073 C 
ATOM     12  C   UNL     1      -4.597   2.039  24.279  0.00  0.00    +0.019 C 
ATOM     13  C   UNL     1      -3.824   2.324  24.254  0.00  0.00    +0.027 C 
ATOM     14  C   UNL     1      -3.343   1.796  24.668  0.00  0.00    +0.138 C 
BRANCH  10   9
ATOM      9  C   UNL     1      -3.567   0.537  25.392  0.00  0.00    +0.099 C 
BRANCH   9   8
ATOM      5  C   UNL     1      -3.878  -1.759  24.520  0.00  0.00    +0.106 A 
ATOM      6  C   UNL     1      -3.338  -1.618  25.128  0.00  0.00    +0.018 A 
ATOM      7  C   UNL     1      -3.234  -0.853  25.419  0.00  0.00    -0.002 A 
ATOM      8  C   UNL     1      -3.671  -0.228  25.101  0.00  0.00    -0.006 A 
ATOM     35  C   UNL     1      -4.211  -0.369  24.494  0.00  0.00    -0.002 A 
ATOM     36  C   UNL     1      -4.314  -1.135  24.203  0.00  0.00    +0.018 A 
BRANCH   5   2
ATOM      1  C   UNL     1      -4.085  -3.289  23.939  0.00  0.00    +0.182 C 
ATOM      2  S   UNL     1      -3.982  -2.523  24.230  0.00  0.00    +0.010 S 
ATOM      3  O   UNL     1      -3.622  -2.829  24.906  0.00  0.00    -0.169 OA
ATOM      4  O   UNL     1      -4.342  -2.219  23.553  0.00  0.00    -0.169 OA
ENDBRANCH   5   2
ENDBRANCH   9   8
ENDBRANCH  10   9
ENDBRANCH  15  14
TORSDOF 7
ENDMDL
MODEL 5
REMARK VINA RESULT:      -5.9      2.061      6.897
REMARK  Name = 
REMARK  7 active torsions:
REMARK  status: ('A' for Active; 'I' for Inactive)
REMARK    1  A    between atoms: S_2  and  C_5
REMARK    2  A    between atoms: C_8  and  C_9
REMARK    3  A    between atoms: C_9  and  N_10
REMARK    4  A    between atoms: C_14  and  C_15
REMARK    5  A    between atoms: C_17  and  C_20
REMARK    6  A    between atoms: C_23  and  N_26
REMARK    7  A    between atoms: C_29  and  C_32
REMARK                            x       y       z     vdW  Elec       q    Type
REMARK                         _______ _______ _______ _____ _____    ______ ____
ROOT
ATOM     15  C   UNL     1      -1.747  -0.904  24.561  0.00  0.00    +0.251 A 
ATOM     16  N   UNL     1      -1.996  -0.161  24.817  0.00  0.00    -0.190 NA
ATOM     17  C   UNL     1      -2.781  -0.060  24.583  0.00  0.00    +0.205 A 
ATOM     18  N   UNL     1      -3.016  -0.741  24.182  0.00  0.00    -0.056 NA
ATOM     19  O   UNL     1      -2.378  -1.262  24.168  0.00  0.00    -0.336 OA
ENDROOT
BRANCH  17  20
ATOM     20  C   UNL     1      -3.248   0.605  24.725  0.00  0.00    +0.058 A 
ATOM     21  C   UNL     1      -4.066   0.562  24.627  0.00  0.00    +0.008 A 
ATOM     22  C   UNL     1      -4.533   1.228  24.770  0.00  0.00    +0.034 A 
ATOM     23  C   UNL     1      -4.183   1.935  25.010  0.00  0.00    +0.132 A 
ATOM     24  N   UNL     1      -3.365   1.977  25.107  0.00  0.00    -0.229 NA
ATOM     25  C   UNL     1      -2.897   1.312  24.965  0.00  0.00    +0.103 A 
BRANCH  23  26
ATOM     26  N   UNL     1      -4.650   2.600  25.152  0.00  0.00    -0.293 N 
ATOM     27  C   UNL     1      -4.361   3.352  24.974  0.00  0.00    +0.093 C 
ATOM     28  C   UNL     1      -4.829   4.017  25.116  0.00  0.00    +0.031 C 
ATOM     29  C   UNL     1      -5.584   3.930  25.436  0.00  0.00    +0.083 C 
ATOM     30  C   UNL     1      -5.873   3.178  25.614  0.00  0.00    +0.031 C 
ATOM     31  C   UNL     1      -5.405   2.513  25.472  0.00  0.00    +0.093 C 
BRANCH  29  32
ATOM     32  C   UNL     1      -6.051   4.595  25.578  0.00  0.00    +0.260 C 
ATOM     33  N   UNL     1      -5.865   5.314  25.218  0.00  0.00    -0.088 NA
ATOM     34  O   UNL     1      -6.704   4.541  26.080  0.00  0.00    -0.272 OA
ENDBRANCH  29  32
ENDBRANCH  23  26
ENDBRANCH  17  20
BRANCH  15  14
ATOM     10  N   UNL     1      -0.308  -1.013  24.282  0.00  0.00    -0.263 NA
ATOM     11  C   UNL     1       0.308  -1.480  24.568  0.00  0.00    +0.073 C 
ATOM     12  C   UNL     1      -0.001  -1.988  25.141  0.00  0.00    +0.019 C 
ATOM     13  C   UNL     1      -0.809  -1.834  25.207  0.00  0.00    +0.027 C 
ATOM     14  C   UNL     1      -0.999  -1.231  24.676  0.00  0.00    +0.138 C 
BRANCH  10   9
ATOM      9  C   UNL     1      -0.245  -0.430  23.702  0.00  0.00    +0.099 C 
BRANCH   9   8
ATOM      5  C   UNL     1       1.987   0.308  22.926  0.00  0.00    +0.106 A 
ATOM      6  C   UNL     1       1.600   0.724  23.523  0.00  0.00    +0.018 A 
ATOM      7  C   UNL     1       0.856   0.479  23.782  0.00  0.00    -0.002 A 
ATOM      8  C   UNL     1       0.499  -0.184  23.443  0.00  0.00    -0.006 A 
ATOM     35  C   UNL     1       0.887  -0.601  22.846  0.00  0.00    -0.002 A 
ATOM     36  C   UNL     1       1.631  -0.354  22.588  0.00  0.00    +0.018 A 
BRANCH   5   2
ATOM      1  C   UNL     1       3.475   0.799  22.409  0.00  0.00    +0.182 C 
ATOM      2  S   UNL     1       2.730   0.553  22.667  0.00  0.00    +0.010 S 
ATOM      3  O   UNL     1       2.794   1.051  23.322  0.00  0.00    -0.169 OA
ATOM      4  O   UNL     1       2.668   0.056  22.013  0.00  0.00    -0.169 OA
ENDBRANCH   5   2
ENDBRANCH   9   8
ENDBRANCH  10   9
ENDBRANCH  15  14
TORSDOF 7
ENDMDL
MODEL 6
REMARK VINA RESULT:      -5.7     15.116     17.453
REMARK  Name = 
REMARK  7 active torsions:
REMARK  status: ('A' for Active; 'I' for Inactive)
REMARK    1  A    between atoms: S_2  and  C_5
REMARK    2  A    between atoms: C_8  and  C_9
REMARK    3  A    between atoms: C_9  and  N_10
REMARK    4  A    between atoms: C_14  and  C_15
REMARK    5  A    between atoms: C_17  and  C_20
REMARK    6  A    between atoms: C_23  and  N_26
REMARK    7  A    between atoms: C_29  and  C_32
REMARK                            x       y       z     vdW  Elec       q    Type
REMARK                         _______ _______ _______ _____ _____    ______ ____
ROOT
ATOM     15  C   UNL     1      11.530  -8.593  32.230  0.00  0.00    +0.251 A 
ATOM     16  N   UNL     1      12.020  -8.540  31.569  0.00  0.00    -0.190 NA
ATOM     17  C   UNL     1      12.510  -7.883  31.667  0.00  0.00    +0.205 A 
ATOM     18  N   UNL     1      12.323  -7.531  32.388  0.00  0.00    -0.056 NA
ATOM     19  O   UNL     1      11.718  -7.970  32.736  0.00  0.00    -0.336 OA
ENDROOT
BRANCH  17  20
ATOM     20  C   UNL     1      13.086  -7.625  31.136  0.00  0.00    +0.058 A 
ATOM     21  C   UNL     1      12.926  -6.993  30.630  0.00  0.00    +0.008 A 
ATOM     22  C   UNL     1      13.502  -6.734  30.099  0.00  0.00    +0.034 A 
ATOM     23  C   UNL     1      14.238  -7.107  30.074  0.00  0.00    +0.132 A 
ATOM     24  N   UNL     1      14.398  -7.739  30.580  0.00  0.00    -0.229 NA
ATOM     25  C   UNL     1      13.821  -7.998  31.111  0.00  0.00    +0.103 A 
BRANCH  23  26
ATOM     26  N   UNL     1      14.814  -6.848  29.543  0.00  0.00    -0.293 N 
ATOM     27  C   UNL     1      14.765  -7.060  28.747  0.00  0.00    +0.093 C 
ATOM     28  C   UNL     1      15.342  -6.801  28.216  0.00  0.00    +0.031 C 
ATOM     29  C   UNL     1      15.966  -6.331  28.481  0.00  0.00    +0.083 C 
ATOM     30  C   UNL     1      16.015  -6.120  29.277  0.00  0.00    +0.031 C 
ATOM     31  C   UNL     1      15.438  -6.379  29.808  0.00  0.00    +0.093 C 
BRANCH  29  32
ATOM     32  C   UNL     1      16.542  -6.072  27.950  0.00  0.00    +0.260 C 
ATOM     33  N   UNL     1      16.606  -6.425  27.207  0.00  0.00    -0.088 NA
ATOM     34  O   UNL     1      17.054  -5.461  28.162  0.00  0.00    -0.272 OA
ENDBRANCH  29  32
ENDBRANCH  23  26
ENDBRANCH  17  20
BRANCH  15  14
ATOM     10  N   UNL     1      10.140  -9.067  32.284  0.00  0.00    -0.263 NA
ATOM     11  C   UNL     1       9.773  -9.782  32.468  0.00  0.00    +0.073 C 
ATOM     12  C   UNL     1      10.362 -10.327  32.660  0.00  0.00    +0.019 C 
ATOM     13  C   UNL     1      11.092  -9.948  32.595  0.00  0.00    +0.027 C 
ATOM     14  C   UNL     1      10.954  -9.169  32.362  0.00  0.00    +0.138 C 
BRANCH  10   9
ATOM      9  C   UNL     1       9.758  -8.370  32.060  0.00  0.00    +0.099 C 
BRANCH   9   8
ATOM      5  C   UNL     1       7.298  -8.184  32.269  0.00  0.00    +0.106 A 
ATOM      6  C   UNL     1       7.786  -7.907  32.873  0.00  0.00    +0.018 A 
ATOM      7  C   UNL     1       8.605  -7.968  32.804  0.00  0.00    -0.002 A 
ATOM      8  C   UNL     1       8.938  -8.308  32.129  0.00  0.00    -0.006 A 
ATOM     35  C   UNL     1       8.450  -8.586  31.525  0.00  0.00    -0.002 A 
ATOM     36  C   UNL     1       7.630  -8.524  31.595  0.00  0.00    +0.018 A 
BRANCH   5   2
ATOM      1  C   UNL     1       5.659  -8.061  32.408  0.00  0.00    +0.182 C 
ATOM      2  S   UNL     1       6.479  -8.123  32.338  0.00  0.00    +0.010 S 
ATOM      3  O   UNL     1       6.435  -8.924  32.532  0.00  0.00    -0.169 OA
ATOM      4  O   UNL     1       6.523  -7.322  32.145  0.00  0.00    -0.169 OA
ENDBRANCH   5   2
ENDBRANCH   9   8
ENDBRANCH  10   9
ENDBRANCH  15  14
TORSDOF 7
ENDMDL
MODEL 7
REMARK VINA RESULT:      -5.6     16.188     18.901
REMARK  Name = 
REMARK  7 active torsions:
REMARK  status: ('A' for Active; 'I' for Inactive)
REMARK    1  A    between atoms: S_2  and  C_5
REMARK    2  A    between atoms: C_8  and  C_9
REMARK    3  A    between atoms: C_9  and  N_10
REMARK    4  A    between atoms: C_14  and  C_15
REMARK    5  A    between atoms: C_17  and  C_20
REMARK    6  A    between atoms: C_23  and  N_26
REMARK    7  A    between atoms: C_29  and  C_32
REMARK                            x       y       z     vdW  Elec       q    Type
REMARK                         _______ _______ _______ _____ _____    ______ ____
ROOT
ATOM     15  C   UNL     1      13.028  -6.508  32.089  0.00  0.00    +0.251 A 
ATOM     16  N   UNL     1      12.270  -6.725  31.844  0.00  0.00    -0.190 NA
ATOM     17  C   UNL     1      12.012  -7.340  32.329  0.00  0.00    +0.205 A 
ATOM     18  N   UNL     1      12.609  -7.503  32.873  0.00  0.00    -0.056 NA
ATOM     19  O   UNL     1      13.236  -6.989  32.725  0.00  0.00    -0.336 OA
ENDROOT
BRANCH  17  20
ATOM     20  C   UNL     1      11.283  -7.725  32.279  0.00  0.00    +0.058 A 
ATOM     21  C   UNL     1      11.222  -8.438  31.870  0.00  0.00    +0.008 A 
ATOM     22  C   UNL     1      10.493  -8.823  31.819  0.00  0.00    +0.034 A 
ATOM     23  C   UNL     1       9.827  -8.493  32.177  0.00  0.00    +0.132 A 
ATOM     24  N   UNL     1       9.888  -7.780  32.586  0.00  0.00    -0.229 NA
ATOM     25  C   UNL     1      10.617  -7.395  32.637  0.00  0.00    +0.103 A 
BRANCH  23  26
ATOM     26  N   UNL     1       9.098  -8.878  32.127  0.00  0.00    -0.293 N 
ATOM     27  C   UNL     1       8.485  -8.542  31.690  0.00  0.00    +0.093 C 
ATOM     28  C   UNL     1       7.756  -8.926  31.639  0.00  0.00    +0.031 C 
ATOM     29  C   UNL     1       7.642  -9.647  32.025  0.00  0.00    +0.083 C 
ATOM     30  C   UNL     1       8.256  -9.983  32.462  0.00  0.00    +0.031 C 
ATOM     31  C   UNL     1       8.984  -9.598  32.513  0.00  0.00    +0.093 C 
BRANCH  29  32
ATOM     32  C   UNL     1       6.914 -10.031  31.975  0.00  0.00    +0.260 C 
ATOM     33  N   UNL     1       6.803 -10.633  31.422  0.00  0.00    -0.088 NA
ATOM     34  O   UNL     1       6.296  -9.813  32.477  0.00  0.00    -0.272 OA
ENDBRANCH  29  32
ENDBRANCH  23  26
ENDBRANCH  17  20
BRANCH  15  14
ATOM     10  N   UNL     1      14.047  -6.013  31.154  0.00  0.00    -0.263 NA
ATOM     11  C   UNL     1      14.383  -5.277  30.992  0.00  0.00    +0.073 C 
ATOM     12  C   UNL     1      14.036  -4.723  31.495  0.00  0.00    +0.019 C 
ATOM     13  C   UNL     1      13.485  -5.116  31.967  0.00  0.00    +0.027 C 
ATOM     14  C   UNL     1      13.493  -5.914  31.756  0.00  0.00    +0.138 C 
BRANCH  10   9
ATOM      9  C   UNL     1      14.234  -6.724  30.780  0.00  0.00    +0.099 C 
BRANCH   9   8
ATOM      5  C   UNL     1      15.711  -6.726  28.793  0.00  0.00    +0.106 A 
ATOM      6  C   UNL     1      14.895  -6.656  28.700  0.00  0.00    +0.018 A 
ATOM      7  C   UNL     1      14.402  -6.656  29.361  0.00  0.00    -0.002 A 
ATOM      8  C   UNL     1      14.727  -6.725  30.117  0.00  0.00    -0.006 A 
ATOM     35  C   UNL     1      15.543  -6.794  30.211  0.00  0.00    -0.002 A 
ATOM     36  C   UNL     1      16.035  -6.795  29.548  0.00  0.00    +0.018 A 
BRANCH   5   2
ATOM      1  C   UNL     1      16.696  -6.727  27.469  0.00  0.00    +0.182 C 
ATOM      2  S   UNL     1      16.203  -6.727  28.132  0.00  0.00    +0.010 S 
ATOM      3  O   UNL     1      16.272  -5.906  28.182  0.00  0.00    -0.169 OA
ATOM      4  O   UNL     1      16.135  -7.547  28.081  0.00  0.00    -0.169 OA
ENDBRANCH   5   2
ENDBRANCH   9   8
ENDBRANCH  10   9
ENDBRANCH  15  14
TORSDOF 7
ENDMDL
MODEL 8
REMARK VINA RESULT:      -5.4     16.679     18.543
REMARK  Name = 
REMARK  7 active torsions:
REMARK  status: ('A' for Active; 'I' for Inactive)
REMARK    1  A    between atoms: S_2  and  C_5
REMARK    2  A    between atoms: C_8  and  C_9
REMARK    3  A    between atoms: C_9  and  N_10
REMARK    4  A    between atoms: C_14  and  C_15
REMARK    5  A    between atoms: C_17  and  C_20
REMARK    6  A    between atoms: C_23  and  N_26
REMARK    7  A    between atoms: C_29  and  C_32
REMARK                            x       y       z     vdW  Elec       q    Type
REMARK                         _______ _______ _______ _____ _____    ______ ____
ROOT
ATOM     15  C   UNL     1      13.558  -7.756  31.934  0.00  0.00    +0.251 A 
ATOM     16  N   UNL     1      13.797  -7.066  31.550  0.00  0.00    -0.190 NA
ATOM     17  C   UNL     1      14.237  -6.617  32.085  0.00  0.00    +0.205 A 
ATOM     18  N   UNL     1      14.270  -7.029  32.798  0.00  0.00    -0.056 NA
ATOM     19  O   UNL     1      13.851  -7.732  32.705  0.00  0.00    -0.336 OA
ENDROOT
BRANCH  17  20
ATOM     20  C   UNL     1      14.583  -5.883  31.932  0.00  0.00    +0.058 A 
ATOM     21  C   UNL     1      14.116  -5.204  31.908  0.00  0.00    +0.008 A 
ATOM     22  C   UNL     1      14.462  -4.470  31.755  0.00  0.00    +0.034 A 
ATOM     23  C   UNL     1      15.275  -4.417  31.626  0.00  0.00    +0.132 A 
ATOM     24  N   UNL     1      15.743  -5.096  31.650  0.00  0.00    -0.229 NA
ATOM     25  C   UNL     1      15.396  -5.830  31.803  0.00  0.00    +0.103 A 
BRANCH  23  26
ATOM     26  N   UNL     1      15.621  -3.684  31.473  0.00  0.00    -0.293 N 
ATOM     27  C   UNL     1      15.872  -3.497  30.710  0.00  0.00    +0.093 C 
ATOM     28  C   UNL     1      16.218  -2.764  30.557  0.00  0.00    +0.031 C 
ATOM     29  C   UNL     1      16.314  -2.218  31.168  0.00  0.00    +0.083 C 
ATOM     30  C   UNL     1      16.064  -2.404  31.931  0.00  0.00    +0.031 C 
ATOM     31  C   UNL     1      15.717  -3.137  32.084  0.00  0.00    +0.093 C 
BRANCH  29  32
ATOM     32  C   UNL     1      16.660  -1.484  31.015  0.00  0.00    +0.260 C 
ATOM     33  N   UNL     1      17.093  -1.369  30.322  0.00  0.00    -0.088 NA
ATOM     34  O   UNL     1      16.573  -0.866  31.554  0.00  0.00    -0.272 OA
ENDBRANCH  29  32
ENDBRANCH  23  26
ENDBRANCH  17  20
BRANCH  15  14
ATOM     10  N   UNL     1      12.324  -8.539  31.790  0.00  0.00    -0.263 NA
ATOM     11  C   UNL     1      12.091  -9.185  31.332  0.00  0.00    +0.073 C 
ATOM     12  C   UNL     1      12.732  -9.407  30.862  0.00  0.00    +0.019 C 
ATOM     13  C   UNL     1      13.360  -8.899  31.030  0.00  0.00    +0.027 C 
ATOM     14  C   UNL     1      13.107  -8.362  31.604  0.00  0.00    +0.138 C 
BRANCH  10   9
ATOM      9  C   UNL     1      11.854  -8.141  32.339  0.00  0.00    +0.099 C 
BRANCH   9   8
ATOM      5  C   UNL     1       9.415  -8.560  32.417  0.00  0.00    +0.106 A 
ATOM      6  C   UNL     1       9.716  -7.962  31.935  0.00  0.00    +0.018 A 
ATOM      7  C   UNL     1      10.528  -7.822  31.909  0.00  0.00    -0.002 A 
ATOM      8  C   UNL     1      11.041  -8.281  32.365  0.00  0.00    -0.006 A 
ATOM     35  C   UNL     1      10.740  -8.879  32.848  0.00  0.00    -0.002 A 
ATOM     36  C   UNL     1       9.927  -9.018  32.873  0.00  0.00    +0.018 A 
BRANCH   5   2
ATOM      1  C   UNL     1       7.790  -8.840  32.469  0.00  0.00    +0.182 C 
ATOM      2  S   UNL     1       8.603  -8.700  32.443  0.00  0.00    +0.010 S 
ATOM      3  O   UNL     1       8.708  -9.396  32.013  0.00  0.00    -0.169 OA
ATOM      4  O   UNL     1       8.497  -8.004  32.873  0.00  0.00    -0.169 OA
ENDBRANCH   5   2
ENDBRANCH   9   8
ENDBRANCH  10   9
ENDBRANCH  15  14
TORSDOF 7
ENDMDL
MODEL 9
REMARK VINA RESULT:      -4.9     16.343     19.129
REMARK  Name = 
REMARK  7 active torsions:
REMARK  status: ('A' for Active; 'I' for Inactive)
REMARK    1  A    between atoms: S_2  and  C_5
REMARK    2  A    between atoms: C_8  and  C_9
REMARK    3  A    between atoms: C_9  and  N_10
REMARK    4  A    between atoms: C_14  and  C_15
REMARK    5  A    between atoms: C_17  and  C_20
REMARK    6  A    between atoms: C_23  and  N_26
REMARK    7  A    between atoms: C_29  and  C_32
REMARK                            x       y       z     vdW  Elec       q    Type
REMARK                         _______ _______ _______ _____ _____    ______ ____
ROOT
ATOM     15  C   UNL     1      14.258  -6.964  31.495  0.00  0.00    +0.251 A 
ATOM     16  N   UNL     1      13.455  -7.075  31.337  0.00  0.00    -0.190 NA
ATOM     17  C   UNL     1      13.111  -7.426  31.998  0.00  0.00    +0.205 A 
ATOM     18  N   UNL     1      13.699  -7.533  32.566  0.00  0.00    -0.056 NA
ATOM     19  O   UNL     1      14.407  -7.248  32.255  0.00  0.00    -0.336 OA
ENDROOT
BRANCH  17  20
ATOM     20  C   UNL     1      12.316  -7.634  32.078  0.00  0.00    +0.058 A 
ATOM     21  C   UNL     1      11.727  -7.109  31.839  0.00  0.00    +0.008 A 
ATOM     22  C   UNL     1      10.932  -7.318  31.919  0.00  0.00    +0.034 A 
ATOM     23  C   UNL     1      10.728  -8.050  32.238  0.00  0.00    +0.132 A 
ATOM     24  N   UNL     1      11.317  -8.575  32.477  0.00  0.00    -0.229 NA
ATOM     25  C   UNL     1      12.112  -8.367  32.397  0.00  0.00    +0.103 A 
BRANCH  23  26
ATOM     26  N   UNL     1       9.933  -8.259  32.318  0.00  0.00    -0.293 N 
ATOM     27  C   UNL     1       9.639  -8.920  31.922  0.00  0.00    +0.093 C 
ATOM     28  C   UNL     1       8.844  -9.128  32.002  0.00  0.00    +0.031 C 
ATOM     29  C   UNL     1       8.345  -8.675  32.478  0.00  0.00    +0.083 C 
ATOM     30  C   UNL     1       8.639  -8.014  32.873  0.00  0.00    +0.031 C 
ATOM     31  C   UNL     1       9.434  -7.805  32.793  0.00  0.00    +0.093 C 
BRANCH  29  32
ATOM     32  C   UNL     1       7.550  -8.883  32.558  0.00  0.00    +0.260 C 
ATOM     33  N   UNL     1       7.346  -9.625  32.857  0.00  0.00    -0.088 NA
ATOM     34  O   UNL     1       6.960  -8.350  32.338  0.00  0.00    -0.272 OA
ENDBRANCH  29  32
ENDBRANCH  23  26
ENDBRANCH  17  20
BRANCH  15  14
ATOM     10  N   UNL     1      15.086  -5.853  31.009  0.00  0.00    -0.263 NA
ATOM     11  C   UNL     1      15.632  -5.755  30.398  0.00  0.00    +0.073 C 
ATOM     12  C   UNL     1      15.695  -6.473  29.996  0.00  0.00    +0.019 C 
ATOM     13  C   UNL     1      15.188  -7.013  30.358  0.00  0.00    +0.027 C 
ATOM     14  C   UNL     1      14.811  -6.630  30.984  0.00  0.00    +0.138 C 
BRANCH  10   9
ATOM      9  C   UNL     1      14.855  -5.274  31.549  0.00  0.00    +0.099 C 
BRANCH   9   8
ATOM      5  C   UNL     1      16.027  -3.094  31.606  0.00  0.00    +0.106 A 
ATOM      6  C   UNL     1      16.260  -3.701  32.114  0.00  0.00    +0.018 A 
ATOM      7  C   UNL     1      15.870  -4.427  32.096  0.00  0.00    -0.002 A 
ATOM      8  C   UNL     1      15.246  -4.547  31.568  0.00  0.00    -0.006 A 
ATOM     35  C   UNL     1      15.014  -3.940  31.060  0.00  0.00    -0.002 A 
ATOM     36  C   UNL     1      15.405  -3.214  31.079  0.00  0.00    +0.018 A 
BRANCH   5   2
ATOM      1  C   UNL     1      16.809  -1.642  31.643  0.00  0.00    +0.182 C 
ATOM      2  S   UNL     1      16.418  -2.368  31.625  0.00  0.00    +0.010 S 
ATOM      3  O   UNL     1      16.740  -2.522  30.881  0.00  0.00    -0.169 OA
ATOM      4  O   UNL     1      16.097  -2.214  32.368  0.00  0.00    -0.169 OA
ENDBRANCH   5   2
ENDBRANCH   9   8
ENDBRANCH  10   9
ENDBRANCH  15  14
TORSDOF 7
ENDMDL
