MODEL 1
REMARK VINA RESULT:     -10.7      0.000      0.000
REMARK  Name = 
REMARK  6 active torsions:
REMARK  status: ('A' for Active; 'I' for Inactive)
REMARK    1  A    between atoms: C_5  and  O_6
REMARK    2  A    between atoms: O_6  and  C_7
REMARK    3  A    between atoms: C_7  and  C_8
REMARK    4  A    between atoms: C_11  and  C_13
REMARK    5  A    between atoms: N_16  and  C_17
REMARK    6  A    between atoms: C_17  and  C_18
REMARK                            x       y       z     vdW  Elec       q    Type
REMARK                         _______ _______ _______ _____ _____    ______ ____
ROOT
ATOM      8  C   UNL     1      -4.648   0.890  24.966  0.00  0.00    +0.270 A 
ATOM      9  N   UNL     1      -5.368   1.292  24.956  0.00  0.00    -0.108 NA
ATOM     10  N   UNL     1      -5.209   2.102  24.954  0.00  0.00    -0.112 NA
ATOM     11  C   UNL     1      -4.390   2.201  24.963  0.00  0.00    +0.227 A 
ATOM     12  O   UNL     1      -4.043   1.452  24.971  0.00  0.00    -0.420 OA
ENDROOT
BRANCH  11  13
ATOM     13  C   UNL     1      -3.989   2.921  24.965  0.00  0.00    +0.096 C 
ATOM     14  C   UNL     1      -4.076   3.526  24.410  0.00  0.00    +0.028 C 
ATOM     15  C   UNL     1      -3.572   4.142  24.623  0.00  0.00    +0.073 C 
ATOM     16  N   UNL     1      -3.173   3.919  25.309  0.00  0.00    -0.266 NA
ATOM     23  C   UNL     1      -3.431   3.164  25.520  0.00  0.00    +0.082 C 
BRANCH  16  17
ATOM     17  C   UNL     1      -2.613   4.371  25.714  0.00  0.00    +0.139 C 
BRANCH  17  18
ATOM     18  C   UNL     1      -1.844   4.434  25.421  0.00  0.00    +0.155 A 
ATOM     19  N   UNL     1      -1.519   5.097  25.053  0.00  0.00    -0.226 NA
ATOM     20  C   UNL     1      -0.739   4.918  24.849  0.00  0.00    +0.121 A 
ATOM     21  C   UNL     1      -0.583   4.145  25.092  0.00  0.00    +0.121 A 
ATOM     22  N   UNL     1      -1.266   3.847  25.446  0.00  0.00    -0.226 NA
ENDBRANCH  17  18
ENDBRANCH  16  17
ENDBRANCH  11  13
BRANCH   8   7
ATOM      7  C   UNL     1      -4.549   0.071  24.972  0.00  0.00    +0.291 C 
BRANCH   7   6
ATOM      6  O   UNL     1      -3.997  -0.280  24.470  0.00  0.00    -0.465 OA
BRANCH   6   5
ATOM      1  F   UNL     1      -3.638  -3.561  24.453  0.00  0.00    -0.204 F 
ATOM      2  C   UNL     1      -3.728  -2.740  24.457  0.00  0.00    +0.140 A 
ATOM      3  C   UNL     1      -3.398  -2.293  25.067  0.00  0.00    +0.033 A 
ATOM      4  C   UNL     1      -3.487  -1.473  25.071  0.00  0.00    +0.039 A 
ATOM      5  C   UNL     1      -3.907  -1.100  24.466  0.00  0.00    +0.139 A 
ATOM     24  C   UNL     1      -4.237  -1.549  23.857  0.00  0.00    +0.039 A 
ATOM     25  C   UNL     1      -4.147  -2.369  23.853  0.00  0.00    +0.033 A 
ENDBRANCH   6   5
ENDBRANCH   7   6
ENDBRANCH   8   7
TORSDOF 6
ENDMDL
MODEL 2
REMARK VINA RESULT:     -10.2      2.569      5.508
REMARK  Name = 
REMARK  6 active torsions:
REMARK  status: ('A' for Active; 'I' for Inactive)
REMARK    1  A    between atoms: C_5  and  O_6
REMARK    2  A    between atoms: O_6  and  C_7
REMARK    3  A    between atoms: C_7  and  C_8
REMARK    4  A    between atoms: C_11  and  C_13
REMARK    5  A    between atoms: N_16  and  C_17
REMARK    6  A    between atoms: C_17  and  C_18
REMARK                            x       y       z     vdW  Elec       q    Type
REMARK                         _______ _______ _______ _____ _____    ______ ____
ROOT
ATOM      8  C   UNL     1      -3.748   2.328  24.899  0.00  0.00    +0.270 A 
ATOM      9  N   UNL     1      -4.554   2.283  25.065  0.00  0.00    -0.108 NA
ATOM     10  N   UNL     1      -4.778   1.489  25.031  0.00  0.00    -0.112 NA
ATOM     11  C   UNL     1      -4.109   1.044  24.843  0.00  0.00    +0.227 A 
ATOM     12  O   UNL     1      -3.472   1.562  24.761  0.00  0.00    -0.420 OA
ENDROOT
BRANCH  11  13
ATOM     13  C   UNL     1      -4.082   0.224  24.753  0.00  0.00    +0.096 C 
ATOM     14  C   UNL     1      -4.500  -0.216  24.194  0.00  0.00    +0.028 C 
ATOM     15  C   UNL     1      -4.308  -1.011  24.301  0.00  0.00    +0.073 C 
ATOM     16  N   UNL     1      -3.773  -1.062  24.925  0.00  0.00    -0.266 NA
ATOM     23  C   UNL     1      -3.633  -0.298  25.205  0.00  0.00    +0.082 C 
BRANCH  16  17
ATOM     17  C   UNL     1      -3.435  -1.756  25.220  0.00  0.00    +0.139 C 
BRANCH  17  18
ATOM     18  C   UNL     1      -2.697  -2.003  24.947  0.00  0.00    +0.155 A 
ATOM     19  N   UNL     1      -1.965  -1.747  25.228  0.00  0.00    -0.226 NA
ATOM     20  C   UNL     1      -1.377  -2.136  24.800  0.00  0.00    +0.121 A 
ATOM     21  C   UNL     1      -1.745  -2.633  24.255  0.00  0.00    +0.121 A 
ATOM     22  N   UNL     1      -2.562  -2.551  24.346  0.00  0.00    -0.226 NA
ENDBRANCH  17  18
ENDBRANCH  16  17
ENDBRANCH  11  13
BRANCH   8   7
ATOM      7  C   UNL     1      -3.295   3.018  24.874  0.00  0.00    +0.291 C 
BRANCH   7   6
ATOM      6  O   UNL     1      -2.676   3.123  25.407  0.00  0.00    -0.465 OA
BRANCH   6   5
ATOM      1  F   UNL     1      -0.460   5.517  24.908  0.00  0.00    -0.204 F 
ATOM      2  C   UNL     1      -1.014   4.919  25.033  0.00  0.00    +0.140 A 
ATOM      3  C   UNL     1      -1.778   5.110  25.278  0.00  0.00    +0.033 A 
ATOM      4  C   UNL     1      -2.332   4.511  25.403  0.00  0.00    +0.039 A 
ATOM      5  C   UNL     1      -2.122   3.722  25.282  0.00  0.00    +0.139 A 
ATOM     24  C   UNL     1      -1.357   3.533  25.037  0.00  0.00    +0.039 A 
ATOM     25  C   UNL     1      -0.804   4.131  24.912  0.00  0.00    +0.033 A 
ENDBRANCH   6   5
ENDBRANCH   7   6
ENDBRANCH   8   7
TORSDOF 6
ENDMDL
MODEL 3
REMARK VINA RESULT:      -9.6      3.066      6.214
REMARK  Name = 
REMARK  6 active torsions:
REMARK  status: ('A' for Active; 'I' for Inactive)
REMARK    1  A    between atoms: C_5  and  O_6
REMARK    2  A    between atoms: O_6  and  C_7
REMARK    3  A    between atoms: C_7  and  C_8
REMARK    4  A    between atoms: C_11  and  C_13
REMARK    5  A    between atoms: N_16  and  C_17
REMARK    6  A    between atoms: C_17  and  C_18
REMARK                            x       y       z     vdW  Elec       q    Type
REMARK                         _______ _______ _______ _____ _____    ______ ____
ROOT
ATOM      8  C   UNL     1      -0.575   1.562  24.389  0.00  0.00    +0.270 A 
ATOM      9  N   UNL     1       0.074   1.156  24.081  0.00  0.00    -0.108 NA
ATOM     10  N   UNL     1      -0.068   0.347  24.163  0.00  0.00    -0.112 NA
ATOM     11  C   UNL     1      -0.805   0.253  24.520  0.00  0.00    +0.227 A 
ATOM     12  O   UNL     1      -1.119   1.003  24.660  0.00  0.00    -0.420 OA
ENDROOT
BRANCH  11  13
ATOM     13  C   UNL     1      -1.166  -0.465  24.706  0.00  0.00    +0.096 C 
ATOM     14  C   UNL     1      -0.806  -1.208  24.687  0.00  0.00    +0.028 C 
ATOM     15  C   UNL     1      -1.366  -1.769  24.912  0.00  0.00    +0.073 C 
ATOM     16  N   UNL     1      -2.073  -1.374  25.070  0.00  0.00    -0.266 NA
ATOM     23  C   UNL     1      -1.948  -0.568  24.943  0.00  0.00    +0.082 C 
BRANCH  16  17
ATOM     17  C   UNL     1      -2.780  -1.723  25.313  0.00  0.00    +0.139 C 
BRANCH  17  18
ATOM     18  C   UNL     1      -3.349  -1.934  24.755  0.00  0.00    +0.155 A 
ATOM     19  N   UNL     1      -3.930  -1.437  24.443  0.00  0.00    -0.226 NA
ATOM     20  C   UNL     1      -4.378  -1.875  23.905  0.00  0.00    +0.121 A 
ATOM     21  C   UNL     1      -4.074  -2.642  23.885  0.00  0.00    +0.121 A 
ATOM     22  N   UNL     1      -3.438  -2.678  24.410  0.00  0.00    -0.226 NA
ENDBRANCH  17  18
ENDBRANCH  16  17
ENDBRANCH  11  13
BRANCH   8   7
ATOM      7  C   UNL     1      -0.665   2.381  24.419  0.00  0.00    +0.291 C 
BRANCH   7   6
ATOM      6  O   UNL     1      -0.836   2.750  25.136  0.00  0.00    -0.465 OA
BRANCH   6   5
ATOM      1  F   UNL     1      -1.669   5.943  25.190  0.00  0.00    -0.204 F 
ATOM      2  C   UNL     1      -1.460   5.145  25.177  0.00  0.00    +0.140 A 
ATOM      3  C   UNL     1      -1.974   4.580  25.490  0.00  0.00    +0.033 A 
ATOM      4  C   UNL     1      -1.766   3.782  25.476  0.00  0.00    +0.039 A 
ATOM      5  C   UNL     1      -1.044   3.548  25.150  0.00  0.00    +0.139 A 
ATOM     24  C   UNL     1      -0.532   4.114  24.837  0.00  0.00    +0.039 A 
ATOM     25  C   UNL     1      -0.740   4.912  24.850  0.00  0.00    +0.033 A 
ENDBRANCH   6   5
ENDBRANCH   7   6
ENDBRANCH   8   7
TORSDOF 6
ENDMDL
MODEL 4
REMARK VINA RESULT:      -9.6      1.855      2.770
REMARK  Name = 
REMARK  6 active torsions:
REMARK  status: ('A' for Active; 'I' for Inactive)
REMARK    1  A    between atoms: C_5  and  O_6
REMARK    2  A    between atoms: O_6  and  C_7
REMARK    3  A    between atoms: C_7  and  C_8
REMARK    4  A    between atoms: C_11  and  C_13
REMARK    5  A    between atoms: N_16  and  C_17
REMARK    6  A    between atoms: C_17  and  C_18
REMARK                            x       y       z     vdW  Elec       q    Type
REMARK                         _______ _______ _______ _____ _____    ______ ____
ROOT
ATOM      8  C   UNL     1      -1.228  -0.271  24.763  0.00  0.00    +0.270 A 
ATOM      9  N   UNL     1      -0.426  -0.221  24.578  0.00  0.00    -0.108 NA
ATOM     10  N   UNL     1      -0.166   0.538  24.773  0.00  0.00    -0.112 NA
ATOM     11  C   UNL     1      -0.808   0.957  25.078  0.00  0.00    +0.227 A 
ATOM     12  O   UNL     1      -1.465   0.456  25.072  0.00  0.00    -0.420 OA
ENDROOT
BRANCH  11  13
ATOM     13  C   UNL     1      -0.796   1.737  25.343  0.00  0.00    +0.096 C 
ATOM     14  C   UNL     1      -0.329   2.035  25.955  0.00  0.00    +0.028 C 
ATOM     15  C   UNL     1      -0.493   2.839  26.034  0.00  0.00    +0.073 C 
ATOM     16  N   UNL     1      -1.061   3.039  25.470  0.00  0.00    -0.266 NA
ATOM     23  C   UNL     1      -1.248   2.358  25.044  0.00  0.00    +0.082 C 
BRANCH  16  17
ATOM     17  C   UNL     1      -1.385   3.789  25.353  0.00  0.00    +0.139 C 
BRANCH  17  18
ATOM     18  C   UNL     1      -2.192   3.912  25.472  0.00  0.00    +0.155 A 
ATOM     19  N   UNL     1      -2.773   3.918  24.886  0.00  0.00    -0.226 NA
ATOM     20  C   UNL     1      -3.500   4.061  25.249  0.00  0.00    +0.121 A 
ATOM     21  C   UNL     1      -3.369   4.144  26.059  0.00  0.00    +0.121 A 
ATOM     22  N   UNL     1      -2.560   4.052  26.196  0.00  0.00    -0.226 NA
ENDBRANCH  17  18
ENDBRANCH  16  17
ENDBRANCH  11  13
BRANCH   8   7
ATOM      7  C   UNL     1      -1.709  -0.933  24.657  0.00  0.00    +0.291 C 
BRANCH   7   6
ATOM      6  O   UNL     1      -2.485  -0.926  24.936  0.00  0.00    -0.465 OA
BRANCH   6   5
ATOM      1  F   UNL     1      -4.694  -3.052  23.713  0.00  0.00    -0.204 F 
ATOM      2  C   UNL     1      -4.142  -2.520  24.019  0.00  0.00    +0.140 A 
ATOM      3  C   UNL     1      -4.229  -1.711  23.881  0.00  0.00    +0.033 A 
ATOM      4  C   UNL     1      -3.676  -1.180  24.187  0.00  0.00    +0.039 A 
ATOM      5  C   UNL     1      -3.038  -1.458  24.630  0.00  0.00    +0.139 A 
ATOM     24  C   UNL     1      -2.952  -2.266  24.767  0.00  0.00    +0.039 A 
ATOM     25  C   UNL     1      -3.504  -2.798  24.461  0.00  0.00    +0.033 A 
ENDBRANCH   6   5
ENDBRANCH   7   6
ENDBRANCH   8   7
TORSDOF 6
ENDMDL
MODEL 5
REMARK VINA RESULT:      -6.8     16.384     18.883
REMARK  Name = 
REMARK  6 active torsions:
REMARK  status: ('A' for Active; 'I' for Inactive)
REMARK    1  A    between atoms: C_5  and  O_6
REMARK    2  A    between atoms: O_6  and  C_7
REMARK    3  A    between atoms: C_7  and  C_8
REMARK    4  A    between atoms: C_11  and  C_13
REMARK    5  A    between atoms: N_16  and  C_17
REMARK    6  A    between atoms: C_17  and  C_18
REMARK                            x       y       z     vdW  Elec       q    Type
REMARK                         _______ _______ _______ _____ _____    ______ ____
ROOT
ATOM      8  C   UNL     1      12.129   7.958  19.315  0.00  0.00    +0.270 A 
ATOM      9  N   UNL     1      11.980   7.581  18.596  0.00  0.00    -0.108 NA
ATOM     10  N   UNL     1      12.695   7.283  18.311  0.00  0.00    -0.112 NA
ATOM     11  C   UNL     1      13.286   7.476  18.854  0.00  0.00    +0.227 A 
ATOM     12  O   UNL     1      12.936   7.893  19.474  0.00  0.00    -0.420 OA
ENDROOT
BRANCH  11  13
ATOM     13  C   UNL     1      14.086   7.285  18.788  0.00  0.00    +0.096 C 
ATOM     14  C   UNL     1      14.599   7.544  18.195  0.00  0.00    +0.028 C 
ATOM     15  C   UNL     1      15.343   7.222  18.343  0.00  0.00    +0.073 C 
ATOM     16  N   UNL     1      15.290   6.764  19.027  0.00  0.00    -0.266 NA
ATOM     23  C   UNL     1      14.513   6.803  19.302  0.00  0.00    +0.082 C 
BRANCH  16  17
ATOM     17  C   UNL     1      15.907   6.340  19.376  0.00  0.00    +0.139 C 
BRANCH  17  18
ATOM     18  C   UNL     1      16.334   6.671  20.000  0.00  0.00    +0.155 A 
ATOM     19  N   UNL     1      17.030   7.108  19.932  0.00  0.00    -0.226 NA
ATOM     20  C   UNL     1      17.266   7.331  20.691  0.00  0.00    +0.121 A 
ATOM     21  C   UNL     1      16.715   7.031  21.227  0.00  0.00    +0.121 A 
ATOM     22  N   UNL     1      16.139   6.624  20.799  0.00  0.00    -0.226 NA
ENDBRANCH  17  18
ENDBRANCH  16  17
ENDBRANCH  11  13
BRANCH   8   7
ATOM      7  C   UNL     1      11.569   8.333  19.790  0.00  0.00    +0.291 C 
BRANCH   7   6
ATOM      6  O   UNL     1      11.034   7.885  20.228  0.00  0.00    -0.465 OA
BRANCH   6   5
ATOM      1  F   UNL     1      10.357   8.711  23.351  0.00  0.00    -0.204 F 
ATOM      2  C   UNL     1      10.526   8.505  22.570  0.00  0.00    +0.140 A 
ATOM      3  C   UNL     1      10.627   9.094  22.001  0.00  0.00    +0.033 A 
ATOM      4  C   UNL     1      10.796   8.887  21.220  0.00  0.00    +0.039 A 
ATOM      5  C   UNL     1      10.864   8.092  21.009  0.00  0.00    +0.139 A 
ATOM     24  C   UNL     1      10.764   7.504  21.579  0.00  0.00    +0.039 A 
ATOM     25  C   UNL     1      10.595   7.711  22.360  0.00  0.00    +0.033 A 
ENDBRANCH   6   5
ENDBRANCH   7   6
ENDBRANCH   8   7
TORSDOF 6
ENDMDL
MODEL 6
REMARK VINA RESULT:      -6.7     14.725     16.541
REMARK  Name = 
REMARK  6 active torsions:
REMARK  status: ('A' for Active; 'I' for Inactive)
REMARK    1  A    between atoms: C_5  and  O_6
REMARK    2  A    between atoms: O_6  and  C_7
REMARK    3  A    between atoms: C_7  and  C_8
REMARK    4  A    between atoms: C_11  and  C_13
REMARK    5  A    between atoms: N_16  and  C_17
REMARK    6  A    between atoms: C_17  and  C_18
REMARK                            x       y       z     vdW  Elec       q    Type
REMARK                         _______ _______ _______ _____ _____    ______ ____
ROOT
ATOM      8  C   UNL     1      -2.927 -10.655  15.145  0.00  0.00    +0.270 A 
ATOM      9  N   UNL     1      -2.115 -10.536  15.228  0.00  0.00    -0.108 NA
ATOM     10  N   UNL     1      -1.793 -10.435  14.475  0.00  0.00    -0.112 NA
ATOM     11  C   UNL     1      -2.406 -10.491  13.926  0.00  0.00    +0.227 A 
ATOM     12  O   UNL     1      -3.107 -10.627  14.340  0.00  0.00    -0.420 OA
ENDROOT
BRANCH  11  13
ATOM     13  C   UNL     1      -2.333 -10.424  13.107  0.00  0.00    +0.096 C 
ATOM     14  C   UNL     1      -1.673 -10.138  12.702  0.00  0.00    +0.028 C 
ATOM     15  C   UNL     1      -1.838 -10.168  11.894  0.00  0.00    +0.073 C 
ATOM     16  N   UNL     1      -2.598 -10.473  11.801  0.00  0.00    -0.266 NA
ATOM     23  C   UNL     1      -2.904 -10.631  12.551  0.00  0.00    +0.082 C 
BRANCH  16  17
ATOM     17  C   UNL     1      -2.985 -10.598  11.083  0.00  0.00    +0.139 C 
BRANCH  17  18
ATOM     18  C   UNL     1      -3.365  -9.971  10.704  0.00  0.00    +0.155 A 
ATOM     19  N   UNL     1      -4.125  -9.695  10.867  0.00  0.00    -0.226 NA
ATOM     20  C   UNL     1      -4.281  -9.063  10.359  0.00  0.00    +0.121 A 
ATOM     21  C   UNL     1      -3.617  -8.948   9.883  0.00  0.00    +0.121 A 
ATOM     22  N   UNL     1      -3.051  -9.510  10.097  0.00  0.00    -0.226 NA
ENDBRANCH  17  18
ENDBRANCH  16  17
ENDBRANCH  11  13
BRANCH   8   7
ATOM      7  C   UNL     1      -3.464 -10.779  15.759  0.00  0.00    +0.291 C 
BRANCH   7   6
ATOM      6  O   UNL     1      -3.912 -10.150  16.048  0.00  0.00    -0.465 OA
BRANCH   6   5
ATOM      1  F   UNL     1      -6.114 -10.663  18.451  0.00  0.00    -0.204 F 
ATOM      2  C   UNL     1      -5.564 -10.535  17.850  0.00  0.00    +0.140 A 
ATOM      3  C   UNL     1      -5.800 -10.178  17.144  0.00  0.00    +0.033 A 
ATOM      4  C   UNL     1      -5.249 -10.050  16.544  0.00  0.00    +0.039 A 
ATOM      5  C   UNL     1      -4.462 -10.279  16.649  0.00  0.00    +0.139 A 
ATOM     24  C   UNL     1      -4.228 -10.635  17.355  0.00  0.00    +0.039 A 
ATOM     25  C   UNL     1      -4.779 -10.763  17.956  0.00  0.00    +0.033 A 
ENDBRANCH   6   5
ENDBRANCH   7   6
ENDBRANCH   8   7
TORSDOF 6
ENDMDL
