MODEL 1
REMARK VINA RESULT:     -11.6      0.000      0.000
REMARK  Name = 
REMARK  5 active torsions:
REMARK  status: ('A' for Active; 'I' for Inactive)
REMARK    1  A    between atoms: C_2  and  S_3
REMARK    2  A    between atoms: S_3  and  C_6
REMARK    3  A    between atoms: C_11  and  C_13
REMARK    4  A    between atoms: N_16  and  C_17
REMARK    5  A    between atoms: C_17  and  C_18
REMARK                            x       y       z     vdW  Elec       q    Type
REMARK                         _______ _______ _______ _____ _____    ______ ____
ROOT
ATOM      6  C   UNL     1      -2.450  -1.921  24.710  0.00  0.00    +0.107 A 
ATOM      7  C   UNL     1      -2.521  -1.102  24.642  0.00  0.00    +0.041 A 
ATOM      8  C   UNL     1      -1.862  -0.619  24.756  0.00  0.00    +0.120 A 
ATOM      9  C   UNL     1      -1.131  -0.956  24.938  0.00  0.00    +0.164 A 
ATOM     10  O   UNL     1      -0.582  -0.346  25.020  0.00  0.00    -0.438 OA
ATOM     11  C   UNL     1      -0.973   0.368  24.887  0.00  0.00    +0.207 A 
ATOM     12  N   UNL     1      -1.764   0.198  24.724  0.00  0.00    -0.212 NA
ATOM     26  C   UNL     1      -1.059  -1.776  25.007  0.00  0.00    +0.040 A 
ATOM     27  C   UNL     1      -1.719  -2.257  24.893  0.00  0.00    +0.022 A 
ENDROOT
BRANCH  11  13
ATOM     13  C   UNL     1      -0.634   1.119  24.914  0.00  0.00    +0.094 C 
ATOM     14  C   UNL     1      -0.089   1.424  24.375  0.00  0.00    +0.028 C 
ATOM     15  C   UNL     1       0.103   2.191  24.611  0.00  0.00    +0.073 C 
ATOM     16  N   UNL     1      -0.324   2.360  25.297  0.00  0.00    -0.268 NA
ATOM     25  C   UNL     1      -0.779   1.698  25.483  0.00  0.00    +0.082 C 
BRANCH  16  17
ATOM     17  C   UNL     1      -0.300   3.067  25.721  0.00  0.00    +0.099 C 
BRANCH  17  18
ATOM     18  C   UNL     1      -0.845   3.665  25.558  0.00  0.00    -0.005 A 
ATOM     19  C   UNL     1      -0.645   4.277  25.042  0.00  0.00    -0.003 A 
ATOM     20  C   UNL     1      -1.190   4.874  24.880  0.00  0.00    +0.001 A 
ATOM     21  C   UNL     1      -1.935   4.861  25.233  0.00  0.00    +0.011 A 
ATOM     22  C   UNL     1      -2.136   4.249  25.750  0.00  0.00    +0.057 A 
ATOM     23 CL   UNL     1      -2.880   4.234  26.103  0.00  0.00    -0.082 Cl
ATOM     24  C   UNL     1      -1.591   3.651  25.912  0.00  0.00    +0.008 A 
ENDBRANCH  17  18
ENDBRANCH  16  17
ENDBRANCH  11  13
BRANCH   6   3
ATOM      3  S   UNL     1      -3.109  -2.403  24.596  0.00  0.00    +0.009 S 
ATOM      4  O   UNL     1      -3.420  -2.150  25.317  0.00  0.00    -0.169 OA
ATOM      5  O   UNL     1      -2.799  -2.657  23.875  0.00  0.00    -0.169 OA
BRANCH   3   2
ATOM      1  C   UNL     1      -4.295  -2.725  23.867  0.00  0.00    +0.028 C 
ATOM      2  C   UNL     1      -3.768  -2.886  24.482  0.00  0.00    +0.156 C 
ENDBRANCH   3   2
ENDBRANCH   6   3
TORSDOF 5
ENDMDL
MODEL 2
REMARK VINA RESULT:     -11.3      2.344      5.496
REMARK  Name = 
REMARK  5 active torsions:
REMARK  status: ('A' for Active; 'I' for Inactive)
REMARK    1  A    between atoms: C_2  and  S_3
REMARK    2  A    between atoms: S_3  and  C_6
REMARK    3  A    between atoms: C_11  and  C_13
REMARK    4  A    between atoms: N_16  and  C_17
REMARK    5  A    between atoms: C_17  and  C_18
REMARK                            x       y       z     vdW  Elec       q    Type
REMARK                         _______ _______ _______ _____ _____    ______ ____
ROOT
ATOM      6  C   UNL     1      -0.813   3.471  25.277  0.00  0.00    +0.107 A 
ATOM      7  C   UNL     1      -1.304   2.868  25.004  0.00  0.00    +0.041 A 
ATOM      8  C   UNL     1      -1.150   2.084  25.210  0.00  0.00    +0.120 A 
ATOM      9  C   UNL     1      -0.503   1.904  25.689  0.00  0.00    +0.164 A 
ATOM     10  O   UNL     1      -0.487   1.087  25.800  0.00  0.00    -0.438 OA
ATOM     11  C   UNL     1      -1.125   0.762  25.390  0.00  0.00    +0.207 A 
ATOM     12  N   UNL     1      -1.534   1.378  25.026  0.00  0.00    -0.212 NA
ATOM     26  C   UNL     1      -0.010   2.507  25.962  0.00  0.00    +0.040 A 
ATOM     27  C   UNL     1      -0.166   3.291  25.756  0.00  0.00    +0.022 A 
ENDROOT
BRANCH  11  13
ATOM     13  C   UNL     1      -1.319  -0.039  25.352  0.00  0.00    +0.094 C 
ATOM     14  C   UNL     1      -0.830  -0.644  25.078  0.00  0.00    +0.028 C 
ATOM     15  C   UNL     1      -1.245  -1.355  25.137  0.00  0.00    +0.073 C 
ATOM     16  N   UNL     1      -1.991  -1.189  25.447  0.00  0.00    -0.268 NA
ATOM     25  C   UNL     1      -2.037  -0.376  25.580  0.00  0.00    +0.082 C 
BRANCH  16  17
ATOM     17  C   UNL     1      -2.587  -1.739  25.599  0.00  0.00    +0.099 C 
BRANCH  17  18
ATOM     18  C   UNL     1      -3.123  -1.941  25.005  0.00  0.00    -0.005 A 
ATOM     19  C   UNL     1      -3.071  -2.678  24.635  0.00  0.00    -0.003 A 
ATOM     20  C   UNL     1      -3.607  -2.879  24.042  0.00  0.00    +0.001 A 
ATOM     21  C   UNL     1      -4.195  -2.346  23.817  0.00  0.00    +0.011 A 
ATOM     22  C   UNL     1      -4.247  -1.609  24.187  0.00  0.00    +0.057 A 
ATOM     23 CL   UNL     1      -4.834  -1.076  23.963  0.00  0.00    -0.082 Cl
ATOM     24  C   UNL     1      -3.710  -1.407  24.781  0.00  0.00    +0.008 A 
ENDBRANCH  17  18
ENDBRANCH  16  17
ENDBRANCH  11  13
BRANCH   6   3
ATOM      3  S   UNL     1      -0.968   4.254  25.071  0.00  0.00    +0.009 S 
ATOM      4  O   UNL     1      -1.577   4.280  25.626  0.00  0.00    -0.169 OA
ATOM      5  O   UNL     1      -0.358   4.229  24.516  0.00  0.00    -0.169 OA
BRANCH   3   2
ATOM      1  C   UNL     1      -1.775   5.427  25.186  0.00  0.00    +0.028 C 
ATOM      2  C   UNL     1      -1.123   5.038  24.865  0.00  0.00    +0.156 C 
ENDBRANCH   3   2
ENDBRANCH   6   3
TORSDOF 5
ENDMDL
MODEL 3
REMARK VINA RESULT:     -11.2      2.933      6.046
REMARK  Name = 
REMARK  5 active torsions:
REMARK  status: ('A' for Active; 'I' for Inactive)
REMARK    1  A    between atoms: C_2  and  S_3
REMARK    2  A    between atoms: S_3  and  C_6
REMARK    3  A    between atoms: C_11  and  C_13
REMARK    4  A    between atoms: N_16  and  C_17
REMARK    5  A    between atoms: C_17  and  C_18
REMARK                            x       y       z     vdW  Elec       q    Type
REMARK                         _______ _______ _______ _____ _____    ______ ____
ROOT
ATOM      6  C   UNL     1      -2.513   3.909  24.967  0.00  0.00    +0.107 A 
ATOM      7  C   UNL     1      -2.375   3.101  25.054  0.00  0.00    +0.041 A 
ATOM      8  C   UNL     1      -2.967   2.558  24.864  0.00  0.00    +0.120 A 
ATOM      9  C   UNL     1      -3.697   2.824  24.588  0.00  0.00    +0.164 A 
ATOM     10  O   UNL     1      -4.172   2.165  24.446  0.00  0.00    -0.438 OA
ATOM     11  C   UNL     1      -3.736   1.491  24.635  0.00  0.00    +0.207 A 
ATOM     12  N   UNL     1      -2.992   1.735  24.893  0.00  0.00    -0.212 NA
ATOM     26  C   UNL     1      -3.836   3.634  24.501  0.00  0.00    +0.040 A 
ATOM     27  C   UNL     1      -3.243   4.175  24.690  0.00  0.00    +0.022 A 
ENDROOT
BRANCH  11  13
ATOM     13  C   UNL     1      -3.999   0.712  24.576  0.00  0.00    +0.094 C 
ATOM     14  C   UNL     1      -4.607   0.370  25.015  0.00  0.00    +0.028 C 
ATOM     15  C   UNL     1      -4.684  -0.417  24.779  0.00  0.00    +0.073 C 
ATOM     16  N   UNL     1      -4.122  -0.561  24.193  0.00  0.00    -0.268 NA
ATOM     25  C   UNL     1      -3.698   0.136  24.068  0.00  0.00    +0.082 C 
BRANCH  16  17
ATOM     17  C   UNL     1      -4.003  -1.277  23.800  0.00  0.00    +0.099 C 
BRANCH  17  18
ATOM     18  C   UNL     1      -3.539  -1.866  24.146  0.00  0.00    -0.005 A 
ATOM     19  C   UNL     1      -3.898  -2.512  24.514  0.00  0.00    -0.003 A 
ATOM     20  C   UNL     1      -3.434  -3.099  24.858  0.00  0.00    +0.001 A 
ATOM     21  C   UNL     1      -2.611  -3.043  24.836  0.00  0.00    +0.011 A 
ATOM     22  C   UNL     1      -2.252  -2.397  24.468  0.00  0.00    +0.057 A 
ATOM     23 CL   UNL     1      -1.430  -2.339  24.446  0.00  0.00    -0.082 Cl
ATOM     24  C   UNL     1      -2.716  -1.808  24.123  0.00  0.00    +0.008 A 
ENDBRANCH  17  18
ENDBRANCH  16  17
ENDBRANCH  11  13
BRANCH   6   3
ATOM      3  S   UNL     1      -1.921   4.451  25.156  0.00  0.00    +0.009 S 
ATOM      4  O   UNL     1      -1.459   4.163  24.536  0.00  0.00    -0.169 OA
ATOM      5  O   UNL     1      -2.383   4.739  25.776  0.00  0.00    -0.169 OA
BRANCH   3   2
ATOM      1  C   UNL     1      -0.746   5.178  24.791  0.00  0.00    +0.028 C 
ATOM      2  C   UNL     1      -1.329   4.994  25.345  0.00  0.00    +0.156 C 
ENDBRANCH   3   2
ENDBRANCH   6   3
TORSDOF 5
ENDMDL
MODEL 4
REMARK VINA RESULT:     -11.2      1.763      2.498
REMARK  Name = 
REMARK  5 active torsions:
REMARK  status: ('A' for Active; 'I' for Inactive)
REMARK    1  A    between atoms: C_2  and  S_3
REMARK    2  A    between atoms: S_3  and  C_6
REMARK    3  A    between atoms: C_11  and  C_13
REMARK    4  A    between atoms: N_16  and  C_17
REMARK    5  A    between atoms: C_17  and  C_18
REMARK                            x       y       z     vdW  Elec       q    Type
REMARK                         _______ _______ _______ _____ _____    ______ ____
ROOT
ATOM      6  C   UNL     1      -3.582  -1.307  24.567  0.00  0.00    +0.107 A 
ATOM      7  C   UNL     1      -3.150  -0.654  24.824  0.00  0.00    +0.041 A 
ATOM      8  C   UNL     1      -3.473   0.104  24.771  0.00  0.00    +0.120 A 
ATOM      9  C   UNL     1      -4.230   0.207  24.460  0.00  0.00    +0.164 A 
ATOM     10  O   UNL     1      -4.404   1.013  24.475  0.00  0.00    -0.438 OA
ATOM     11  C   UNL     1      -3.754   1.408  24.796  0.00  0.00    +0.207 A 
ATOM     12  N   UNL     1      -3.179   0.845  24.978  0.00  0.00    -0.212 NA
ATOM     26  C   UNL     1      -4.664  -0.446  24.202  0.00  0.00    +0.040 A 
ATOM     27  C   UNL     1      -4.340  -1.203  24.256  0.00  0.00    +0.022 A 
ENDROOT
BRANCH  11  13
ATOM     13  C   UNL     1      -3.691   2.222  24.914  0.00  0.00    +0.094 C 
ATOM     14  C   UNL     1      -4.131   2.803  24.529  0.00  0.00    +0.028 C 
ATOM     15  C   UNL     1      -3.889   3.539  24.814  0.00  0.00    +0.073 C 
ATOM     16  N   UNL     1      -3.299   3.412  25.376  0.00  0.00    -0.268 NA
ATOM     25  C   UNL     1      -3.176   2.598  25.437  0.00  0.00    +0.082 C 
BRANCH  16  17
ATOM     17  C   UNL     1      -2.900   3.995  25.801  0.00  0.00    +0.099 C 
BRANCH  17  18
ATOM     18  C   UNL     1      -2.185   4.297  25.519  0.00  0.00    -0.005 A 
ATOM     19  C   UNL     1      -2.150   5.067  25.224  0.00  0.00    -0.003 A 
ATOM     20  C   UNL     1      -1.435   5.367  24.943  0.00  0.00    +0.001 A 
ATOM     21  C   UNL     1      -0.756   4.900  24.956  0.00  0.00    +0.011 A 
ATOM     22  C   UNL     1      -0.792   4.129  25.251  0.00  0.00    +0.057 A 
ATOM     23 CL   UNL     1      -0.114   3.661  25.264  0.00  0.00    -0.082 Cl
ATOM     24  C   UNL     1      -1.507   3.828  25.533  0.00  0.00    +0.008 A 
ENDBRANCH  17  18
ENDBRANCH  16  17
ENDBRANCH  11  13
BRANCH   6   3
ATOM      3  S   UNL     1      -3.259  -2.063  24.620  0.00  0.00    +0.009 S 
ATOM      4  O   UNL     1      -2.872  -1.949  23.901  0.00  0.00    -0.169 OA
ATOM      5  O   UNL     1      -3.646  -2.178  25.340  0.00  0.00    -0.169 OA
BRANCH   3   2
ATOM      1  C   UNL     1      -2.145  -2.946  24.475  0.00  0.00    +0.028 C 
ATOM      2  C   UNL     1      -2.936  -2.821  24.674  0.00  0.00    +0.156 C 
ENDBRANCH   3   2
ENDBRANCH   6   3
TORSDOF 5
ENDMDL
