MODEL 1
REMARK VINA RESULT:     -12.1      0.000      0.000
REMARK  Name = 
REMARK  5 active torsions:
REMARK  status: ('A' for Active; 'I' for Inactive)
REMARK    1  A    between atoms: C_2  and  N_3
REMARK    2  A    between atoms: C_2  and  C_26
REMARK    3  A    between atoms: C_4  and  C_6
REMARK    4  A    between atoms: C_13  and  N_15
REMARK    5  A    between atoms: N_18  and  C_19
REMARK                            x       y       z     vdW  Elec       q    Type
REMARK                         _______ _______ _______ _____ _____    ______ ____
ROOT
ATOM      6  C   UNL     1      -3.596   2.983  24.745  0.00  0.00    +0.200 C 
ATOM      7  O   UNL     1      -3.036   2.803  24.165  0.00  0.00    -0.216 OA
ATOM      8  C   UNL     1      -3.987   3.396  25.343  0.00  0.00    +0.075 C 
ATOM      9  C   UNL     1      -4.667   3.078  25.685  0.00  0.00    +0.187 C 
ATOM     10  O   UNL     1      -5.058   3.491  26.283  0.00  0.00    -0.220 OA
ATOM     11  C   UNL     1      -4.955   2.348  25.430  0.00  0.00    +0.202 C 
ATOM     12  O   UNL     1      -5.634   2.031  25.773  0.00  0.00    -0.219 OA
ATOM     13  C   UNL     1      -4.563   1.936  24.833  0.00  0.00    +0.133 C 
ATOM     14  C   UNL     1      -3.883   2.254  24.490  0.00  0.00    +0.064 C 
ENDROOT
BRANCH  13  15
ATOM     15  N   UNL     1      -4.852   1.206  24.578  0.00  0.00    -0.186 NA
ATOM     16  C   UNL     1      -4.400   0.524  24.683  0.00  0.00    +0.344 C 
ATOM     17  O   UNL     1      -3.659   0.571  25.042  0.00  0.00    -0.249 OA
ATOM     18  N   UNL     1      -4.689  -0.205  24.429  0.00  0.00    -0.161 NA
BRANCH  18  19
ATOM     19  C   UNL     1      -4.237  -0.887  24.533  0.00  0.00    +0.075 A 
ATOM     20  C   UNL     1      -3.971  -1.095  25.286  0.00  0.00    +0.016 A 
ATOM     21  C   UNL     1      -3.519  -1.777  25.391  0.00  0.00    -0.003 A 
ATOM     22  C   UNL     1      -3.332  -2.252  24.742  0.00  0.00    -0.022 A 
ATOM     23  C   UNL     1      -2.880  -2.933  24.846  0.00  0.00    +0.031 C 
ATOM     24  C   UNL     1      -3.597  -2.044  23.989  0.00  0.00    -0.003 A 
ATOM     25  C   UNL     1      -4.049  -1.362  23.884  0.00  0.00    +0.016 A 
ENDBRANCH  18  19
ENDBRANCH  13  15
BRANCH   6   4
ATOM      3  N   UNL     1      -2.355   3.586  25.117  0.00  0.00    -0.196 NA
ATOM      4  C   UNL     1      -3.113   3.651  24.798  0.00  0.00    +0.269 C 
ATOM      5  O   UNL     1      -3.388   4.382  24.532  0.00  0.00    -0.271 OA
BRANCH   3   2
ATOM      1  C   UNL     1      -2.209   5.007  25.179  0.00  0.00    +0.033 C 
ATOM      2  C   UNL     1      -1.872   4.254  25.171  0.00  0.00    +0.175 C 
BRANCH   2  26
ATOM     26  C   UNL     1      -1.053   4.167  25.216  0.00  0.00    +0.281 C 
ATOM     27  N   UNL     1      -0.560   4.696  24.818  0.00  0.00    -0.086 NA
ATOM     28  O   UNL     1      -0.727   3.553  25.660  0.00  0.00    -0.270 OA
ENDBRANCH   2  26
ENDBRANCH   3   2
ENDBRANCH   6   4
TORSDOF 5
ENDMDL
MODEL 2
REMARK VINA RESULT:     -11.9      2.227      5.818
REMARK  Name = 
REMARK  5 active torsions:
REMARK  status: ('A' for Active; 'I' for Inactive)
REMARK    1  A    between atoms: C_2  and  N_3
REMARK    2  A    between atoms: C_2  and  C_26
REMARK    3  A    between atoms: C_4  and  C_6
REMARK    4  A    between atoms: C_13  and  N_15
REMARK    5  A    between atoms: N_18  and  C_19
REMARK                            x       y       z     vdW  Elec       q    Type
REMARK                         _______ _______ _______ _____ _____    ______ ____
ROOT
ATOM      6  C   UNL     1      -1.796  -0.666  25.211  0.00  0.00    +0.200 C 
ATOM      7  O   UNL     1      -2.378  -0.563  25.787  0.00  0.00    -0.216 OA
ATOM      8  C   UNL     1      -1.379  -0.998  24.580  0.00  0.00    +0.075 C 
ATOM      9  C   UNL     1      -0.688  -0.638  24.309  0.00  0.00    +0.187 C 
ATOM     10  O   UNL     1      -0.272  -0.969  23.678  0.00  0.00    -0.220 OA
ATOM     11  C   UNL     1      -0.414   0.052  24.668  0.00  0.00    +0.202 C 
ATOM     12  O   UNL     1       0.277   0.411  24.396  0.00  0.00    -0.219 OA
ATOM     13  C   UNL     1      -0.831   0.383  25.298  0.00  0.00    +0.133 C 
ATOM     14  C   UNL     1      -1.521   0.023  25.570  0.00  0.00    +0.064 C 
ENDROOT
BRANCH  13  15
ATOM     15  N   UNL     1      -0.555   1.073  25.657  0.00  0.00    -0.186 NA
ATOM     16  C   UNL     1      -0.899   1.800  25.471  0.00  0.00    +0.344 C 
ATOM     17  O   UNL     1      -1.517   1.837  24.927  0.00  0.00    -0.249 OA
ATOM     18  N   UNL     1      -0.623   2.489  25.830  0.00  0.00    -0.161 NA
BRANCH  18  19
ATOM     19  C   UNL     1      -0.966   3.216  25.645  0.00  0.00    +0.075 A 
ATOM     20  C   UNL     1      -1.692   3.426  25.975  0.00  0.00    +0.016 A 
ATOM     21  C   UNL     1      -2.036   4.153  25.790  0.00  0.00    -0.003 A 
ATOM     22  C   UNL     1      -1.653   4.670  25.273  0.00  0.00    -0.022 A 
ATOM     23  C   UNL     1      -1.996   5.397  25.087  0.00  0.00    +0.031 C 
ATOM     24  C   UNL     1      -0.927   4.461  24.942  0.00  0.00    -0.003 A 
ATOM     25  C   UNL     1      -0.584   3.734  25.128  0.00  0.00    +0.016 A 
ENDBRANCH  18  19
ENDBRANCH  13  15
BRANCH   6   4
ATOM      3  N   UNL     1      -3.040  -1.212  24.770  0.00  0.00    -0.196 NA
ATOM      4  C   UNL     1      -2.273  -1.321  25.052  0.00  0.00    +0.269 C 
ATOM      5  O   UNL     1      -1.982  -2.083  25.176  0.00  0.00    -0.271 OA
BRANCH   3   2
ATOM      1  C   UNL     1      -3.373  -2.585  24.991  0.00  0.00    +0.033 C 
ATOM      2  C   UNL     1      -3.518  -1.867  24.611  0.00  0.00    +0.175 C 
BRANCH   2  26
ATOM     26  C   UNL     1      -4.138  -1.803  24.072  0.00  0.00    +0.281 C 
ATOM     27  N   UNL     1      -4.329  -2.442  23.584  0.00  0.00    -0.086 NA
ATOM     28  O   UNL     1      -4.569  -1.101  24.019  0.00  0.00    -0.270 OA
ENDBRANCH   2  26
ENDBRANCH   3   2
ENDBRANCH   6   4
TORSDOF 5
ENDMDL
MODEL 3
REMARK VINA RESULT:     -11.6      0.935      1.034
REMARK  Name = 
REMARK  5 active torsions:
REMARK  status: ('A' for Active; 'I' for Inactive)
REMARK    1  A    between atoms: C_2  and  N_3
REMARK    2  A    between atoms: C_2  and  C_26
REMARK    3  A    between atoms: C_4  and  C_6
REMARK    4  A    between atoms: C_13  and  N_15
REMARK    5  A    between atoms: N_18  and  C_19
REMARK                            x       y       z     vdW  Elec       q    Type
REMARK                         _______ _______ _______ _____ _____    ______ ____
ROOT
ATOM      6  C   UNL     1      -3.138   3.070  25.192  0.00  0.00    +0.200 C 
ATOM      7  O   UNL     1      -2.680   2.838  25.839  0.00  0.00    -0.216 OA
ATOM      8  C   UNL     1      -3.412   3.523  24.559  0.00  0.00    +0.075 C 
ATOM      9  C   UNL     1      -4.055   3.260  24.113  0.00  0.00    +0.187 C 
ATOM     10  O   UNL     1      -4.329   3.713  23.479  0.00  0.00    -0.220 OA
ATOM     11  C   UNL     1      -4.423   2.547  24.300  0.00  0.00    +0.202 C 
ATOM     12  O   UNL     1      -5.065   2.285  23.854  0.00  0.00    -0.219 OA
ATOM     13  C   UNL     1      -4.148   2.095  24.933  0.00  0.00    +0.133 C 
ATOM     14  C   UNL     1      -3.506   2.357  25.379  0.00  0.00    +0.064 C 
ENDROOT
BRANCH  13  15
ATOM     15  N   UNL     1      -4.517   1.380  25.119  0.00  0.00    -0.186 NA
ATOM     16  C   UNL     1      -4.143   0.665  24.948  0.00  0.00    +0.344 C 
ATOM     17  O   UNL     1      -3.400   0.664  24.590  0.00  0.00    -0.249 OA
ATOM     18  N   UNL     1      -4.512  -0.048  25.135  0.00  0.00    -0.161 NA
BRANCH  18  19
ATOM     19  C   UNL     1      -4.138  -0.763  24.964  0.00  0.00    +0.075 A 
ATOM     20  C   UNL     1      -3.637  -1.109  25.519  0.00  0.00    +0.016 A 
ATOM     21  C   UNL     1      -3.262  -1.825  25.348  0.00  0.00    -0.003 A 
ATOM     22  C   UNL     1      -3.389  -2.193  24.621  0.00  0.00    -0.022 A 
ATOM     23  C   UNL     1      -3.015  -2.908  24.449  0.00  0.00    +0.031 C 
ATOM     24  C   UNL     1      -3.891  -1.847  24.065  0.00  0.00    -0.003 A 
ATOM     25  C   UNL     1      -4.265  -1.132  24.236  0.00  0.00    +0.016 A 
ENDBRANCH  18  19
ENDBRANCH  13  15
BRANCH   6   4
ATOM      3  N   UNL     1      -1.833   3.609  24.972  0.00  0.00    -0.196 NA
ATOM      4  C   UNL     1      -2.611   3.704  25.230  0.00  0.00    +0.269 C 
ATOM      5  O   UNL     1      -2.861   4.433  25.525  0.00  0.00    -0.271 OA
BRANCH   3   2
ATOM      1  C   UNL     1      -1.528   4.943  25.385  0.00  0.00    +0.033 C 
ATOM      2  C   UNL     1      -1.305   4.243  25.010  0.00  0.00    +0.175 C 
BRANCH   2  26
ATOM     26  C   UNL     1      -0.556   4.175  24.672  0.00  0.00    +0.281 C 
ATOM     27  N   UNL     1      -0.211   4.827  24.301  0.00  0.00    -0.086 NA
ATOM     28  O   UNL     1      -0.151   3.457  24.705  0.00  0.00    -0.270 OA
ENDBRANCH   2  26
ENDBRANCH   3   2
ENDBRANCH   6   4
TORSDOF 5
ENDMDL
MODEL 4
REMARK VINA RESULT:     -10.7      1.162      5.038
REMARK  Name = 
REMARK  5 active torsions:
REMARK  status: ('A' for Active; 'I' for Inactive)
REMARK    1  A    between atoms: C_2  and  N_3
REMARK    2  A    between atoms: C_2  and  C_26
REMARK    3  A    between atoms: C_4  and  C_6
REMARK    4  A    between atoms: C_13  and  N_15
REMARK    5  A    between atoms: N_18  and  C_19
REMARK                            x       y       z     vdW  Elec       q    Type
REMARK                         _______ _______ _______ _____ _____    ______ ____
ROOT
ATOM      6  C   UNL     1      -3.876   0.714  24.823  0.00  0.00    +0.200 C 
ATOM      7  O   UNL     1      -3.092   0.468  24.908  0.00  0.00    -0.216 OA
ATOM      8  C   UNL     1      -4.673   0.703  24.609  0.00  0.00    +0.075 C 
ATOM      9  C   UNL     1      -5.157   1.344  24.796  0.00  0.00    +0.187 C 
ATOM     10  O   UNL     1      -5.955   1.334  24.582  0.00  0.00    -0.220 OA
ATOM     11  C   UNL     1      -4.846   1.994  25.196  0.00  0.00    +0.202 C 
ATOM     12  O   UNL     1      -5.331   2.635  25.383  0.00  0.00    -0.219 OA
ATOM     13  C   UNL     1      -4.049   2.004  25.410  0.00  0.00    +0.133 C 
ATOM     14  C   UNL     1      -3.564   1.364  25.224  0.00  0.00    +0.064 C 
ENDROOT
BRANCH  13  15
ATOM     15  N   UNL     1      -3.738   2.656  25.811  0.00  0.00    -0.186 NA
ATOM     16  C   UNL     1      -3.115   3.084  25.481  0.00  0.00    +0.344 C 
ATOM     17  O   UNL     1      -2.803   2.862  24.751  0.00  0.00    -0.249 OA
ATOM     18  N   UNL     1      -2.805   3.734  25.882  0.00  0.00    -0.161 NA
BRANCH  18  19
ATOM     19  C   UNL     1      -2.182   4.163  25.552  0.00  0.00    +0.075 A 
ATOM     20  C   UNL     1      -1.434   3.821  25.489  0.00  0.00    +0.016 A 
ATOM     21  C   UNL     1      -0.810   4.250  25.159  0.00  0.00    -0.003 A 
ATOM     22  C   UNL     1      -0.936   5.021  24.893  0.00  0.00    -0.022 A 
ATOM     23  C   UNL     1      -0.313   5.449  24.563  0.00  0.00    +0.031 C 
ATOM     24  C   UNL     1      -1.684   5.363  24.956  0.00  0.00    -0.003 A 
ATOM     25  C   UNL     1      -2.306   4.934  25.286  0.00  0.00    +0.016 A 
ENDBRANCH  18  19
ENDBRANCH  13  15
BRANCH   6   4
ATOM      3  N   UNL     1      -3.831  -0.713  24.897  0.00  0.00    -0.196 NA
ATOM      4  C   UNL     1      -3.915  -0.023  24.452  0.00  0.00    +0.269 C 
ATOM      5  O   UNL     1      -4.038  -0.068  23.638  0.00  0.00    -0.271 OA
BRANCH   3   2
ATOM      1  C   UNL     1      -4.238  -1.522  23.790  0.00  0.00    +0.033 C 
ATOM      2  C   UNL     1      -3.871  -1.449  24.525  0.00  0.00    +0.175 C 
BRANCH   2  26
ATOM     26  C   UNL     1      -3.543  -2.112  24.891  0.00  0.00    +0.281 C 
ATOM     27  N   UNL     1      -3.141  -2.675  24.439  0.00  0.00    -0.086 NA
ATOM     28  O   UNL     1      -3.617  -2.214  25.706  0.00  0.00    -0.270 OA
ENDBRANCH   2  26
ENDBRANCH   3   2
ENDBRANCH   6   4
TORSDOF 5
ENDMDL
MODEL 5
REMARK VINA RESULT:     -10.7      2.074      3.176
REMARK  Name = 
REMARK  5 active torsions:
REMARK  status: ('A' for Active; 'I' for Inactive)
REMARK    1  A    between atoms: C_2  and  N_3
REMARK    2  A    between atoms: C_2  and  C_26
REMARK    3  A    between atoms: C_4  and  C_6
REMARK    4  A    between atoms: C_13  and  N_15
REMARK    5  A    between atoms: N_18  and  C_19
REMARK                            x       y       z     vdW  Elec       q    Type
REMARK                         _______ _______ _______ _____ _____    ______ ____
ROOT
ATOM      6  C   UNL     1      -1.020   2.145  25.394  0.00  0.00    +0.200 C 
ATOM      7  O   UNL     1      -1.581   2.125  25.999  0.00  0.00    -0.216 OA
ATOM      8  C   UNL     1      -0.516   2.447  24.814  0.00  0.00    +0.075 C 
ATOM      9  C   UNL     1      -0.043   1.935  24.373  0.00  0.00    +0.187 C 
ATOM     10  O   UNL     1       0.461   2.236  23.793  0.00  0.00    -0.220 OA
ATOM     11  C   UNL     1      -0.073   1.123  24.512  0.00  0.00    +0.202 C 
ATOM     12  O   UNL     1       0.400   0.611  24.071  0.00  0.00    -0.219 OA
ATOM     13  C   UNL     1      -0.577   0.822  25.092  0.00  0.00    +0.133 C 
ATOM     14  C   UNL     1      -1.050   1.333  25.533  0.00  0.00    +0.064 C 
ENDROOT
BRANCH  13  15
ATOM     15  N   UNL     1      -0.607   0.008  25.230  0.00  0.00    -0.186 NA
ATOM     16  C   UNL     1      -1.273  -0.424  25.008  0.00  0.00    +0.344 C 
ATOM     17  O   UNL     1      -1.910  -0.044  24.648  0.00  0.00    -0.249 OA
ATOM     18  N   UNL     1      -1.302  -1.236  25.147  0.00  0.00    -0.161 NA
BRANCH  18  19
ATOM     19  C   UNL     1      -1.968  -1.669  24.925  0.00  0.00    +0.075 A 
ATOM     20  C   UNL     1      -2.664  -1.608  25.363  0.00  0.00    +0.016 A 
ATOM     21  C   UNL     1      -3.332  -2.041  25.141  0.00  0.00    -0.003 A 
ATOM     22  C   UNL     1      -3.302  -2.534  24.480  0.00  0.00    -0.022 A 
ATOM     23  C   UNL     1      -3.968  -2.967  24.257  0.00  0.00    +0.031 C 
ATOM     24  C   UNL     1      -2.606  -2.595  24.041  0.00  0.00    -0.003 A 
ATOM     25  C   UNL     1      -1.939  -2.162  24.263  0.00  0.00    +0.016 A 
ENDBRANCH  18  19
ENDBRANCH  13  15
BRANCH   6   4
ATOM      3  N   UNL     1      -1.936   3.236  25.279  0.00  0.00    -0.196 NA
ATOM      4  C   UNL     1      -1.185   2.951  25.466  0.00  0.00    +0.269 C 
ATOM      5  O   UNL     1      -0.598   3.471  25.723  0.00  0.00    -0.271 OA
BRANCH   3   2
ATOM      1  C   UNL     1      -1.484   4.589  25.373  0.00  0.00    +0.033 C 
ATOM      2  C   UNL     1      -2.101   4.042  25.351  0.00  0.00    +0.175 C 
BRANCH   2  26
ATOM     26  C   UNL     1      -2.883   4.300  25.399  0.00  0.00    +0.281 C 
ATOM     27  N   UNL     1      -3.368   4.272  24.732  0.00  0.00    -0.086 NA
ATOM     28  O   UNL     1      -3.180   4.585  26.114  0.00  0.00    -0.270 OA
ENDBRANCH   2  26
ENDBRANCH   3   2
ENDBRANCH   6   4
TORSDOF 5
ENDMDL
MODEL 6
REMARK VINA RESULT:     -10.5      2.909      4.604
REMARK  Name = 
REMARK  5 active torsions:
REMARK  status: ('A' for Active; 'I' for Inactive)
REMARK    1  A    between atoms: C_2  and  N_3
REMARK    2  A    between atoms: C_2  and  C_26
REMARK    3  A    between atoms: C_4  and  C_6
REMARK    4  A    between atoms: C_13  and  N_15
REMARK    5  A    between atoms: N_18  and  C_19
REMARK                            x       y       z     vdW  Elec       q    Type
REMARK                         _______ _______ _______ _____ _____    ______ ____
ROOT
ATOM      6  C   UNL     1      -0.670   1.302  24.147  0.00  0.00    +0.200 C 
ATOM      7  O   UNL     1      -1.100   0.888  23.577  0.00  0.00    -0.216 OA
ATOM      8  C   UNL     1      -0.065   1.492  24.676  0.00  0.00    +0.075 C 
ATOM      9  C   UNL     1      -0.114   2.181  25.126  0.00  0.00    +0.187 C 
ATOM     10  O   UNL     1       0.491   2.371  25.655  0.00  0.00    -0.220 OA
ATOM     11  C   UNL     1      -0.765   2.681  25.048  0.00  0.00    +0.202 C 
ATOM     12  O   UNL     1      -0.813   3.370  25.499  0.00  0.00    -0.219 OA
ATOM     13  C   UNL     1      -1.369   2.491  24.520  0.00  0.00    +0.133 C 
ATOM     14  C   UNL     1      -1.322   1.801  24.069  0.00  0.00    +0.064 C 
ENDROOT
BRANCH  13  15
ATOM     15  N   UNL     1      -2.021   2.991  24.442  0.00  0.00    -0.186 NA
ATOM     16  C   UNL     1      -2.765   2.742  24.697  0.00  0.00    +0.344 C 
ATOM     17  O   UNL     1      -2.858   1.994  25.030  0.00  0.00    -0.249 OA
ATOM     18  N   UNL     1      -3.416   3.243  24.619  0.00  0.00    -0.161 NA
BRANCH  18  19
ATOM     19  C   UNL     1      -4.160   2.994  24.874  0.00  0.00    +0.075 A 
ATOM     20  C   UNL     1      -4.599   2.469  24.414  0.00  0.00    +0.016 A 
ATOM     21  C   UNL     1      -5.344   2.220  24.669  0.00  0.00    -0.003 A 
ATOM     22  C   UNL     1      -5.649   2.497  25.384  0.00  0.00    -0.022 A 
ATOM     23  C   UNL     1      -6.393   2.248  25.639  0.00  0.00    +0.031 C 
ATOM     24  C   UNL     1      -5.209   3.022  25.844  0.00  0.00    -0.003 A 
ATOM     25  C   UNL     1      -4.465   3.271  25.589  0.00  0.00    +0.016 A 
ENDBRANCH  18  19
ENDBRANCH  13  15
BRANCH   6   4
ATOM      3  N   UNL     1       0.294   0.618  23.345  0.00  0.00    -0.196 NA
ATOM      4  C   UNL     1      -0.167   0.658  24.027  0.00  0.00    +0.269 C 
ATOM      5  O   UNL     1      -0.127   0.056  24.589  0.00  0.00    -0.271 OA
BRANCH   3   2
ATOM      1  C   UNL     1       0.684  -0.723  23.650  0.00  0.00    +0.033 C 
ATOM      2  C   UNL     1       0.797  -0.025  23.225  0.00  0.00    +0.175 C 
BRANCH   2  26
ATOM     26  C   UNL     1       1.413   0.029  22.679  0.00  0.00    +0.281 C 
ATOM     27  N   UNL     1       1.333  -0.312  21.931  0.00  0.00    -0.086 NA
ATOM     28  O   UNL     1       2.109   0.426  22.879  0.00  0.00    -0.270 OA
ENDBRANCH   2  26
ENDBRANCH   3   2
ENDBRANCH   6   4
TORSDOF 5
ENDMDL
