MODEL 1
REMARK VINA RESULT:     -10.4      0.000      0.000
REMARK  Name = 
REMARK  6 active torsions:
REMARK  status: ('A' for Active; 'I' for Inactive)
REMARK    1  A    between atoms: C_2  and  N_4
REMARK    2  A    between atoms: C_5  and  C_7
REMARK    3  A    between atoms: C_7  and  C_8
REMARK    4  A    between atoms: C_10  and  C_11
REMARK    5  A    between atoms: C_11  and  N_12
REMARK    6  A    between atoms: C_13  and  C_15
REMARK                            x       y       z     vdW  Elec       q    Type
REMARK                         _______ _______ _______ _____ _____    ______ ____
ROOT
ATOM      8  C   UNL     1      -4.772   1.610  24.822  0.00  0.00    +0.157 C 
ATOM      9  O   UNL     1      -4.126   2.064  25.062  0.00  0.00    -0.351 OA
ATOM     10  C   UNL     1      -4.416   2.747  25.423  0.00  0.00    +0.170 C 
ATOM     20  C   UNL     1      -5.241   2.714  25.407  0.00  0.00    +0.213 C 
ATOM     21  O   UNL     1      -5.755   3.285  25.709  0.00  0.00    -0.218 OA
ATOM     22  C   UNL     1      -5.460   2.011  25.035  0.00  0.00    +0.212 C 
ATOM     23  O   UNL     1      -6.232   1.755  24.901  0.00  0.00    -0.218 OA
ENDROOT
BRANCH   8   7
ATOM      7  C   UNL     1      -4.735   0.880  24.437  0.00  0.00    +0.119 C 
BRANCH   7   5
ATOM      4  N   UNL     1      -4.319  -0.376  24.974  0.00  0.00    -0.207 NA
ATOM      5  C   UNL     1      -4.134   0.347  24.621  0.00  0.00    +0.244 C 
ATOM      6  O   UNL     1      -3.348   0.536  24.454  0.00  0.00    -0.273 OA
BRANCH   4   2
ATOM      1  C   UNL     1      -3.413  -1.406  24.574  0.00  0.00    +0.023 C 
ATOM      2  C   UNL     1      -3.717  -0.910  25.159  0.00  0.00    +0.095 C 
ATOM      3  C   UNL     1      -3.421  -0.947  25.928  0.00  0.00    +0.023 C 
ENDBRANCH   4   2
ENDBRANCH   7   5
ENDBRANCH   8   7
BRANCH  10  11
ATOM     11  C   UNL     1      -3.961   3.356  25.744  0.00  0.00    +0.147 C 
BRANCH  11  12
ATOM     12  N   UNL     1      -3.225   3.537  25.418  0.00  0.00    -0.203 NA
ATOM     13  C   UNL     1      -2.709   4.038  25.821  0.00  0.00    +0.241 C 
ATOM     14  O   UNL     1      -2.927   4.359  26.549  0.00  0.00    -0.273 OA
BRANCH  13  15
ATOM     15  C   UNL     1      -1.972   4.220  25.495  0.00  0.00    +0.078 C 
ATOM     16  C   UNL     1      -1.747   4.949  25.184  0.00  0.00    +0.009 C 
ATOM     17  C   UNL     1      -0.968   4.884  24.920  0.00  0.00    +0.001 C 
ATOM     18  C   UNL     1      -0.712   4.114  25.068  0.00  0.00    +0.001 C 
ATOM     19  C   UNL     1      -1.334   3.703  25.424  0.00  0.00    +0.009 C 
ENDBRANCH  13  15
ENDBRANCH  11  12
ENDBRANCH  10  11
TORSDOF 6
ENDMDL
MODEL 2
REMARK VINA RESULT:     -10.4      0.770      4.203
REMARK  Name = 
REMARK  6 active torsions:
REMARK  status: ('A' for Active; 'I' for Inactive)
REMARK    1  A    between atoms: C_2  and  N_4
REMARK    2  A    between atoms: C_5  and  C_7
REMARK    3  A    between atoms: C_7  and  C_8
REMARK    4  A    between atoms: C_10  and  C_11
REMARK    5  A    between atoms: C_11  and  N_12
REMARK    6  A    between atoms: C_13  and  C_15
REMARK                            x       y       z     vdW  Elec       q    Type
REMARK                         _______ _______ _______ _____ _____    ______ ____
ROOT
ATOM      8  C   UNL     1      -4.382   3.068  25.466  0.00  0.00    +0.157 C 
ATOM      9  O   UNL     1      -4.106   2.331  25.220  0.00  0.00    -0.351 OA
ATOM     10  C   UNL     1      -4.759   1.866  25.024  0.00  0.00    +0.170 C 
ATOM     20  C   UNL     1      -5.439   2.317  25.149  0.00  0.00    +0.213 C 
ATOM     21  O   UNL     1      -6.216   2.068  25.023  0.00  0.00    -0.218 OA
ATOM     22  C   UNL     1      -5.206   3.060  25.422  0.00  0.00    +0.212 C 
ATOM     23  O   UNL     1      -5.708   3.685  25.617  0.00  0.00    -0.218 OA
ENDROOT
BRANCH   8   7
ATOM      7  C   UNL     1      -3.916   3.704  25.713  0.00  0.00    +0.119 C 
BRANCH   7   5
ATOM      4  N   UNL     1      -2.515   3.947  25.846  0.00  0.00    -0.207 NA
ATOM      5  C   UNL     1      -3.177   3.830  25.368  0.00  0.00    +0.244 C 
ATOM      6  O   UNL     1      -3.101   3.840  24.546  0.00  0.00    -0.273 OA
BRANCH   4   2
ATOM      1  C   UNL     1      -1.583   4.819  25.203  0.00  0.00    +0.023 C 
ATOM      2  C   UNL     1      -1.776   4.074  25.501  0.00  0.00    +0.095 C 
ATOM      3  C   UNL     1      -1.231   3.457  25.455  0.00  0.00    +0.023 C 
ENDBRANCH   4   2
ENDBRANCH   7   5
ENDBRANCH   8   7
BRANCH  10  11
ATOM     11  C   UNL     1      -4.736   1.088  24.751  0.00  0.00    +0.147 C 
BRANCH  11  12
ATOM     12  N   UNL     1      -4.165   0.567  25.039  0.00  0.00    -0.203 NA
ATOM     13  C   UNL     1      -4.115  -0.198  24.734  0.00  0.00    +0.241 C 
ATOM     14  O   UNL     1      -4.636  -0.442  24.143  0.00  0.00    -0.273 OA
BRANCH  13  15
ATOM     15  C   UNL     1      -3.543  -0.719  25.021  0.00  0.00    +0.078 C 
ATOM     16  C   UNL     1      -2.826  -0.900  24.657  0.00  0.00    +0.009 C 
ATOM     17  C   UNL     1      -2.428  -1.444  25.132  0.00  0.00    +0.001 C 
ATOM     18  C   UNL     1      -2.899  -1.599  25.791  0.00  0.00    +0.001 C 
ATOM     19  C   UNL     1      -3.589  -1.151  25.722  0.00  0.00    +0.009 C 
ENDBRANCH  13  15
ENDBRANCH  11  12
ENDBRANCH  10  11
TORSDOF 6
ENDMDL
MODEL 3
REMARK VINA RESULT:      -9.6      2.146      3.576
REMARK  Name = 
REMARK  6 active torsions:
REMARK  status: ('A' for Active; 'I' for Inactive)
REMARK    1  A    between atoms: C_2  and  N_4
REMARK    2  A    between atoms: C_5  and  C_7
REMARK    3  A    between atoms: C_7  and  C_8
REMARK    4  A    between atoms: C_10  and  C_11
REMARK    5  A    between atoms: C_11  and  N_12
REMARK    6  A    between atoms: C_13  and  C_15
REMARK                            x       y       z     vdW  Elec       q    Type
REMARK                         _______ _______ _______ _____ _____    ______ ____
ROOT
ATOM      8  C   UNL     1      -1.755  -0.081  24.631  0.00  0.00    +0.157 C 
ATOM      9  O   UNL     1      -2.412   0.415  24.566  0.00  0.00    -0.351 OA
ATOM     10  C   UNL     1      -2.148   1.154  24.311  0.00  0.00    +0.170 C 
ATOM     20  C   UNL     1      -1.329   1.115  24.219  0.00  0.00    +0.213 C 
ATOM     21  O   UNL     1      -0.838   1.732  23.973  0.00  0.00    -0.218 OA
ATOM     22  C   UNL     1      -1.086   0.351  24.417  0.00  0.00    +0.212 C 
ATOM     23  O   UNL     1      -0.311   0.070  24.403  0.00  0.00    -0.218 OA
ENDROOT
BRANCH   8   7
ATOM      7  C   UNL     1      -1.766  -0.872  24.869  0.00  0.00    +0.119 C 
BRANCH   7   5
ATOM      4  N   UNL     1      -2.691  -1.836  24.365  0.00  0.00    -0.207 NA
ATOM      5  C   UNL     1      -2.484  -1.273  24.931  0.00  0.00    +0.244 C 
ATOM      6  O   UNL     1      -2.994  -1.111  25.559  0.00  0.00    -0.273 OA
BRANCH   4   2
ATOM      1  C   UNL     1      -3.472  -2.896  24.920  0.00  0.00    +0.023 C 
ATOM      2  C   UNL     1      -3.410  -2.238  24.428  0.00  0.00    +0.095 C 
ATOM      3  C   UNL     1      -4.065  -1.981  23.997  0.00  0.00    +0.023 C 
ENDBRANCH   4   2
ENDBRANCH   7   5
ENDBRANCH   8   7
BRANCH  10  11
ATOM     11  C   UNL     1      -2.620   1.816  24.173  0.00  0.00    +0.147 C 
BRANCH  11  12
ATOM     12  N   UNL     1      -3.320   1.920  24.598  0.00  0.00    -0.203 NA
ATOM     13  C   UNL     1      -3.857   2.503  24.371  0.00  0.00    +0.241 C 
ATOM     14  O   UNL     1      -3.696   2.982  23.720  0.00  0.00    -0.273 OA
BRANCH  13  15
ATOM     15  C   UNL     1      -4.557   2.607  24.797  0.00  0.00    +0.078 C 
ATOM     16  C   UNL     1      -5.224   2.124  24.757  0.00  0.00    +0.009 C 
ATOM     17  C   UNL     1      -5.791   2.429  25.271  0.00  0.00    +0.001 C 
ATOM     18  C   UNL     1      -5.475   3.102  25.629  0.00  0.00    +0.001 C 
ATOM     19  C   UNL     1      -4.711   3.211  25.335  0.00  0.00    +0.009 C 
ENDBRANCH  13  15
ENDBRANCH  11  12
ENDBRANCH  10  11
TORSDOF 6
ENDMDL
MODEL 4
REMARK VINA RESULT:      -9.6      1.749      4.657
REMARK  Name = 
REMARK  6 active torsions:
REMARK  status: ('A' for Active; 'I' for Inactive)
REMARK    1  A    between atoms: C_2  and  N_4
REMARK    2  A    between atoms: C_5  and  C_7
REMARK    3  A    between atoms: C_7  and  C_8
REMARK    4  A    between atoms: C_10  and  C_11
REMARK    5  A    between atoms: C_11  and  N_12
REMARK    6  A    between atoms: C_13  and  C_15
REMARK                            x       y       z     vdW  Elec       q    Type
REMARK                         _______ _______ _______ _____ _____    ______ ____
ROOT
ATOM      8  C   UNL     1      -2.512   2.423  24.662  0.00  0.00    +0.157 C 
ATOM      9  O   UNL     1      -2.583   1.632  24.889  0.00  0.00    -0.351 OA
ATOM     10  C   UNL     1      -1.824   1.316  24.953  0.00  0.00    +0.170 C 
ATOM     20  C   UNL     1      -1.283   1.911  24.765  0.00  0.00    +0.213 C 
ATOM     21  O   UNL     1      -0.461   1.835  24.759  0.00  0.00    -0.218 OA
ATOM     22  C   UNL     1      -1.709   2.595  24.585  0.00  0.00    +0.212 C 
ATOM     23  O   UNL     1      -1.388   3.322  24.367  0.00  0.00    -0.218 OA
ENDROOT
BRANCH   8   7
ATOM      7  C   UNL     1      -3.135   2.948  24.533  0.00  0.00    +0.119 C 
BRANCH   7   5
ATOM      4  N   UNL     1      -4.543   2.736  24.645  0.00  0.00    -0.207 NA
ATOM      5  C   UNL     1      -3.816   2.902  24.997  0.00  0.00    +0.244 C 
ATOM      6  O   UNL     1      -3.768   3.021  25.812  0.00  0.00    -0.273 OA
BRANCH   4   2
ATOM      1  C   UNL     1      -5.513   3.364  25.486  0.00  0.00    +0.023 C 
ATOM      2  C   UNL     1      -5.224   2.690  25.110  0.00  0.00    +0.095 C 
ATOM      3  C   UNL     1      -5.616   1.969  25.197  0.00  0.00    +0.023 C 
ENDBRANCH   4   2
ENDBRANCH   7   5
ENDBRANCH   8   7
BRANCH  10  11
ATOM     11  C   UNL     1      -1.638   0.542  25.168  0.00  0.00    +0.147 C 
BRANCH  11  12
ATOM     12  N   UNL     1      -2.160  -0.072  24.990  0.00  0.00    -0.203 NA
ATOM     13  C   UNL     1      -2.021  -0.829  25.288  0.00  0.00    +0.241 C 
ATOM     14  O   UNL     1      -1.362  -0.972  25.762  0.00  0.00    -0.273 OA
BRANCH  13  15
ATOM     15  C   UNL     1      -2.543  -1.443  25.111  0.00  0.00    +0.078 C 
ATOM     16  C   UNL     1      -3.277  -1.574  25.466  0.00  0.00    +0.009 C 
ATOM     17  C   UNL     1      -3.610  -2.245  25.122  0.00  0.00    +0.001 C 
ATOM     18  C   UNL     1      -3.084  -2.529  24.555  0.00  0.00    +0.001 C 
ATOM     19  C   UNL     1      -2.424  -2.033  24.548  0.00  0.00    +0.009 C 
ENDBRANCH  13  15
ENDBRANCH  11  12
ENDBRANCH  10  11
TORSDOF 6
ENDMDL
