MODEL 1
REMARK VINA RESULT:     -12.0      0.000      0.000
REMARK  Name = 
REMARK  9 active torsions:
REMARK  status: ('A' for Active; 'I' for Inactive)
REMARK    1  A    between atoms: N_2  and  C_3
REMARK    2  A    between atoms: N_2  and  C_11
REMARK    3  A    between atoms: C_3  and  C_4
REMARK    4  A    between atoms: C_4  and  C_5
REMARK    5  A    between atoms: C_12  and  C_13
REMARK    6  A    between atoms: C_13  and  N_14
REMARK    7  A    between atoms: C_15  and  C_17
REMARK    8  A    between atoms: C_20  and  C_23
REMARK    9  A    between atoms: C_28  and  C_29
REMARK                            x       y       z     vdW  Elec       q    Type
REMARK                         _______ _______ _______ _____ _____    ______ ____
ROOT
ATOM     11  C   UNL     1      -4.081   2.912  24.999  0.00  0.00    +0.120 C 
ATOM     12  C   UNL     1      -4.366   2.168  24.781  0.00  0.00    +0.154 C 
ATOM     27  O   UNL     1      -5.098   2.060  25.144  0.00  0.00    -0.350 OA
ATOM     28  C   UNL     1      -5.266   2.736  25.587  0.00  0.00    +0.180 C 
ATOM     31  C   UNL     1      -4.638   3.262  25.497  0.00  0.00    +0.198 C 
ATOM     32  O   UNL     1      -4.577   4.008  25.844  0.00  0.00    -0.219 OA
ENDROOT
BRANCH  11   2
ATOM      1  C   UNL     1      -3.347   3.773  24.126  0.00  0.00    +0.090 C 
ATOM      2  N   UNL     1      -3.365   3.246  24.761  0.00  0.00    -0.268 NA
BRANCH   2   3
ATOM      3  C   UNL     1      -2.668   3.054  25.157  0.00  0.00    +0.079 C 
BRANCH   3   4
ATOM      4  C   UNL     1      -1.952   3.386  24.917  0.00  0.00    +0.063 C 
BRANCH   4   5
ATOM      5  C   UNL     1      -1.239   3.041  25.151  0.00  0.00    +0.060 A 
ATOM      6  N   UNL     1      -0.756   2.673  24.593  0.00  0.00    -0.248 NA
ATOM      7  C   UNL     1      -0.043   2.329  24.826  0.00  0.00    +0.098 A 
ATOM      8  C   UNL     1       0.186   2.353  25.619  0.00  0.00    +0.021 A 
ATOM      9  C   UNL     1      -0.298   2.722  26.177  0.00  0.00    +0.003 A 
ATOM     10  C   UNL     1      -1.010   3.065  25.943  0.00  0.00    +0.015 A 
ENDBRANCH   4   5
ENDBRANCH   3   4
ENDBRANCH   2   3
ENDBRANCH  11   2
BRANCH  28  29
ATOM     29  C   UNL     1      -5.944   2.862  26.040  0.00  0.00    +0.214 C 
ATOM     30  O   UNL     1      -6.185   2.295  26.589  0.00  0.00    -0.218 OA
ENDBRANCH  28  29
BRANCH  12  13
ATOM     13  C   UNL     1      -3.985   1.629  24.287  0.00  0.00    +0.146 C 
BRANCH  13  14
ATOM     14  N   UNL     1      -3.980   0.827  24.478  0.00  0.00    -0.199 NA
ATOM     15  C   UNL     1      -3.653   0.280  23.954  0.00  0.00    +0.265 C 
ATOM     16  O   UNL     1      -3.331   0.536  23.239  0.00  0.00    -0.268 OA
BRANCH  15  17
ATOM     17  C   UNL     1      -3.648  -0.523  24.145  0.00  0.00    +0.055 A 
ATOM     18  C   UNL     1      -3.050  -0.829  24.624  0.00  0.00    +0.005 A 
ATOM     19  C   UNL     1      -3.045  -1.632  24.815  0.00  0.00    +0.004 A 
ATOM     20  C   UNL     1      -3.638  -2.128  24.528  0.00  0.00    +0.071 A 
ATOM     21  C   UNL     1      -4.236  -1.822  24.049  0.00  0.00    +0.004 A 
ATOM     22  C   UNL     1      -4.241  -1.019  23.858  0.00  0.00    +0.005 A 
BRANCH  20  23
ATOM     23  C   UNL     1      -3.634  -2.930  24.719  0.00  0.00    +0.419 C 
ATOM     24  F   UNL     1      -3.629  -3.732  24.910  0.00  0.00    -0.166 F 
ATOM     25  F   UNL     1      -3.623  -2.739  25.521  0.00  0.00    -0.166 F 
ATOM     26  F   UNL     1      -3.644  -3.121  23.917  0.00  0.00    -0.166 F 
ENDBRANCH  20  23
ENDBRANCH  15  17
ENDBRANCH  13  14
ENDBRANCH  12  13
TORSDOF 9
ENDMDL
MODEL 2
REMARK VINA RESULT:     -11.5      2.154      3.686
REMARK  Name = 
REMARK  9 active torsions:
REMARK  status: ('A' for Active; 'I' for Inactive)
REMARK    1  A    between atoms: N_2  and  C_3
REMARK    2  A    between atoms: N_2  and  C_11
REMARK    3  A    between atoms: C_3  and  C_4
REMARK    4  A    between atoms: C_4  and  C_5
REMARK    5  A    between atoms: C_12  and  C_13
REMARK    6  A    between atoms: C_13  and  N_14
REMARK    7  A    between atoms: C_15  and  C_17
REMARK    8  A    between atoms: C_20  and  C_23
REMARK    9  A    between atoms: C_28  and  C_29
REMARK                            x       y       z     vdW  Elec       q    Type
REMARK                         _______ _______ _______ _____ _____    ______ ____
ROOT
ATOM     11  C   UNL     1      -0.075   1.393  24.767  0.00  0.00    +0.120 C 
ATOM     12  C   UNL     1      -0.488   0.688  24.652  0.00  0.00    +0.154 C 
ATOM     27  O   UNL     1      -0.140   0.290  24.019  0.00  0.00    -0.350 OA
ATOM     28  C   UNL     1       0.488   0.749  23.744  0.00  0.00    +0.180 C 
ATOM     31  C   UNL     1       0.528   1.430  24.206  0.00  0.00    +0.198 C 
ATOM     32  O   UNL     1       1.075   2.042  24.121  0.00  0.00    -0.219 OA
ENDROOT
BRANCH  11   2
ATOM      1  C   UNL     1       0.098   1.895  26.095  0.00  0.00    +0.090 C 
ATOM      2  N   UNL     1      -0.237   1.961  25.343  0.00  0.00    -0.268 NA
BRANCH   2   3
ATOM      3  C   UNL     1      -0.734   2.596  25.168  0.00  0.00    +0.079 C 
BRANCH   3   4
ATOM      4  C   UNL     1      -0.849   3.196  25.723  0.00  0.00    +0.063 C 
BRANCH   4   5
ATOM      5  C   UNL     1      -1.342   3.833  25.546  0.00  0.00    +0.060 A 
ATOM      6  N   UNL     1      -2.150   3.785  25.701  0.00  0.00    -0.248 NA
ATOM      7  C   UNL     1      -2.644   4.422  25.523  0.00  0.00    +0.098 A 
ATOM      8  C   UNL     1      -2.328   5.107  25.190  0.00  0.00    +0.021 A 
ATOM      9  C   UNL     1      -1.518   5.156  25.034  0.00  0.00    +0.003 A 
ATOM     10  C   UNL     1      -1.026   4.518  25.212  0.00  0.00    +0.015 A 
ENDBRANCH   4   5
ENDBRANCH   3   4
ENDBRANCH   2   3
ENDBRANCH  11   2
BRANCH  28  29
ATOM     29  C   UNL     1       0.989   0.558  23.115  0.00  0.00    +0.214 C 
ATOM     30  O   UNL     1       0.990  -0.208  22.807  0.00  0.00    -0.218 OA
ENDBRANCH  28  29
BRANCH  12  13
ATOM     13  C   UNL     1      -1.135   0.428  25.092  0.00  0.00    +0.146 C 
BRANCH  13  14
ATOM     14  N   UNL     1      -1.674  -0.101  24.759  0.00  0.00    -0.199 NA
ATOM     15  C   UNL     1      -2.186  -0.528  25.245  0.00  0.00    +0.265 C 
ATOM     16  O   UNL     1      -2.159  -0.426  26.063  0.00  0.00    -0.268 OA
BRANCH  15  17
ATOM     17  C   UNL     1      -2.725  -1.057  24.912  0.00  0.00    +0.055 A 
ATOM     18  C   UNL     1      -2.555  -1.864  24.897  0.00  0.00    +0.005 A 
ATOM     19  C   UNL     1      -3.094  -2.393  24.565  0.00  0.00    +0.004 A 
ATOM     20  C   UNL     1      -3.803  -2.114  24.247  0.00  0.00    +0.071 A 
ATOM     21  C   UNL     1      -3.973  -1.308  24.262  0.00  0.00    +0.004 A 
ATOM     22  C   UNL     1      -3.434  -0.779  24.595  0.00  0.00    +0.005 A 
BRANCH  20  23
ATOM     23  C   UNL     1      -4.342  -2.643  23.915  0.00  0.00    +0.419 C 
ATOM     24  F   UNL     1      -4.881  -3.171  23.582  0.00  0.00    -0.166 F 
ATOM     25  F   UNL     1      -3.952  -3.271  24.282  0.00  0.00    -0.166 F 
ATOM     26  F   UNL     1      -4.731  -2.015  23.548  0.00  0.00    -0.166 F 
ENDBRANCH  20  23
ENDBRANCH  15  17
ENDBRANCH  13  14
ENDBRANCH  12  13
TORSDOF 9
ENDMDL
MODEL 3
REMARK VINA RESULT:     -11.2      3.412      6.250
REMARK  Name = 
REMARK  9 active torsions:
REMARK  status: ('A' for Active; 'I' for Inactive)
REMARK    1  A    between atoms: N_2  and  C_3
REMARK    2  A    between atoms: N_2  and  C_11
REMARK    3  A    between atoms: C_3  and  C_4
REMARK    4  A    between atoms: C_4  and  C_5
REMARK    5  A    between atoms: C_12  and  C_13
REMARK    6  A    between atoms: C_13  and  N_14
REMARK    7  A    between atoms: C_15  and  C_17
REMARK    8  A    between atoms: C_20  and  C_23
REMARK    9  A    between atoms: C_28  and  C_29
REMARK                            x       y       z     vdW  Elec       q    Type
REMARK                         _______ _______ _______ _____ _____    ______ ____
ROOT
ATOM     11  C   UNL     1      -0.603  -0.411  24.447  0.00  0.00    +0.120 C 
ATOM     12  C   UNL     1      -0.573   0.413  24.485  0.00  0.00    +0.154 C 
ATOM     27  O   UNL     1       0.023   0.670  23.978  0.00  0.00    -0.350 OA
ATOM     28  C   UNL     1       0.363   0.005  23.626  0.00  0.00    +0.180 C 
ATOM     31  C   UNL     1      -0.024  -0.663  23.916  0.00  0.00    +0.198 C 
ATOM     32  O   UNL     1       0.139  -1.445  23.710  0.00  0.00    -0.219 OA
ENDROOT
BRANCH  11   2
ATOM      1  C   UNL     1      -0.932  -1.135  25.635  0.00  0.00    +0.090 C 
ATOM      2  N   UNL     1      -1.120  -0.898  24.866  0.00  0.00    -0.268 NA
BRANCH   2   3
ATOM      3  C   UNL     1      -1.825  -1.148  24.519  0.00  0.00    +0.079 C 
BRANCH   3   4
ATOM      4  C   UNL     1      -2.377  -1.572  24.962  0.00  0.00    +0.063 C 
BRANCH   4   5
ATOM      5  C   UNL     1      -3.068  -1.848  24.605  0.00  0.00    +0.060 A 
ATOM      6  N   UNL     1      -3.643  -1.315  24.351  0.00  0.00    -0.248 NA
ATOM      7  C   UNL     1      -4.333  -1.592  23.994  0.00  0.00    +0.098 A 
ATOM      8  C   UNL     1      -4.448  -2.402  23.892  0.00  0.00    +0.021 A 
ATOM      9  C   UNL     1      -3.872  -2.936  24.147  0.00  0.00    +0.003 A 
ATOM     10  C   UNL     1      -3.182  -2.659  24.503  0.00  0.00    +0.015 A 
ENDBRANCH   4   5
ENDBRANCH   3   4
ENDBRANCH   2   3
ENDBRANCH  11   2
BRANCH  28  29
ATOM     29  C   UNL     1       0.982   0.009  23.079  0.00  0.00    +0.214 C 
ATOM     30  O   UNL     1       1.515   0.639  23.065  0.00  0.00    -0.218 OA
ENDBRANCH  28  29
BRANCH  12  13
ATOM     13  C   UNL     1      -1.056   0.894  24.949  0.00  0.00    +0.146 C 
BRANCH  13  14
ATOM     14  N   UNL     1      -1.005   1.714  24.884  0.00  0.00    -0.199 NA
ATOM     15  C   UNL     1      -1.511   2.196  25.324  0.00  0.00    +0.265 C 
ATOM     16  O   UNL     1      -2.067   1.855  25.829  0.00  0.00    -0.268 OA
BRANCH  15  17
ATOM     17  C   UNL     1      -1.459   3.016  25.259  0.00  0.00    +0.055 A 
ATOM     18  C   UNL     1      -0.726   3.390  25.322  0.00  0.00    +0.005 A 
ATOM     19  C   UNL     1      -0.674   4.211  25.257  0.00  0.00    +0.004 A 
ATOM     20  C   UNL     1      -1.356   4.658  25.130  0.00  0.00    +0.071 A 
ATOM     21  C   UNL     1      -2.089   4.285  25.067  0.00  0.00    +0.004 A 
ATOM     22  C   UNL     1      -2.140   3.464  25.132  0.00  0.00    +0.005 A 
BRANCH  20  23
ATOM     23  C   UNL     1      -1.305   5.479  25.065  0.00  0.00    +0.419 C 
ATOM     24  F   UNL     1      -1.253   6.299  25.000  0.00  0.00    -0.166 F 
ATOM     25  F   UNL     1      -0.637   5.399  24.587  0.00  0.00    -0.166 F 
ATOM     26  F   UNL     1      -1.972   5.558  25.543  0.00  0.00    -0.166 F 
ENDBRANCH  20  23
ENDBRANCH  15  17
ENDBRANCH  13  14
ENDBRANCH  12  13
TORSDOF 9
ENDMDL
MODEL 4
REMARK VINA RESULT:     -10.7      1.462      3.212
REMARK  Name = 
REMARK  9 active torsions:
REMARK  status: ('A' for Active; 'I' for Inactive)
REMARK    1  A    between atoms: N_2  and  C_3
REMARK    2  A    between atoms: N_2  and  C_11
REMARK    3  A    between atoms: C_3  and  C_4
REMARK    4  A    between atoms: C_4  and  C_5
REMARK    5  A    between atoms: C_12  and  C_13
REMARK    6  A    between atoms: C_13  and  N_14
REMARK    7  A    between atoms: C_15  and  C_17
REMARK    8  A    between atoms: C_20  and  C_23
REMARK    9  A    between atoms: C_28  and  C_29
REMARK                            x       y       z     vdW  Elec       q    Type
REMARK                         _______ _______ _______ _____ _____    ______ ____
ROOT
ATOM     11  C   UNL     1      -2.052   2.763  25.157  0.00  0.00    +0.120 C 
ATOM     12  C   UNL     1      -1.759   2.032  24.909  0.00  0.00    +0.154 C 
ATOM     27  O   UNL     1      -1.040   1.903  25.291  0.00  0.00    -0.350 OA
ATOM     28  C   UNL     1      -0.888   2.554  25.776  0.00  0.00    +0.180 C 
ATOM     31  C   UNL     1      -1.514   3.085  25.693  0.00  0.00    +0.198 C 
ATOM     32  O   UNL     1      -1.588   3.811  26.078  0.00  0.00    -0.219 OA
ENDROOT
BRANCH  11   2
ATOM      1  C   UNL     1      -2.761   3.643  24.282  0.00  0.00    +0.090 C 
ATOM      2  N   UNL     1      -2.759   3.110  24.913  0.00  0.00    -0.268 NA
BRANCH   2   3
ATOM      3  C   UNL     1      -3.465   2.925  25.297  0.00  0.00    +0.079 C 
BRANCH   3   4
ATOM      4  C   UNL     1      -4.181   3.220  25.012  0.00  0.00    +0.063 C 
BRANCH   4   5
ATOM      5  C   UNL     1      -4.891   2.867  25.239  0.00  0.00    +0.060 A 
ATOM      6  N   UNL     1      -5.166   2.953  26.012  0.00  0.00    -0.248 NA
ATOM      7  C   UNL     1      -5.877   2.600  26.239  0.00  0.00    +0.098 A 
ATOM      8  C   UNL     1      -6.313   2.162  25.692  0.00  0.00    +0.021 A 
ATOM      9  C   UNL     1      -6.038   2.077  24.918  0.00  0.00    +0.003 A 
ATOM     10  C   UNL     1      -5.327   2.430  24.693  0.00  0.00    +0.015 A 
ENDBRANCH   4   5
ENDBRANCH   3   4
ENDBRANCH   2   3
ENDBRANCH  11   2
BRANCH  28  29
ATOM     29  C   UNL     1      -0.227   2.655  26.259  0.00  0.00    +0.214 C 
ATOM     30  O   UNL     1       0.498   2.325  26.040  0.00  0.00    -0.218 OA
ENDBRANCH  28  29
BRANCH  12  13
ATOM     13  C   UNL     1      -2.121   1.522  24.373  0.00  0.00    +0.146 C 
BRANCH  13  14
ATOM     14  N   UNL     1      -2.327   0.758  24.606  0.00  0.00    -0.199 NA
ATOM     15  C   UNL     1      -2.624   0.223  24.051  0.00  0.00    +0.265 C 
ATOM     16  O   UNL     1      -2.713   0.453  23.264  0.00  0.00    -0.268 OA
BRANCH  15  17
ATOM     17  C   UNL     1      -2.830  -0.541  24.284  0.00  0.00    +0.055 A 
ATOM     18  C   UNL     1      -2.241  -1.093  24.456  0.00  0.00    +0.005 A 
ATOM     19  C   UNL     1      -2.447  -1.857  24.690  0.00  0.00    +0.004 A 
ATOM     20  C   UNL     1      -3.242  -2.069  24.751  0.00  0.00    +0.071 A 
ATOM     21  C   UNL     1      -3.831  -1.518  24.579  0.00  0.00    +0.004 A 
ATOM     22  C   UNL     1      -3.624  -0.754  24.346  0.00  0.00    +0.005 A 
BRANCH  20  23
ATOM     23  C   UNL     1      -3.448  -2.833  24.984  0.00  0.00    +0.419 C 
ATOM     24  F   UNL     1      -3.655  -3.597  25.217  0.00  0.00    -0.166 F 
ATOM     25  F   UNL     1      -3.636  -2.552  25.737  0.00  0.00    -0.166 F 
ATOM     26  F   UNL     1      -3.261  -3.113  24.231  0.00  0.00    -0.166 F 
ENDBRANCH  20  23
ENDBRANCH  15  17
ENDBRANCH  13  14
ENDBRANCH  12  13
TORSDOF 9
ENDMDL
MODEL 5
REMARK VINA RESULT:     -10.0      3.039      5.302
REMARK  Name = 
REMARK  9 active torsions:
REMARK  status: ('A' for Active; 'I' for Inactive)
REMARK    1  A    between atoms: N_2  and  C_3
REMARK    2  A    between atoms: N_2  and  C_11
REMARK    3  A    between atoms: C_3  and  C_4
REMARK    4  A    between atoms: C_4  and  C_5
REMARK    5  A    between atoms: C_12  and  C_13
REMARK    6  A    between atoms: C_13  and  N_14
REMARK    7  A    between atoms: C_15  and  C_17
REMARK    8  A    between atoms: C_20  and  C_23
REMARK    9  A    between atoms: C_28  and  C_29
REMARK                            x       y       z     vdW  Elec       q    Type
REMARK                         _______ _______ _______ _____ _____    ______ ____
ROOT
ATOM     11  C   UNL     1      -4.532   1.134  24.759  0.00  0.00    +0.120 C 
ATOM     12  C   UNL     1      -4.080   1.685  25.174  0.00  0.00    +0.154 C 
ATOM     27  O   UNL     1      -4.594   2.154  25.617  0.00  0.00    -0.350 OA
ATOM     28  C   UNL     1      -5.363   1.892  25.476  0.00  0.00    +0.180 C 
ATOM     31  C   UNL     1      -5.325   1.262  24.945  0.00  0.00    +0.198 C 
ATOM     32  O   UNL     1      -5.968   0.835  24.653  0.00  0.00    -0.219 OA
ENDROOT
BRANCH  11   2
ATOM      1  C   UNL     1      -4.053   0.752  23.467  0.00  0.00    +0.090 C 
ATOM      2  N   UNL     1      -4.242   0.556  24.247  0.00  0.00    -0.268 NA
BRANCH   2   3
ATOM      3  C   UNL     1      -4.140  -0.218  24.513  0.00  0.00    +0.079 C 
BRANCH   3   4
ATOM      4  C   UNL     1      -3.804  -0.785  24.016  0.00  0.00    +0.063 C 
BRANCH   4   5
ATOM      5  C   UNL     1      -3.700  -1.558  24.285  0.00  0.00    +0.060 A 
ATOM      6  N   UNL     1      -3.213  -1.709  24.933  0.00  0.00    -0.248 NA
ATOM      7  C   UNL     1      -3.109  -2.482  25.201  0.00  0.00    +0.098 A 
ATOM      8  C   UNL     1      -3.492  -3.105  24.820  0.00  0.00    +0.021 A 
ATOM      9  C   UNL     1      -3.980  -2.955  24.171  0.00  0.00    +0.003 A 
ATOM     10  C   UNL     1      -4.083  -2.182  23.904  0.00  0.00    +0.015 A 
ENDBRANCH   4   5
ENDBRANCH   3   4
ENDBRANCH   2   3
ENDBRANCH  11   2
BRANCH  28  29
ATOM     29  C   UNL     1      -6.051   2.207  25.807  0.00  0.00    +0.214 C 
ATOM     30  O   UNL     1      -6.002   2.840  26.334  0.00  0.00    -0.218 OA
ENDBRANCH  28  29
BRANCH  12  13
ATOM     13  C   UNL     1      -3.259   1.755  25.150  0.00  0.00    +0.146 C 
BRANCH  13  14
ATOM     14  N   UNL     1      -2.910   2.498  25.063  0.00  0.00    -0.199 NA
ATOM     15  C   UNL     1      -2.106   2.597  25.218  0.00  0.00    +0.265 C 
ATOM     16  O   UNL     1      -1.650   1.953  25.459  0.00  0.00    -0.268 OA
BRANCH  15  17
ATOM     17  C   UNL     1      -1.758   3.340  25.131  0.00  0.00    +0.055 A 
ATOM     18  C   UNL     1      -2.142   4.012  25.417  0.00  0.00    +0.005 A 
ATOM     19  C   UNL     1      -1.794   4.754  25.330  0.00  0.00    +0.004 A 
ATOM     20  C   UNL     1      -1.061   4.825  24.958  0.00  0.00    +0.071 A 
ATOM     21  C   UNL     1      -0.676   4.154  24.673  0.00  0.00    +0.004 A 
ATOM     22  C   UNL     1      -1.025   3.411  24.759  0.00  0.00    +0.005 A 
BRANCH  20  23
ATOM     23  C   UNL     1      -0.713   5.568  24.871  0.00  0.00    +0.419 C 
ATOM     24  F   UNL     1      -0.365   6.311  24.784  0.00  0.00    -0.166 F 
ATOM     25  F   UNL     1      -1.323   5.905  25.313  0.00  0.00    -0.166 F 
ATOM     26  F   UNL     1      -0.103   5.230  24.429  0.00  0.00    -0.166 F 
ENDBRANCH  20  23
ENDBRANCH  15  17
ENDBRANCH  13  14
ENDBRANCH  12  13
TORSDOF 9
ENDMDL
MODEL 6
REMARK VINA RESULT:      -9.9      2.588      4.363
REMARK  Name = 
REMARK  9 active torsions:
REMARK  status: ('A' for Active; 'I' for Inactive)
REMARK    1  A    between atoms: N_2  and  C_3
REMARK    2  A    between atoms: N_2  and  C_11
REMARK    3  A    between atoms: C_3  and  C_4
REMARK    4  A    between atoms: C_4  and  C_5
REMARK    5  A    between atoms: C_12  and  C_13
REMARK    6  A    between atoms: C_13  and  N_14
REMARK    7  A    between atoms: C_15  and  C_17
REMARK    8  A    between atoms: C_20  and  C_23
REMARK    9  A    between atoms: C_28  and  C_29
REMARK                            x       y       z     vdW  Elec       q    Type
REMARK                         _______ _______ _______ _____ _____    ______ ____
ROOT
ATOM     11  C   UNL     1      -0.516   1.700  24.323  0.00  0.00    +0.120 C 
ATOM     12  C   UNL     1      -1.243   2.085  24.260  0.00  0.00    +0.154 C 
ATOM     27  O   UNL     1      -1.174   2.822  24.622  0.00  0.00    -0.350 OA
ATOM     28  C   UNL     1      -0.404   2.894  24.908  0.00  0.00    +0.180 C 
ATOM     31  C   UNL     1       0.003   2.201  24.724  0.00  0.00    +0.198 C 
ATOM     32  O   UNL     1       0.791   2.037  24.908  0.00  0.00    -0.219 OA
ENDROOT
BRANCH  11   2
ATOM      1  C   UNL     1       0.060   0.862  23.318  0.00  0.00    +0.090 C 
ATOM      2  N   UNL     1      -0.338   0.947  24.036  0.00  0.00    -0.268 NA
BRANCH   2   3
ATOM      3  C   UNL     1      -0.559   0.279  24.467  0.00  0.00    +0.079 C 
BRANCH   3   4
ATOM      4  C   UNL     1      -0.365  -0.473  24.189  0.00  0.00    +0.063 C 
BRANCH   4   5
ATOM      5  C   UNL     1      -0.748  -1.137  24.495  0.00  0.00    +0.060 A 
ATOM      6  N   UNL     1      -1.342  -1.508  24.060  0.00  0.00    -0.248 NA
ATOM      7  C   UNL     1      -1.725  -2.172  24.367  0.00  0.00    +0.098 A 
ATOM      8  C   UNL     1      -1.514  -2.464  25.109  0.00  0.00    +0.021 A 
ATOM      9  C   UNL     1      -0.919  -2.092  25.545  0.00  0.00    +0.003 A 
ATOM     10  C   UNL     1      -0.537  -1.428  25.237  0.00  0.00    +0.015 A 
ENDBRANCH   4   5
ENDBRANCH   3   4
ENDBRANCH   2   3
ENDBRANCH  11   2
BRANCH  28  29
ATOM     29  C   UNL     1      -0.094   3.546  25.309  0.00  0.00    +0.214 C 
ATOM     30  O   UNL     1      -0.504   4.263  25.308  0.00  0.00    -0.218 OA
ENDBRANCH  28  29
BRANCH  12  13
ATOM     13  C   UNL     1      -1.921   1.783  23.899  0.00  0.00    +0.146 C 
BRANCH  13  14
ATOM     14  N   UNL     1      -2.648   1.825  24.287  0.00  0.00    -0.199 NA
ATOM     15  C   UNL     1      -3.345   1.666  23.875  0.00  0.00    +0.265 C 
ATOM     16  O   UNL     1      -3.314   1.465  23.075  0.00  0.00    -0.268 OA
BRANCH  15  17
ATOM     17  C   UNL     1      -4.072   1.707  24.262  0.00  0.00    +0.055 A 
ATOM     18  C   UNL     1      -4.399   1.029  24.600  0.00  0.00    +0.005 A 
ATOM     19  C   UNL     1      -5.126   1.071  24.988  0.00  0.00    +0.004 A 
ATOM     20  C   UNL     1      -5.526   1.791  25.037  0.00  0.00    +0.071 A 
ATOM     21  C   UNL     1      -5.200   2.468  24.699  0.00  0.00    +0.004 A 
ATOM     22  C   UNL     1      -4.473   2.427  24.312  0.00  0.00    +0.005 A 
BRANCH  20  23
ATOM     23  C   UNL     1      -6.253   1.832  25.425  0.00  0.00    +0.419 C 
ATOM     24  F   UNL     1      -6.980   1.874  25.812  0.00  0.00    -0.166 F 
ATOM     25  F   UNL     1      -5.866   2.015  26.130  0.00  0.00    -0.166 F 
ATOM     26  F   UNL     1      -6.639   1.650  24.719  0.00  0.00    -0.166 F 
ENDBRANCH  20  23
ENDBRANCH  15  17
ENDBRANCH  13  14
ENDBRANCH  12  13
TORSDOF 9
ENDMDL
MODEL 7
REMARK VINA RESULT:      -9.6      2.547      4.374
REMARK  Name = 
REMARK  9 active torsions:
REMARK  status: ('A' for Active; 'I' for Inactive)
REMARK    1  A    between atoms: N_2  and  C_3
REMARK    2  A    between atoms: N_2  and  C_11
REMARK    3  A    between atoms: C_3  and  C_4
REMARK    4  A    between atoms: C_4  and  C_5
REMARK    5  A    between atoms: C_12  and  C_13
REMARK    6  A    between atoms: C_13  and  N_14
REMARK    7  A    between atoms: C_15  and  C_17
REMARK    8  A    between atoms: C_20  and  C_23
REMARK    9  A    between atoms: C_28  and  C_29
REMARK                            x       y       z     vdW  Elec       q    Type
REMARK                         _______ _______ _______ _____ _____    ______ ____
ROOT
ATOM     11  C   UNL     1      -1.763  -0.680  24.600  0.00  0.00    +0.120 C 
ATOM     12  C   UNL     1      -2.538  -0.473  24.403  0.00  0.00    +0.154 C 
ATOM     27  O   UNL     1      -3.032  -1.091  24.631  0.00  0.00    -0.350 OA
ATOM     28  C   UNL     1      -2.565  -1.681  24.969  0.00  0.00    +0.180 C 
ATOM     31  C   UNL     1      -1.781  -1.427  24.950  0.00  0.00    +0.198 C 
ATOM     32  O   UNL     1      -1.127  -1.846  25.231  0.00  0.00    -0.219 OA
ENDROOT
BRANCH  11   2
ATOM      1  C   UNL     1      -0.601  -0.379  23.824  0.00  0.00    +0.090 C 
ATOM      2  N   UNL     1      -1.090  -0.221  24.470  0.00  0.00    -0.268 NA
BRANCH   2   3
ATOM      3  C   UNL     1      -0.906   0.397  24.985  0.00  0.00    +0.079 C 
BRANCH   3   4
ATOM      4  C   UNL     1      -0.252   0.878  24.836  0.00  0.00    +0.063 C 
BRANCH   4   5
ATOM      5  C   UNL     1      -0.204   1.626  25.181  0.00  0.00    +0.060 A 
ATOM      6  N   UNL     1      -0.257   1.707  25.999  0.00  0.00    -0.248 NA
ATOM      7  C   UNL     1      -0.208   2.455  26.344  0.00  0.00    +0.098 A 
ATOM      8  C   UNL     1      -0.108   3.122  25.869  0.00  0.00    +0.021 A 
ATOM      9  C   UNL     1      -0.055   3.041  25.049  0.00  0.00    +0.003 A 
ATOM     10  C   UNL     1      -0.103   2.293  24.706  0.00  0.00    +0.015 A 
ENDBRANCH   4   5
ENDBRANCH   3   4
ENDBRANCH   2   3
ENDBRANCH  11   2
BRANCH  28  29
ATOM     29  C   UNL     1      -2.834  -2.399  25.273  0.00  0.00    +0.214 C 
ATOM     30  O   UNL     1      -3.599  -2.659  25.100  0.00  0.00    -0.218 OA
ENDBRANCH  28  29
BRANCH  12  13
ATOM     13  C   UNL     1      -2.774   0.230  24.042  0.00  0.00    +0.146 C 
BRANCH  13  14
ATOM     14  N   UNL     1      -3.285   0.744  24.435  0.00  0.00    -0.199 NA
ATOM     15  C   UNL     1      -3.612   1.387  24.035  0.00  0.00    +0.265 C 
ATOM     16  O   UNL     1      -3.428   1.515  23.241  0.00  0.00    -0.268 OA
BRANCH  15  17
ATOM     17  C   UNL     1      -4.123   1.902  24.429  0.00  0.00    +0.055 A 
ATOM     18  C   UNL     1      -4.915   1.695  24.536  0.00  0.00    +0.005 A 
ATOM     19  C   UNL     1      -5.426   2.209  24.930  0.00  0.00    +0.004 A 
ATOM     20  C   UNL     1      -5.145   2.930  25.216  0.00  0.00    +0.071 A 
ATOM     21  C   UNL     1      -4.354   3.137  25.109  0.00  0.00    +0.004 A 
ATOM     22  C   UNL     1      -3.843   2.623  24.715  0.00  0.00    +0.005 A 
BRANCH  20  23
ATOM     23  C   UNL     1      -5.656   3.445  25.609  0.00  0.00    +0.419 C 
ATOM     24  F   UNL     1      -6.167   3.959  26.003  0.00  0.00    -0.166 F 
ATOM     25  F   UNL     1      -5.482   4.036  25.062  0.00  0.00    -0.166 F 
ATOM     26  F   UNL     1      -5.830   2.853  26.157  0.00  0.00    -0.166 F 
ENDBRANCH  20  23
ENDBRANCH  15  17
ENDBRANCH  13  14
ENDBRANCH  12  13
TORSDOF 9
ENDMDL
