MODEL 1
REMARK VINA RESULT:     -12.2      0.000      0.000
REMARK  Name = 
REMARK  5 active torsions:
REMARK  status: ('A' for Active; 'I' for Inactive)
REMARK    1  A    between atoms: C_7  and  N_10
REMARK    2  A    between atoms: N_10  and  C_11
REMARK    3  A    between atoms: C_11  and  C_12
REMARK    4  A    between atoms: C_12  and  C_13
REMARK    5  A    between atoms: C_16  and  C_18
REMARK                            x       y       z     vdW  Elec       q    Type
REMARK                         _______ _______ _______ _____ _____    ______ ____
ROOT
ATOM     11  C   UNL     1      -4.075   2.406  24.826  0.00  0.00    +0.119 C 
ATOM     25  C   UNL     1      -4.463   3.068  25.126  0.00  0.00    +0.161 C 
ATOM     26  O   UNL     1      -5.064   2.970  24.569  0.00  0.00    -0.351 OA
ATOM     27  C   UNL     1      -4.675   2.306  24.269  0.00  0.00    +0.161 C 
ENDROOT
BRANCH  11  10
ATOM     10  N   UNL     1      -3.474   2.505  25.383  0.00  0.00    -0.217 NA
BRANCH  10   7
ATOM      1  C   UNL     1      -0.577   4.794  24.571  0.00  0.00    +0.095 C 
ATOM      2  C   UNL     1      -1.260   4.924  25.016  0.00  0.00    +0.226 C 
ATOM      3  O   UNL     1      -1.390   5.658  25.368  0.00  0.00    -0.275 OA
ATOM      4  N   UNL     1      -1.814   4.319  25.108  0.00  0.00    -0.279 N 
ATOM      5  C   UNL     1      -2.496   4.449  25.552  0.00  0.00    +0.095 C 
ATOM      6  C   UNL     1      -3.050   3.844  25.644  0.00  0.00    +0.039 C 
ATOM      7  C   UNL     1      -2.922   3.109  25.292  0.00  0.00    +0.076 C 
ATOM      8  C   UNL     1      -2.239   2.980  24.847  0.00  0.00    +0.039 C 
ATOM      9  C   UNL     1      -1.685   3.584  24.755  0.00  0.00    +0.095 C 
ENDBRANCH  10   7
ENDBRANCH  11  10
BRANCH  11  12
ATOM     12  C   UNL     1      -3.686   1.742  24.526  0.00  0.00    +0.070 C 
BRANCH  12  13
ATOM     13  C   UNL     1      -3.953   0.987  24.717  0.00  0.00    +0.102 A 
ATOM     14  N   UNL     1      -4.551   0.805  25.256  0.00  0.00    -0.081 NA
ATOM     15  O   UNL     1      -4.637  -0.016  25.275  0.00  0.00    -0.354 OA
ATOM     16  C   UNL     1      -4.092  -0.342  24.748  0.00  0.00    +0.177 A 
ATOM     17  C   UNL     1      -3.669   0.278  24.404  0.00  0.00    +0.058 A 
BRANCH  16  18
ATOM     18  C   UNL     1      -3.987  -1.145  24.593  0.00  0.00    +0.040 A 
ATOM     19  C   UNL     1      -3.565  -1.615  25.124  0.00  0.00    +0.045 A 
ATOM     20  C   UNL     1      -3.461  -2.419  24.969  0.00  0.00    +0.196 A 
ATOM     21  O   UNL     1      -3.039  -2.889  25.499  0.00  0.00    -0.287 OA
ATOM     22  C   UNL     1      -3.777  -2.752  24.284  0.00  0.00    +0.042 A 
ATOM     23  C   UNL     1      -4.199  -2.281  23.754  0.00  0.00    +0.003 A 
ATOM     24  C   UNL     1      -4.304  -1.478  23.909  0.00  0.00    +0.003 A 
ENDBRANCH  16  18
ENDBRANCH  12  13
ENDBRANCH  11  12
TORSDOF 5
ENDMDL
MODEL 2
REMARK VINA RESULT:     -11.4      1.031      5.345
REMARK  Name = 
REMARK  5 active torsions:
REMARK  status: ('A' for Active; 'I' for Inactive)
REMARK    1  A    between atoms: C_7  and  N_10
REMARK    2  A    between atoms: N_10  and  C_11
REMARK    3  A    between atoms: C_11  and  C_12
REMARK    4  A    between atoms: C_12  and  C_13
REMARK    5  A    between atoms: C_16  and  C_18
REMARK                            x       y       z     vdW  Elec       q    Type
REMARK                         _______ _______ _______ _____ _____    ______ ____
ROOT
ATOM     11  C   UNL     1      -4.592   1.323  24.967  0.00  0.00    +0.119 C 
ATOM     25  C   UNL     1      -5.135   0.905  25.426  0.00  0.00    +0.161 C 
ATOM     26  O   UNL     1      -5.739   1.405  25.169  0.00  0.00    -0.351 OA
ATOM     27  C   UNL     1      -5.195   1.825  24.710  0.00  0.00    +0.161 C 
ENDROOT
BRANCH  11  10
ATOM     10  N   UNL     1      -3.988   0.823  25.224  0.00  0.00    -0.217 NA
BRANCH  10   7
ATOM      1  C   UNL     1      -3.622  -2.906  24.724  0.00  0.00    +0.095 C 
ATOM      2  C   UNL     1      -3.903  -2.318  24.218  0.00  0.00    +0.226 C 
ATOM      3  O   UNL     1      -4.163  -2.516  23.461  0.00  0.00    -0.275 OA
ATOM      4  N   UNL     1      -3.924  -1.533  24.470  0.00  0.00    -0.279 N 
ATOM      5  C   UNL     1      -4.205  -0.945  23.964  0.00  0.00    +0.095 C 
ATOM      6  C   UNL     1      -4.227  -0.160  24.215  0.00  0.00    +0.039 C 
ATOM      7  C   UNL     1      -3.967   0.039  24.973  0.00  0.00    +0.076 C 
ATOM      8  C   UNL     1      -3.686  -0.550  25.479  0.00  0.00    +0.039 C 
ATOM      9  C   UNL     1      -3.665  -1.335  25.227  0.00  0.00    +0.095 C 
ENDBRANCH  10   7
ENDBRANCH  11  10
BRANCH  11  12
ATOM     12  C   UNL     1      -4.048   1.743  24.508  0.00  0.00    +0.070 C 
BRANCH  12  13
ATOM     13  C   UNL     1      -3.685   2.416  24.814  0.00  0.00    +0.102 A 
ATOM     14  N   UNL     1      -4.026   2.960  25.332  0.00  0.00    -0.081 NA
ATOM     15  O   UNL     1      -3.467   3.545  25.493  0.00  0.00    -0.354 OA
ATOM     16  C   UNL     1      -2.780   3.364  25.074  0.00  0.00    +0.177 A 
ATOM     17  C   UNL     1      -2.914   2.666  24.655  0.00  0.00    +0.058 A 
BRANCH  16  18
ATOM     18  C   UNL     1      -2.081   3.802  25.075  0.00  0.00    +0.040 A 
ATOM     19  C   UNL     1      -2.112   4.626  25.082  0.00  0.00    +0.045 A 
ATOM     20  C   UNL     1      -1.413   5.065  25.083  0.00  0.00    +0.196 A 
ATOM     21  O   UNL     1      -1.443   5.889  25.089  0.00  0.00    -0.287 OA
ATOM     22  C   UNL     1      -0.684   4.679  25.077  0.00  0.00    +0.042 A 
ATOM     23  C   UNL     1      -0.653   3.854  25.070  0.00  0.00    +0.003 A 
ATOM     24  C   UNL     1      -1.352   3.416  25.069  0.00  0.00    +0.003 A 
ENDBRANCH  16  18
ENDBRANCH  12  13
ENDBRANCH  11  12
TORSDOF 5
ENDMDL
MODEL 3
REMARK VINA RESULT:     -11.1      1.955      5.891
REMARK  Name = 
REMARK  5 active torsions:
REMARK  status: ('A' for Active; 'I' for Inactive)
REMARK    1  A    between atoms: C_7  and  N_10
REMARK    2  A    between atoms: N_10  and  C_11
REMARK    3  A    between atoms: C_11  and  C_12
REMARK    4  A    between atoms: C_12  and  C_13
REMARK    5  A    between atoms: C_16  and  C_18
REMARK                            x       y       z     vdW  Elec       q    Type
REMARK                         _______ _______ _______ _____ _____    ______ ____
ROOT
ATOM     11  C   UNL     1      -1.162   0.100  24.709  0.00  0.00    +0.119 C 
ATOM     25  C   UNL     1      -0.673  -0.562  24.770  0.00  0.00    +0.161 C 
ATOM     26  O   UNL     1      -0.143  -0.220  24.239  0.00  0.00    -0.351 OA
ATOM     27  C   UNL     1      -0.632   0.443  24.178  0.00  0.00    +0.161 C 
ENDROOT
BRANCH  11  10
ATOM     10  N   UNL     1      -1.692  -0.242  25.241  0.00  0.00    -0.217 NA
BRANCH  10   7
ATOM      1  C   UNL     1      -4.443  -2.395  23.796  0.00  0.00    +0.095 C 
ATOM      2  C   UNL     1      -3.766  -2.597  24.222  0.00  0.00    +0.226 C 
ATOM      3  O   UNL     1      -3.607  -3.388  24.392  0.00  0.00    -0.275 OA
ATOM      4  N   UNL     1      -3.248  -2.008  24.476  0.00  0.00    -0.279 N 
ATOM      5  C   UNL     1      -2.571  -2.211  24.902  0.00  0.00    +0.095 C 
ATOM      6  C   UNL     1      -2.052  -1.622  25.157  0.00  0.00    +0.039 C 
ATOM      7  C   UNL     1      -2.210  -0.830  24.986  0.00  0.00    +0.076 C 
ATOM      8  C   UNL     1      -2.888  -0.628  24.561  0.00  0.00    +0.039 C 
ATOM      9  C   UNL     1      -3.406  -1.217  24.306  0.00  0.00    +0.095 C 
ENDBRANCH  10   7
ENDBRANCH  11  10
BRANCH  11  12
ATOM     12  C   UNL     1      -1.650   0.763  24.648  0.00  0.00    +0.070 C 
BRANCH  12  13
ATOM     13  C   UNL     1      -1.435   1.469  25.015  0.00  0.00    +0.102 A 
ATOM     14  N   UNL     1      -0.918   1.546  25.653  0.00  0.00    -0.081 NA
ATOM     15  O   UNL     1      -0.861   2.348  25.840  0.00  0.00    -0.354 OA
ATOM     16  C   UNL     1      -1.344   2.767  25.318  0.00  0.00    +0.177 A 
ATOM     17  C   UNL     1      -1.698   2.223  24.808  0.00  0.00    +0.058 A 
BRANCH  16  18
ATOM     18  C   UNL     1      -1.453   3.584  25.307  0.00  0.00    +0.040 A 
ATOM     19  C   UNL     1      -0.873   4.073  24.982  0.00  0.00    +0.045 A 
ATOM     20  C   UNL     1      -0.982   4.890  24.971  0.00  0.00    +0.196 A 
ATOM     21  O   UNL     1      -0.402   5.379  24.646  0.00  0.00    -0.287 OA
ATOM     22  C   UNL     1      -1.671   5.219  25.284  0.00  0.00    +0.042 A 
ATOM     23  C   UNL     1      -2.250   4.730  25.609  0.00  0.00    +0.003 A 
ATOM     24  C   UNL     1      -2.141   3.913  25.620  0.00  0.00    +0.003 A 
ENDBRANCH  16  18
ENDBRANCH  12  13
ENDBRANCH  11  12
TORSDOF 5
ENDMDL
MODEL 4
REMARK VINA RESULT:     -10.7      1.778      2.254
REMARK  Name = 
REMARK  5 active torsions:
REMARK  status: ('A' for Active; 'I' for Inactive)
REMARK    1  A    between atoms: C_7  and  N_10
REMARK    2  A    between atoms: N_10  and  C_11
REMARK    3  A    between atoms: C_11  and  C_12
REMARK    4  A    between atoms: C_12  and  C_13
REMARK    5  A    between atoms: C_16  and  C_18
REMARK                            x       y       z     vdW  Elec       q    Type
REMARK                         _______ _______ _______ _____ _____    ______ ____
ROOT
ATOM     11  C   UNL     1      -0.931   1.318  24.852  0.00  0.00    +0.119 C 
ATOM     25  C   UNL     1      -0.125   1.477  24.926  0.00  0.00    +0.161 C 
ATOM     26  O   UNL     1       0.031   0.987  24.280  0.00  0.00    -0.351 OA
ATOM     27  C   UNL     1      -0.776   0.827  24.207  0.00  0.00    +0.161 C 
ENDROOT
BRANCH  11  10
ATOM     10  N   UNL     1      -1.087   1.808  25.497  0.00  0.00    -0.217 NA
BRANCH  10   7
ATOM      1  C   UNL     1      -1.990   5.468  25.212  0.00  0.00    +0.095 C 
ATOM      2  C   UNL     1      -1.275   5.076  25.084  0.00  0.00    +0.226 C 
ATOM      3  O   UNL     1      -0.608   5.501  24.853  0.00  0.00    -0.275 OA
ATOM      4  N   UNL     1      -1.228   4.259  25.187  0.00  0.00    -0.279 N 
ATOM      5  C   UNL     1      -0.513   3.868  25.059  0.00  0.00    +0.095 C 
ATOM      6  C   UNL     1      -0.466   3.050  25.163  0.00  0.00    +0.039 C 
ATOM      7  C   UNL     1      -1.134   2.624  25.394  0.00  0.00    +0.076 C 
ATOM      8  C   UNL     1      -1.848   3.016  25.522  0.00  0.00    +0.039 C 
ATOM      9  C   UNL     1      -1.896   3.833  25.419  0.00  0.00    +0.095 C 
ENDBRANCH  10   7
ENDBRANCH  11  10
BRANCH  11  12
ATOM     12  C   UNL     1      -1.738   1.158  24.779  0.00  0.00    +0.070 C 
BRANCH  12  13
ATOM     13  C   UNL     1      -2.024   0.402  24.937  0.00  0.00    +0.102 A 
ATOM     14  N   UNL     1      -1.809  -0.076  25.574  0.00  0.00    -0.081 NA
ATOM     15  O   UNL     1      -2.228  -0.784  25.516  0.00  0.00    -0.354 OA
ATOM     16  C   UNL     1      -2.703  -0.745  24.842  0.00  0.00    +0.177 A 
ATOM     17  C   UNL     1      -2.576  -0.013  24.484  0.00  0.00    +0.058 A 
BRANCH  16  18
ATOM     18  C   UNL     1      -3.213  -1.334  24.573  0.00  0.00    +0.040 A 
ATOM     19  C   UNL     1      -3.067  -2.124  24.762  0.00  0.00    +0.045 A 
ATOM     20  C   UNL     1      -3.577  -2.714  24.493  0.00  0.00    +0.196 A 
ATOM     21  O   UNL     1      -3.431  -3.503  24.682  0.00  0.00    -0.287 OA
ATOM     22  C   UNL     1      -4.234  -2.514  24.035  0.00  0.00    +0.042 A 
ATOM     23  C   UNL     1      -4.380  -1.724  23.846  0.00  0.00    +0.003 A 
ATOM     24  C   UNL     1      -3.869  -1.135  24.115  0.00  0.00    +0.003 A 
ENDBRANCH  16  18
ENDBRANCH  12  13
ENDBRANCH  11  12
TORSDOF 5
ENDMDL
