MODEL 1
REMARK VINA RESULT:     -11.0      0.000      0.000
REMARK  Name = 
REMARK  3 active torsions:
REMARK  status: ('A' for Active; 'I' for Inactive)
REMARK    1  A    between atoms: C_4  and  O_5
REMARK    2  A    between atoms: O_5  and  C_6
REMARK    3  A    between atoms: C_13  and  C_15
REMARK                            x       y       z     vdW  Elec       q    Type
REMARK                         _______ _______ _______ _____ _____    ______ ____
ROOT
ATOM      6  C   UNL     1      -2.941   0.798  24.715  0.00  0.00    +0.217 C 
ATOM      7  C   UNL     1      -2.231   0.635  24.330  0.00  0.00    +0.187 C 
ATOM      8  O   UNL     1      -1.846   1.078  23.751  0.00  0.00    -0.348 OA
ATOM      9  C   UNL     1      -2.077   1.794  23.413  0.00  0.00    +0.164 C 
ATOM     10  C   UNL     1      -2.750   2.245  23.571  0.00  0.00    +0.126 C 
ATOM     11  N   UNL     1      -3.358   2.089  24.107  0.00  0.00    -0.273 N 
ATOM     12  C   UNL     1      -3.443   1.445  24.615  0.00  0.00    +0.140 C 
ATOM     13  C   UNL     1      -3.960   2.651  24.137  0.00  0.00    +0.225 C 
ATOM     14  O   UNL     1      -3.928   3.317  23.650  0.00  0.00    -0.275 OA
ENDROOT
BRANCH  13  15
ATOM     15  C   UNL     1      -4.595   2.549  24.654  0.00  0.00    +0.082 C 
ATOM     16  C   UNL     1      -5.255   2.116  24.416  0.00  0.00    +0.041 C 
ATOM     17  C   UNL     1      -5.890   2.013  24.932  0.00  0.00    +0.143 C 
ATOM     18  O   UNL     1      -5.865   2.344  25.688  0.00  0.00    -0.354 OA
ATOM     19  C   UNL     1      -5.204   2.777  25.926  0.00  0.00    +0.143 C 
ATOM     20  C   UNL     1      -4.570   2.880  25.409  0.00  0.00    +0.041 C 
ENDBRANCH  13  15
BRANCH   6   5
ATOM      5  O   UNL     1      -3.183   0.241  25.273  0.00  0.00    -0.460 OA
BRANCH   5   4
ATOM      1  C   UNL     1      -4.425  -1.914  23.865  0.00  0.00    +0.052 C 
ATOM      2  C   UNL     1      -3.833  -1.636  24.367  0.00  0.00    +0.062 A 
ATOM      3  N   UNL     1      -3.804  -0.837  24.569  0.00  0.00    -0.216 NA
ATOM      4  C   UNL     1      -3.212  -0.559  25.071  0.00  0.00    +0.225 A 
ATOM     21  C   UNL     1      -2.648  -1.080  25.372  0.00  0.00    +0.058 A 
ATOM     22  C   UNL     1      -2.676  -1.881  25.170  0.00  0.00    +0.006 A 
ATOM     23  C   UNL     1      -3.268  -2.158  24.668  0.00  0.00    +0.015 A 
ENDBRANCH   5   4
ENDBRANCH   6   5
TORSDOF 3
ENDMDL
MODEL 2
REMARK VINA RESULT:     -10.7      1.733      3.038
REMARK  Name = 
REMARK  3 active torsions:
REMARK  status: ('A' for Active; 'I' for Inactive)
REMARK    1  A    between atoms: C_4  and  O_5
REMARK    2  A    between atoms: O_5  and  C_6
REMARK    3  A    between atoms: C_13  and  C_15
REMARK                            x       y       z     vdW  Elec       q    Type
REMARK                         _______ _______ _______ _____ _____    ______ ____
ROOT
ATOM      6  C   UNL     1      -3.292   1.806  24.513  0.00  0.00    +0.217 C 
ATOM      7  C   UNL     1      -4.111   1.892  24.490  0.00  0.00    +0.187 C 
ATOM      8  O   UNL     1      -4.571   2.512  24.780  0.00  0.00    -0.348 OA
ATOM      9  C   UNL     1      -4.325   3.199  25.165  0.00  0.00    +0.164 C 
ATOM     10  C   UNL     1      -3.558   3.436  25.355  0.00  0.00    +0.126 C 
ATOM     11  N   UNL     1      -2.848   3.044  25.206  0.00  0.00    -0.273 N 
ATOM     12  C   UNL     1      -2.729   2.318  24.831  0.00  0.00    +0.140 C 
ATOM     13  C   UNL     1      -2.165   3.428  25.466  0.00  0.00    +0.225 C 
ATOM     14  O   UNL     1      -2.223   4.157  25.848  0.00  0.00    -0.275 OA
ENDROOT
BRANCH  13  15
ATOM     15  C   UNL     1      -1.426   3.083  25.345  0.00  0.00    +0.082 C 
ATOM     16  C   UNL     1      -1.074   2.639  25.945  0.00  0.00    +0.041 C 
ATOM     17  C   UNL     1      -0.335   2.295  25.824  0.00  0.00    +0.143 C 
ATOM     18  O   UNL     1       0.053   2.393  25.102  0.00  0.00    -0.354 OA
ATOM     19  C   UNL     1      -0.299   2.837  24.502  0.00  0.00    +0.143 C 
ATOM     20  C   UNL     1      -1.038   3.181  24.624  0.00  0.00    +0.041 C 
ENDBRANCH  13  15
BRANCH   6   5
ATOM      5  O   UNL     1      -2.994   1.116  24.172  0.00  0.00    -0.460 OA
BRANCH   5   4
ATOM      1  C   UNL     1      -3.002  -1.091  25.988  0.00  0.00    +0.052 C 
ATOM      2  C   UNL     1      -3.295  -0.722  25.310  0.00  0.00    +0.062 A 
ATOM      3  N   UNL     1      -2.999   0.012  25.079  0.00  0.00    -0.216 NA
ATOM      4  C   UNL     1      -3.291   0.381  24.403  0.00  0.00    +0.225 A 
ATOM     21  C   UNL     1      -3.880   0.016  23.956  0.00  0.00    +0.058 A 
ATOM     22  C   UNL     1      -4.177  -0.719  24.187  0.00  0.00    +0.006 A 
ATOM     23  C   UNL     1      -3.885  -1.088  24.863  0.00  0.00    +0.015 A 
ENDBRANCH   5   4
ENDBRANCH   6   5
TORSDOF 3
ENDMDL
MODEL 3
REMARK VINA RESULT:     -10.5      1.334      3.843
REMARK  Name = 
REMARK  3 active torsions:
REMARK  status: ('A' for Active; 'I' for Inactive)
REMARK    1  A    between atoms: C_4  and  O_5
REMARK    2  A    between atoms: O_5  and  C_6
REMARK    3  A    between atoms: C_13  and  C_15
REMARK                            x       y       z     vdW  Elec       q    Type
REMARK                         _______ _______ _______ _____ _____    ______ ____
ROOT
ATOM      6  C   UNL     1      -2.378   1.035  24.400  0.00  0.00    +0.217 C 
ATOM      7  C   UNL     1      -1.905   1.709  24.441  0.00  0.00    +0.187 C 
ATOM      8  O   UNL     1      -1.199   1.818  24.852  0.00  0.00    -0.348 OA
ATOM      9  C   UNL     1      -0.790   1.278  25.324  0.00  0.00    +0.164 C 
ATOM     10  C   UNL     1      -0.987   0.497  25.502  0.00  0.00    +0.126 C 
ATOM     11  N   UNL     1      -1.642   0.063  25.251  0.00  0.00    -0.273 N 
ATOM     12  C   UNL     1      -2.261   0.302  24.761  0.00  0.00    +0.140 C 
ATOM     13  C   UNL     1      -1.684  -0.714  25.527  0.00  0.00    +0.225 C 
ATOM     14  O   UNL     1      -1.091  -1.008  26.021  0.00  0.00    -0.275 OA
ENDROOT
BRANCH  13  15
ATOM     15  C   UNL     1      -2.316  -1.196  25.309  0.00  0.00    +0.082 C 
ATOM     16  C   UNL     1      -2.986  -1.239  25.788  0.00  0.00    +0.041 C 
ATOM     17  C   UNL     1      -3.619  -1.721  25.570  0.00  0.00    +0.143 C 
ATOM     18  O   UNL     1      -3.582  -2.160  24.873  0.00  0.00    -0.354 OA
ATOM     19  C   UNL     1      -2.912  -2.117  24.394  0.00  0.00    +0.143 C 
ATOM     20  C   UNL     1      -2.279  -1.635  24.612  0.00  0.00    +0.041 C 
ENDBRANCH  13  15
BRANCH   6   5
ATOM      5  O   UNL     1      -3.058   1.101  23.938  0.00  0.00    -0.460 OA
BRANCH   5   4
ATOM      1  C   UNL     1      -5.429   1.893  25.323  0.00  0.00    +0.052 C 
ATOM      2  C   UNL     1      -4.809   2.071  24.809  0.00  0.00    +0.062 A 
ATOM      3  N   UNL     1      -4.244   1.497  24.630  0.00  0.00    -0.216 NA
ATOM      4  C   UNL     1      -3.624   1.675  24.117  0.00  0.00    +0.225 A 
ATOM     21  C   UNL     1      -3.568   2.427  23.781  0.00  0.00    +0.058 A 
ATOM     22  C   UNL     1      -4.134   3.001  23.960  0.00  0.00    +0.006 A 
ATOM     23  C   UNL     1      -4.753   2.823  24.473  0.00  0.00    +0.015 A 
ENDBRANCH   5   4
ENDBRANCH   6   5
TORSDOF 3
ENDMDL
MODEL 4
REMARK VINA RESULT:     -10.3      1.409      4.186
REMARK  Name = 
REMARK  3 active torsions:
REMARK  status: ('A' for Active; 'I' for Inactive)
REMARK    1  A    between atoms: C_4  and  O_5
REMARK    2  A    between atoms: O_5  and  C_6
REMARK    3  A    between atoms: C_13  and  C_15
REMARK                            x       y       z     vdW  Elec       q    Type
REMARK                         _______ _______ _______ _____ _____    ______ ____
ROOT
ATOM      6  C   UNL     1      -3.421   0.517  24.756  0.00  0.00    +0.217 C 
ATOM      7  C   UNL     1      -4.078   0.062  24.960  0.00  0.00    +0.187 C 
ATOM      8  O   UNL     1      -4.102  -0.647  25.381  0.00  0.00    -0.348 OA
ATOM      9  C   UNL     1      -3.475  -1.076  25.702  0.00  0.00    +0.164 C 
ATOM     10  C   UNL     1      -2.669  -0.902  25.683  0.00  0.00    +0.126 C 
ATOM     11  N   UNL     1      -2.291  -0.256  25.335  0.00  0.00    -0.273 N 
ATOM     12  C   UNL     1      -2.625   0.375  24.923  0.00  0.00    +0.140 C 
ATOM     13  C   UNL     1      -1.470  -0.239  25.411  0.00  0.00    +0.225 C 
ATOM     14  O   UNL     1      -1.080  -0.845  25.814  0.00  0.00    -0.275 OA
ENDROOT
BRANCH  13  15
ATOM     15  C   UNL     1      -1.038   0.383  25.084  0.00  0.00    +0.082 C 
ATOM     16  C   UNL     1      -0.833   1.033  25.549  0.00  0.00    +0.041 C 
ATOM     17  C   UNL     1      -0.401   1.655  25.222  0.00  0.00    +0.143 C 
ATOM     18  O   UNL     1      -0.174   1.628  24.430  0.00  0.00    -0.354 OA
ATOM     19  C   UNL     1      -0.380   0.978  23.964  0.00  0.00    +0.143 C 
ATOM     20  C   UNL     1      -0.811   0.356  24.291  0.00  0.00    +0.041 C 
ENDBRANCH  13  15
BRANCH   6   5
ATOM      5  O   UNL     1      -3.580   1.204  24.328  0.00  0.00    -0.460 OA
BRANCH   5   4
ATOM      1  C   UNL     1      -3.877   3.673  25.737  0.00  0.00    +0.052 C 
ATOM      2  C   UNL     1      -4.213   3.023  25.356  0.00  0.00    +0.062 A 
ATOM      3  N   UNL     1      -3.729   2.438  25.032  0.00  0.00    -0.216 NA
ATOM      4  C   UNL     1      -4.064   1.789  24.653  0.00  0.00    +0.225 A 
ATOM     21  C   UNL     1      -4.885   1.722  24.596  0.00  0.00    +0.058 A 
ATOM     22  C   UNL     1      -5.369   2.306  24.920  0.00  0.00    +0.006 A 
ATOM     23  C   UNL     1      -5.034   2.956  25.300  0.00  0.00    +0.015 A 
ENDBRANCH   5   4
ENDBRANCH   6   5
TORSDOF 3
ENDMDL
MODEL 5
REMARK VINA RESULT:     -10.3      2.172      3.221
REMARK  Name = 
REMARK  3 active torsions:
REMARK  status: ('A' for Active; 'I' for Inactive)
REMARK    1  A    between atoms: C_4  and  O_5
REMARK    2  A    between atoms: O_5  and  C_6
REMARK    3  A    between atoms: C_13  and  C_15
REMARK                            x       y       z     vdW  Elec       q    Type
REMARK                         _______ _______ _______ _____ _____    ______ ____
ROOT
ATOM      6  C   UNL     1      -1.118  -0.124  25.063  0.00  0.00    +0.217 C 
ATOM      7  C   UNL     1      -0.947  -0.825  24.664  0.00  0.00    +0.187 C 
ATOM      8  O   UNL     1      -0.397  -0.954  24.064  0.00  0.00    -0.348 OA
ATOM      9  C   UNL     1       0.119  -0.414  23.714  0.00  0.00    +0.164 C 
ATOM     10  C   UNL     1       0.213   0.389  23.879  0.00  0.00    +0.126 C 
ATOM     11  N   UNL     1      -0.188   0.850  24.434  0.00  0.00    -0.273 N 
ATOM     12  C   UNL     1      -0.780   0.622  24.961  0.00  0.00    +0.140 C 
ATOM     13  C   UNL     1       0.033   1.644  24.466  0.00  0.00    +0.225 C 
ATOM     14  O   UNL     1       0.621   1.929  23.961  0.00  0.00    -0.275 OA
ENDROOT
BRANCH  13  15
ATOM     15  C   UNL     1      -0.333   2.153  25.001  0.00  0.00    +0.082 C 
ATOM     16  C   UNL     1      -0.972   2.617  24.760  0.00  0.00    +0.041 C 
ATOM     17  C   UNL     1      -1.338   3.125  25.296  0.00  0.00    +0.143 C 
ATOM     18  O   UNL     1      -1.066   3.171  26.073  0.00  0.00    -0.354 OA
ATOM     19  C   UNL     1      -0.428   2.708  26.315  0.00  0.00    +0.143 C 
ATOM     20  C   UNL     1      -0.062   2.199  25.779  0.00  0.00    +0.041 C 
ENDBRANCH  13  15
BRANCH   6   5
ATOM      5  O   UNL     1      -1.704  -0.174  25.641  0.00  0.00    -0.460 OA
BRANCH   5   4
ATOM      1  C   UNL     1      -4.330   0.316  24.624  0.00  0.00    +0.052 C 
ATOM      2  C   UNL     1      -3.769  -0.204  24.934  0.00  0.00    +0.062 A 
ATOM      3  N   UNL     1      -3.017   0.070  25.133  0.00  0.00    -0.216 NA
ATOM      4  C   UNL     1      -2.457  -0.449  25.443  0.00  0.00    +0.225 A 
ATOM     21  C   UNL     1      -2.648  -1.244  25.554  0.00  0.00    +0.058 A 
ATOM     22  C   UNL     1      -3.400  -1.519  25.356  0.00  0.00    +0.006 A 
ATOM     23  C   UNL     1      -3.960  -1.000  25.046  0.00  0.00    +0.015 A 
ENDBRANCH   5   4
ENDBRANCH   6   5
TORSDOF 3
ENDMDL
