MODEL 1
REMARK VINA RESULT:     -13.1      0.000      0.000
REMARK  Name = 
REMARK  2 active torsions:
REMARK  status: ('A' for Active; 'I' for Inactive)
REMARK    1  A    between atoms: N_4  and  C_14
REMARK    2  A    between atoms: C_7  and  C_8
REMARK                            x       y       z     vdW  Elec       q    Type
REMARK                         _______ _______ _______ _____ _____    ______ ____
ROOT
ATOM      1  C   UNL     1      -5.546   1.985  25.252  0.00  0.00    +0.054 C 
ATOM      2  C   UNL     1      -4.937   1.459  25.066  0.00  0.00    +0.077 A 
ATOM      3  N   UNL     1      -4.965   0.639  25.140  0.00  0.00    -0.170 NA
ATOM      4  N   UNL     1      -4.239   0.335  24.893  0.00  0.00    -0.234 N 
ATOM      5  C   UNL     1      -3.762   0.968  24.666  0.00  0.00    +0.058 A 
ATOM      6  C   UNL     1      -2.988   0.915  24.382  0.00  0.00    +0.052 C 
ATOM      7  C   UNL     1      -4.193   1.664  24.772  0.00  0.00    +0.010 A 
ENDROOT
BRANCH   4  14
ATOM     14  C   UNL     1      -4.027  -0.463  24.877  0.00  0.00    +0.083 A 
ATOM     15  C   UNL     1      -3.595  -0.787  25.500  0.00  0.00    +0.019 A 
ATOM     16  C   UNL     1      -3.383  -1.584  25.484  0.00  0.00    -0.002 A 
ATOM     17  C   UNL     1      -3.602  -2.056  24.844  0.00  0.00    -0.011 A 
ATOM     18  C   UNL     1      -3.390  -2.854  24.828  0.00  0.00    +0.032 C 
ATOM     19  C   UNL     1      -4.034  -1.732  24.220  0.00  0.00    +0.055 A 
ATOM     20 CL   UNL     1      -4.253  -2.203  23.581  0.00  0.00    -0.083 Cl
ATOM     21  C   UNL     1      -4.246  -0.934  24.237  0.00  0.00    +0.030 A 
ENDBRANCH   4  14
BRANCH   7   8
ATOM      8  C   UNL     1      -3.927   2.428  24.613  0.00  0.00    +0.048 C 
ATOM      9  C   UNL     1      -3.496   2.909  25.126  0.00  0.00    +0.032 C 
ATOM     10  C   UNL     1      -3.348   3.623  24.742  0.00  0.00    +0.114 C 
ATOM     11  N   UNL     1      -2.933   4.265  25.053  0.00  0.00    -0.128 NA
ATOM     12  C   UNL     1      -3.687   3.584  23.990  0.00  0.00    -0.012 C 
ATOM     13  C   UNL     1      -4.044   2.846  23.911  0.00  0.00    -0.025 C 
ENDBRANCH   7   8
TORSDOF 2
ENDMDL
MODEL 2
REMARK VINA RESULT:     -11.4      1.827      4.512
REMARK  Name = 
REMARK  2 active torsions:
REMARK  status: ('A' for Active; 'I' for Inactive)
REMARK    1  A    between atoms: N_4  and  C_14
REMARK    2  A    between atoms: C_7  and  C_8
REMARK                            x       y       z     vdW  Elec       q    Type
REMARK                         _______ _______ _______ _____ _____    ______ ____
ROOT
ATOM      1  C   UNL     1      -1.498  -0.490  24.654  0.00  0.00    +0.054 C 
ATOM      2  C   UNL     1      -2.175  -0.018  24.637  0.00  0.00    +0.077 A 
ATOM      3  N   UNL     1      -2.194   0.799  24.536  0.00  0.00    -0.170 NA
ATOM      4  N   UNL     1      -2.983   1.041  24.554  0.00  0.00    -0.234 N 
ATOM      5  C   UNL     1      -3.451   0.371  24.666  0.00  0.00    +0.058 A 
ATOM      6  C   UNL     1      -4.275   0.359  24.718  0.00  0.00    +0.052 C 
ATOM      7  C   UNL     1      -2.952  -0.284  24.717  0.00  0.00    +0.010 A 
ENDROOT
BRANCH   4  14
ATOM     14  C   UNL     1      -3.255   1.816  24.474  0.00  0.00    +0.083 A 
ATOM     15  C   UNL     1      -3.535   2.080  23.745  0.00  0.00    +0.019 A 
ATOM     16  C   UNL     1      -3.807   2.855  23.665  0.00  0.00    -0.002 A 
ATOM     17  C   UNL     1      -3.800   3.364  24.313  0.00  0.00    -0.011 A 
ATOM     18  C   UNL     1      -4.072   4.139  24.233  0.00  0.00    +0.032 C 
ATOM     19  C   UNL     1      -3.520   3.099  25.043  0.00  0.00    +0.055 A 
ATOM     20 CL   UNL     1      -3.512   3.608  25.691  0.00  0.00    -0.083 Cl
ATOM     21  C   UNL     1      -3.247   2.324  25.123  0.00  0.00    +0.030 A 
ENDBRANCH   4  14
BRANCH   7   8
ATOM      8  C   UNL     1      -3.190  -1.066  24.829  0.00  0.00    +0.048 C 
ATOM      9  C   UNL     1      -3.392  -1.602  24.237  0.00  0.00    +0.032 C 
ATOM     10  C   UNL     1      -3.594  -2.316  24.596  0.00  0.00    +0.114 C 
ATOM     11  N   UNL     1      -3.832  -3.005  24.209  0.00  0.00    -0.128 NA
ATOM     12  C   UNL     1      -3.517  -2.221  25.412  0.00  0.00    -0.012 C 
ATOM     13  C   UNL     1      -3.267  -1.449  25.556  0.00  0.00    -0.025 C 
ENDBRANCH   7   8
TORSDOF 2
ENDMDL
