MODEL 1
REMARK VINA RESULT:     -12.2      0.000      0.000
REMARK  Name = 
REMARK  4 active torsions:
REMARK  status: ('A' for Active; 'I' for Inactive)
REMARK    1  A    between atoms: O_2  and  C_3
REMARK    2  A    between atoms: C_8  and  C_9
REMARK    3  A    between atoms: C_9  and  N_10
REMARK    4  A    between atoms: C_13  and  C_15
REMARK                            x       y       z     vdW  Elec       q    Type
REMARK                         _______ _______ _______ _____ _____    ______ ____
ROOT
ATOM     10  N   UNL     1      -3.739   2.218  24.382  0.00  0.00    -0.268 NA
ATOM     11  C   UNL     1      -4.545   2.158  24.546  0.00  0.00    +0.073 C 
ATOM     12  C   UNL     1      -4.731   1.358  24.622  0.00  0.00    +0.028 C 
ATOM     13  C   UNL     1      -4.039   0.923  24.505  0.00  0.00    +0.094 C 
ATOM     14  C   UNL     1      -3.426   1.455  24.357  0.00  0.00    +0.082 C 
ENDROOT
BRANCH  13  15
ATOM     15  C   UNL     1      -3.973   0.101  24.531  0.00  0.00    +0.207 A 
ATOM     16  N   UNL     1      -3.679  -0.342  25.162  0.00  0.00    -0.212 NA
ATOM     17  C   UNL     1      -3.713  -1.138  24.952  0.00  0.00    +0.121 A 
ATOM     18  C   UNL     1      -4.028  -1.188  24.191  0.00  0.00    +0.165 A 
ATOM     19  O   UNL     1      -4.189  -0.423  23.931  0.00  0.00    -0.438 OA
ATOM     20  C   UNL     1      -4.128  -1.925  23.834  0.00  0.00    +0.041 A 
ATOM     21  C   UNL     1      -3.913  -2.612  24.237  0.00  0.00    +0.033 A 
ATOM     22  C   UNL     1      -3.598  -2.562  24.998  0.00  0.00    +0.142 A 
ATOM     23  F   UNL     1      -3.383  -3.248  25.402  0.00  0.00    -0.204 F 
ATOM     24  C   UNL     1      -3.498  -1.825  25.356  0.00  0.00    +0.052 A 
ENDBRANCH  13  15
BRANCH  10   9
ATOM      9  C   UNL     1      -3.318   2.918  24.265  0.00  0.00    +0.102 C 
BRANCH   9   8
ATOM      3  C   UNL     1      -2.289   3.607  24.976  0.00  0.00    +0.136 A 
ATOM      4  C   UNL     1      -2.046   4.057  25.625  0.00  0.00    +0.037 A 
ATOM      5  C   UNL     1      -2.590   4.266  26.208  0.00  0.00    +0.003 A 
ATOM      6  C   UNL     1      -3.377   4.026  26.144  0.00  0.00    -0.000 A 
ATOM      7  C   UNL     1      -3.620   3.576  25.496  0.00  0.00    +0.000 A 
ATOM      8  C   UNL     1      -3.075   3.367  24.912  0.00  0.00    +0.028 A 
BRANCH   3   2
ATOM      1  C   UNL     1      -0.955   3.630  24.463  0.00  0.00    +0.252 C 
ATOM      2  O   UNL     1      -1.745   3.398  24.393  0.00  0.00    -0.472 OA
ENDBRANCH   3   2
ENDBRANCH   9   8
ENDBRANCH  10   9
TORSDOF 4
ENDMDL
MODEL 2
REMARK VINA RESULT:     -11.9      2.031      5.142
REMARK  Name = 
REMARK  4 active torsions:
REMARK  status: ('A' for Active; 'I' for Inactive)
REMARK    1  A    between atoms: O_2  and  C_3
REMARK    2  A    between atoms: C_8  and  C_9
REMARK    3  A    between atoms: C_9  and  N_10
REMARK    4  A    between atoms: C_13  and  C_15
REMARK                            x       y       z     vdW  Elec       q    Type
REMARK                         _______ _______ _______ _____ _____    ______ ____
ROOT
ATOM     10  N   UNL     1      -3.953   0.679  24.511  0.00  0.00    -0.268 NA
ATOM     11  C   UNL     1      -4.550   1.129  24.859  0.00  0.00    +0.073 C 
ATOM     12  C   UNL     1      -4.240   1.873  25.036  0.00  0.00    +0.028 C 
ATOM     13  C   UNL     1      -3.450   1.882  24.797  0.00  0.00    +0.094 C 
ATOM     14  C   UNL     1      -3.273   1.145  24.473  0.00  0.00    +0.082 C 
ENDROOT
BRANCH  13  15
ATOM     15  C   UNL     1      -2.930   2.518  24.869  0.00  0.00    +0.207 A 
ATOM     16  N   UNL     1      -3.134   3.291  25.072  0.00  0.00    -0.212 NA
ATOM     17  C   UNL     1      -2.444   3.743  25.080  0.00  0.00    +0.121 A 
ATOM     18  C   UNL     1      -1.813   3.250  24.883  0.00  0.00    +0.165 A 
ATOM     19  O   UNL     1      -2.113   2.493  24.752  0.00  0.00    -0.438 OA
ATOM     20  C   UNL     1      -1.047   3.554  24.847  0.00  0.00    +0.041 A 
ATOM     21  C   UNL     1      -0.912   4.351  25.009  0.00  0.00    +0.033 A 
ATOM     22  C   UNL     1      -1.542   4.845  25.206  0.00  0.00    +0.142 A 
ATOM     23  F   UNL     1      -1.408   5.642  25.368  0.00  0.00    -0.204 F 
ATOM     24  C   UNL     1      -2.309   4.541  25.242  0.00  0.00    +0.052 A 
ENDBRANCH  13  15
BRANCH  10   9
ATOM      9  C   UNL     1      -4.022  -0.099  24.247  0.00  0.00    +0.102 C 
BRANCH   9   8
ATOM      3  C   UNL     1      -3.859  -1.501  24.472  0.00  0.00    +0.136 A 
ATOM      4  C   UNL     1      -3.632  -2.124  24.964  0.00  0.00    +0.037 A 
ATOM      5  C   UNL     1      -3.340  -1.969  25.719  0.00  0.00    +0.003 A 
ATOM      6  C   UNL     1      -3.275  -1.190  25.984  0.00  0.00    -0.000 A 
ATOM      7  C   UNL     1      -3.502  -0.567  25.494  0.00  0.00    +0.000 A 
ATOM      8  C   UNL     1      -3.795  -0.723  24.738  0.00  0.00    +0.028 A 
BRANCH   3   2
ATOM      1  C   UNL     1      -4.297  -2.435  23.483  0.00  0.00    +0.252 C 
ATOM      2  O   UNL     1      -4.151  -1.657  23.717  0.00  0.00    -0.472 OA
ENDBRANCH   3   2
ENDBRANCH   9   8
ENDBRANCH  10   9
TORSDOF 4
ENDMDL
