MODEL 1
REMARK VINA RESULT:     -13.4      0.000      0.000
REMARK  Name = 
REMARK  5 active torsions:
REMARK  status: ('A' for Active; 'I' for Inactive)
REMARK    1  A    between atoms: C_2  and  C_26
REMARK    2  A    between atoms: N_3  and  C_4
REMARK    3  A    between atoms: N_12  and  S_14
REMARK    4  A    between atoms: S_14  and  C_17
REMARK    5  A    between atoms: C_29  and  C_32
REMARK                            x       y       z     vdW  Elec       q    Type
REMARK                         _______ _______ _______ _____ _____    ______ ____
ROOT
ATOM      4  C   UNL     1      -3.794  -0.181  24.749  0.00  0.00    +0.130 A 
ATOM      5  C   UNL     1      -4.574  -0.542  24.277  0.00  0.00    +0.023 A 
ATOM      6  C   UNL     1      -4.442  -1.340  24.115  0.00  0.00    +0.014 A 
ATOM      7  C   UNL     1      -3.737  -1.697  24.349  0.00  0.00    +0.041 A 
ATOM      8  C   UNL     1      -3.306  -2.508  24.325  0.00  0.00    +0.056 C 
ATOM      9  C   UNL     1      -3.387  -3.168  24.100  0.00  0.00    +0.011 C 
ATOM     10  C   UNL     1      -2.822  -2.731  24.491  0.00  0.00    +0.041 C 
ATOM     11  C   UNL     1      -2.032  -2.377  24.966  0.00  0.00    +0.098 C 
ATOM     12  N   UNL     1      -2.276  -1.585  25.074  0.00  0.00    -0.155 NA
ATOM     13  C   UNL     1      -2.534  -2.181  24.783  0.00  0.00    +0.102 C 
ATOM     22  C   UNL     1      -3.265  -1.879  24.521  0.00  0.00    +0.110 C 
ATOM     23  N   UNL     1      -3.163  -1.257  24.745  0.00  0.00    -0.298 N 
ATOM     24  C   UNL     1      -3.294  -0.459  24.908  0.00  0.00    +0.276 A 
ATOM     25  O   UNL     1      -2.591   0.064  25.389  0.00  0.00    -0.266 OA
ENDROOT
BRANCH   4   3
ATOM      1  O   UNL     1      -3.845   1.630  23.500  0.00  0.00    -0.268 OA
ATOM      2  C   UNL     1      -4.173   1.403  24.288  0.00  0.00    +0.269 C 
ATOM      3  N   UNL     1      -4.178   0.704  24.817  0.00  0.00    -0.171 NA
BRANCH   2  26
ATOM     26  C   UNL     1      -4.602   2.022  24.638  0.00  0.00    +0.055 A 
ATOM     27  C   UNL     1      -5.362   1.992  24.956  0.00  0.00    +0.005 A 
ATOM     28  C   UNL     1      -5.699   2.671  25.283  0.00  0.00    +0.010 A 
ATOM     29  C   UNL     1      -5.275   3.379  25.290  0.00  0.00    +0.068 A 
ATOM     30  C   UNL     1      -4.515   3.408  24.971  0.00  0.00    +0.010 A 
ATOM     31  C   UNL     1      -4.178   2.730  24.645  0.00  0.00    +0.005 A 
BRANCH  29  32
ATOM     32  C   UNL     1      -5.612   4.058  25.616  0.00  0.00    +0.100 C 
ATOM     33  N   UNL     1      -5.949   4.737  25.942  0.00  0.00    -0.191 NA
ENDBRANCH  29  32
ENDBRANCH   2  26
ENDBRANCH   4   3
BRANCH  12  14
ATOM     14  S   UNL     1      -2.136  -0.805  25.360  0.00  0.00    +0.069 S 
ATOM     15  O   UNL     1      -2.033   0.002  25.668  0.00  0.00    -0.152 OA
ATOM     16  O   UNL     1      -2.952  -0.642  25.676  0.00  0.00    -0.152 OA
BRANCH  14  17
ATOM     17  C   UNL     1      -1.275  -0.987  25.022  0.00  0.00    +0.152 A 
ATOM     18  C   UNL     1      -0.968  -0.698  24.314  0.00  0.00    +0.027 A 
ATOM     19  C   UNL     1      -0.200  -0.990  24.230  0.00  0.00    +0.009 A 
ATOM     20  C   UNL     1      -0.034  -1.460  24.888  0.00  0.00    +0.037 A 
ATOM     21  S   UNL     1      -0.698  -1.458  25.378  0.00  0.00    -0.067 S 
ENDBRANCH  14  17
ENDBRANCH  12  14
TORSDOF 5
ENDMDL
MODEL 2
REMARK VINA RESULT:     -13.2      1.825      4.998
REMARK  Name = 
REMARK  5 active torsions:
REMARK  status: ('A' for Active; 'I' for Inactive)
REMARK    1  A    between atoms: C_2  and  C_26
REMARK    2  A    between atoms: N_3  and  C_4
REMARK    3  A    between atoms: N_12  and  S_14
REMARK    4  A    between atoms: S_14  and  C_17
REMARK    5  A    between atoms: C_29  and  C_32
REMARK                            x       y       z     vdW  Elec       q    Type
REMARK                         _______ _______ _______ _____ _____    ______ ____
ROOT
ATOM      4  C   UNL     1      -4.278   1.313  24.904  0.00  0.00    +0.130 A 
ATOM      5  C   UNL     1      -5.193   1.194  25.235  0.00  0.00    +0.023 A 
ATOM      6  C   UNL     1      -5.516   1.935  25.403  0.00  0.00    +0.014 A 
ATOM      7  C   UNL     1      -5.067   2.616  25.281  0.00  0.00    +0.041 A 
ATOM      8  C   UNL     1      -5.122   3.530  25.361  0.00  0.00    +0.056 C 
ATOM      9  C   UNL     1      -5.562   4.040  25.557  0.00  0.00    +0.011 C 
ATOM     10  C   UNL     1      -4.802   3.978  25.272  0.00  0.00    +0.041 C 
ATOM     11  C   UNL     1      -3.881   4.108  24.939  0.00  0.00    +0.098 C 
ATOM     12  N   UNL     1      -3.666   3.312  24.807  0.00  0.00    -0.155 NA
ATOM     13  C   UNL     1      -4.234   3.672  25.041  0.00  0.00    +0.102 C 
ATOM     22  C   UNL     1      -4.736   3.024  25.185  0.00  0.00    +0.110 C 
ATOM     23  N   UNL     1      -4.297   2.557  24.992  0.00  0.00    -0.298 N 
ATOM     24  C   UNL     1      -3.975   1.816  24.824  0.00  0.00    +0.276 A 
ATOM     25  O   UNL     1      -3.041   1.758  24.474  0.00  0.00    -0.266 OA
ENDROOT
BRANCH   4   3
ATOM      1  O   UNL     1      -3.996  -0.422  26.228  0.00  0.00    -0.268 OA
ATOM      2  C   UNL     1      -4.031  -0.300  25.354  0.00  0.00    +0.269 C 
ATOM      3  N   UNL     1      -4.139   0.362  24.791  0.00  0.00    -0.171 NA
BRANCH   2  26
ATOM     26  C   UNL     1      -3.933  -1.010  24.935  0.00  0.00    +0.055 A 
ATOM     27  C   UNL     1      -4.285  -1.227  24.221  0.00  0.00    +0.005 A 
ATOM     28  C   UNL     1      -4.118  -1.964  23.887  0.00  0.00    +0.010 A 
ATOM     29  C   UNL     1      -3.601  -2.482  24.269  0.00  0.00    +0.068 A 
ATOM     30  C   UNL     1      -3.250  -2.264  24.982  0.00  0.00    +0.010 A 
ATOM     31  C   UNL     1      -3.416  -1.528  25.316  0.00  0.00    +0.005 A 
BRANCH  29  32
ATOM     32  C   UNL     1      -3.435  -3.218  23.935  0.00  0.00    +0.100 C 
ATOM     33  N   UNL     1      -3.269  -3.954  23.601  0.00  0.00    -0.191 NA
ENDBRANCH  29  32
ENDBRANCH   2  26
ENDBRANCH   4   3
BRANCH  12  14
ATOM     14  S   UNL     1      -3.105   2.733  24.562  0.00  0.00    +0.069 S 
ATOM     15  O   UNL     1      -2.558   2.113  24.291  0.00  0.00    -0.152 OA
ATOM     16  O   UNL     1      -3.672   2.176  24.160  0.00  0.00    -0.152 OA
BRANCH  14  17
ATOM     17  C   UNL     1      -2.513   3.329  24.990  0.00  0.00    +0.152 A 
ATOM     18  C   UNL     1      -2.214   3.241  25.753  0.00  0.00    +0.027 A 
ATOM     19  C   UNL     1      -1.719   3.882  25.909  0.00  0.00    +0.009 A 
ATOM     20  C   UNL     1      -1.712   4.367  25.240  0.00  0.00    +0.037 A 
ATOM     21  S   UNL     1      -2.203   4.025  24.672  0.00  0.00    -0.067 S 
ENDBRANCH  14  17
ENDBRANCH  12  14
TORSDOF 5
ENDMDL
MODEL 3
REMARK VINA RESULT:     -12.7      0.865      2.081
REMARK  Name = 
REMARK  5 active torsions:
REMARK  status: ('A' for Active; 'I' for Inactive)
REMARK    1  A    between atoms: C_2  and  C_26
REMARK    2  A    between atoms: N_3  and  C_4
REMARK    3  A    between atoms: N_12  and  S_14
REMARK    4  A    between atoms: S_14  and  C_17
REMARK    5  A    between atoms: C_29  and  C_32
REMARK                            x       y       z     vdW  Elec       q    Type
REMARK                         _______ _______ _______ _____ _____    ______ ____
ROOT
ATOM      4  C   UNL     1      -2.659   0.655  24.856  0.00  0.00    +0.130 A 
ATOM      5  C   UNL     1      -1.871   1.155  24.553  0.00  0.00    +0.023 A 
ATOM      6  C   UNL     1      -1.241   0.631  24.459  0.00  0.00    +0.014 A 
ATOM      7  C   UNL     1      -1.346  -0.172  24.617  0.00  0.00    +0.041 A 
ATOM      8  C   UNL     1      -0.883  -0.966  24.613  0.00  0.00    +0.056 C 
ATOM      9  C   UNL     1      -0.249  -1.233  24.476  0.00  0.00    +0.011 C 
ATOM     10  C   UNL     1      -0.975  -1.504  24.725  0.00  0.00    +0.041 C 
ATOM     11  C   UNL     1      -1.763  -2.017  25.030  0.00  0.00    +0.098 C 
ATOM     12  N   UNL     1      -2.320  -1.398  25.088  0.00  0.00    -0.155 NA
ATOM     13  C   UNL     1      -1.635  -1.476  24.907  0.00  0.00    +0.102 C 
ATOM     22  C   UNL     1      -1.466  -0.679  24.732  0.00  0.00    +0.110 C 
ATOM     23  N   UNL     1      -2.080  -0.450  24.869  0.00  0.00    -0.298 N 
ATOM     24  C   UNL     1      -2.710   0.074  24.964  0.00  0.00    +0.276 A 
ATOM     25  O   UNL     1      -3.595  -0.276  25.270  0.00  0.00    -0.266 OA
ENDROOT
BRANCH   4   3
ATOM      1  O   UNL     1      -3.495   2.069  23.392  0.00  0.00    -0.268 OA
ATOM      2  C   UNL     1      -3.527   1.984  24.271  0.00  0.00    +0.269 C 
ATOM      3  N   UNL     1      -3.215   1.445  24.887  0.00  0.00    -0.171 NA
BRANCH   2  26
ATOM     26  C   UNL     1      -3.982   2.582  24.626  0.00  0.00    +0.055 A 
ATOM     27  C   UNL     1      -3.713   3.273  24.987  0.00  0.00    +0.005 A 
ATOM     28  C   UNL     1      -4.255   3.805  25.312  0.00  0.00    +0.010 A 
ATOM     29  C   UNL     1      -5.064   3.645  25.274  0.00  0.00    +0.068 A 
ATOM     30  C   UNL     1      -5.331   2.954  24.913  0.00  0.00    +0.010 A 
ATOM     31  C   UNL     1      -4.790   2.422  24.588  0.00  0.00    +0.005 A 
BRANCH  29  32
ATOM     32  C   UNL     1      -5.604   4.177  25.599  0.00  0.00    +0.100 C 
ATOM     33  N   UNL     1      -6.145   4.709  25.923  0.00  0.00    -0.191 NA
ENDBRANCH  29  32
ENDBRANCH   2  26
ENDBRANCH   4   3
BRANCH  12  14
ATOM     14  S   UNL     1      -3.095  -1.120  25.264  0.00  0.00    +0.069 S 
ATOM     15  O   UNL     1      -3.879  -0.800  25.462  0.00  0.00    -0.152 OA
ATOM     16  O   UNL     1      -2.867  -0.358  25.662  0.00  0.00    -0.152 OA
BRANCH  14  17
ATOM     17  C   UNL     1      -3.328  -1.931  24.841  0.00  0.00    +0.152 A 
ATOM     18  C   UNL     1      -3.621  -2.003  24.073  0.00  0.00    +0.027 A 
ATOM     19  C   UNL     1      -3.751  -2.804  23.924  0.00  0.00    +0.009 A 
ATOM     20  C   UNL     1      -3.537  -3.227  24.600  0.00  0.00    +0.037 A 
ATOM     21  S   UNL     1      -3.275  -2.687  25.167  0.00  0.00    -0.067 S 
ENDBRANCH  14  17
ENDBRANCH  12  14
TORSDOF 5
ENDMDL
MODEL 4
REMARK VINA RESULT:     -11.9      2.000      5.001
REMARK  Name = 
REMARK  5 active torsions:
REMARK  status: ('A' for Active; 'I' for Inactive)
REMARK    1  A    between atoms: C_2  and  C_26
REMARK    2  A    between atoms: N_3  and  C_4
REMARK    3  A    between atoms: N_12  and  S_14
REMARK    4  A    between atoms: S_14  and  C_17
REMARK    5  A    between atoms: C_29  and  C_32
REMARK                            x       y       z     vdW  Elec       q    Type
REMARK                         _______ _______ _______ _____ _____    ______ ____
ROOT
ATOM      4  C   UNL     1      -2.614   0.861  24.348  0.00  0.00    +0.130 A 
ATOM      5  C   UNL     1      -2.861  -0.054  24.598  0.00  0.00    +0.023 A 
ATOM      6  C   UNL     1      -3.654  -0.065  24.824  0.00  0.00    +0.014 A 
ATOM      7  C   UNL     1      -4.095   0.631  24.812  0.00  0.00    +0.041 A 
ATOM      8  C   UNL     1      -4.941   0.943  24.990  0.00  0.00    +0.056 C 
ATOM      9  C   UNL     1      -5.572   0.729  25.210  0.00  0.00    +0.011 C 
ATOM     10  C   UNL     1      -5.222   1.425  24.974  0.00  0.00    +0.041 C 
ATOM     11  C   UNL     1      -4.983   2.351  24.725  0.00  0.00    +0.098 C 
ATOM     12  N   UNL     1      -4.181   2.238  24.520  0.00  0.00    -0.155 NA
ATOM     13  C   UNL     1      -4.726   1.843  24.752  0.00  0.00    +0.102 C 
ATOM     22  C   UNL     1      -4.335   1.108  24.786  0.00  0.00    +0.110 C 
ATOM     23  N   UNL     1      -3.744   1.339  24.573  0.00  0.00    -0.298 N 
ATOM     24  C   UNL     1      -2.950   1.349  24.347  0.00  0.00    +0.276 A 
ATOM     25  O   UNL     1      -2.536   2.212  24.060  0.00  0.00    -0.266 OA
ENDROOT
BRANCH   4   3
ATOM      1  O   UNL     1      -0.795   0.378  25.488  0.00  0.00    -0.268 OA
ATOM      2  C   UNL     1      -1.002   0.429  24.631  0.00  0.00    +0.269 C 
ATOM      3  N   UNL     1      -1.702   0.614  24.138  0.00  0.00    -0.171 NA
BRANCH   2  26
ATOM     26  C   UNL     1      -0.355   0.251  24.143  0.00  0.00    +0.055 A 
ATOM     27  C   UNL     1      -0.179  -0.468  23.778  0.00  0.00    +0.005 A 
ATOM     28  C   UNL     1       0.496  -0.538  23.308  0.00  0.00    +0.010 A 
ATOM     29  C   UNL     1       0.994   0.112  23.204  0.00  0.00    +0.068 A 
ATOM     30  C   UNL     1       0.818   0.830  23.568  0.00  0.00    +0.010 A 
ATOM     31  C   UNL     1       0.144   0.900  24.038  0.00  0.00    +0.005 A 
BRANCH  29  32
ATOM     32  C   UNL     1       1.669   0.042  22.734  0.00  0.00    +0.100 C 
ATOM     33  N   UNL     1       2.343  -0.029  22.264  0.00  0.00    -0.191 NA
ENDBRANCH  29  32
ENDBRANCH   2  26
ENDBRANCH   4   3
BRANCH  12  14
ATOM     14  S   UNL     1      -3.441   2.539  24.251  0.00  0.00    +0.069 S 
ATOM     15  O   UNL     1      -2.673   2.815  23.951  0.00  0.00    -0.152 OA
ATOM     16  O   UNL     1      -3.226   1.868  23.707  0.00  0.00    -0.152 OA
BRANCH  14  17
ATOM     17  C   UNL     1      -3.678   3.245  24.831  0.00  0.00    +0.152 A 
ATOM     18  C   UNL     1      -3.366   3.371  25.584  0.00  0.00    +0.027 A 
ATOM     19  C   UNL     1      -3.723   4.045  25.898  0.00  0.00    +0.009 A 
ATOM     20  C   UNL     1      -4.256   4.335  25.338  0.00  0.00    +0.037 A 
ATOM     21  S   UNL     1      -4.228   3.841  24.679  0.00  0.00    -0.067 S 
ENDBRANCH  14  17
ENDBRANCH  12  14
TORSDOF 5
ENDMDL
MODEL 5
REMARK VINA RESULT:     -11.9      2.249      5.298
REMARK  Name = 
REMARK  5 active torsions:
REMARK  status: ('A' for Active; 'I' for Inactive)
REMARK    1  A    between atoms: C_2  and  C_26
REMARK    2  A    between atoms: N_3  and  C_4
REMARK    3  A    between atoms: N_12  and  S_14
REMARK    4  A    between atoms: S_14  and  C_17
REMARK    5  A    between atoms: C_29  and  C_32
REMARK                            x       y       z     vdW  Elec       q    Type
REMARK                         _______ _______ _______ _____ _____    ______ ____
ROOT
ATOM      4  C   UNL     1      -1.994   1.204  25.013  0.00  0.00    +0.130 A 
ATOM      5  C   UNL     1      -1.073   1.067  25.323  0.00  0.00    +0.023 A 
ATOM      6  C   UNL     1      -0.715   1.803  25.429  0.00  0.00    +0.014 A 
ATOM      7  C   UNL     1      -1.138   2.493  25.274  0.00  0.00    +0.041 A 
ATOM      8  C   UNL     1      -1.042   3.407  25.288  0.00  0.00    +0.056 C 
ATOM      9  C   UNL     1      -0.575   3.910  25.435  0.00  0.00    +0.011 C 
ATOM     10  C   UNL     1      -1.346   3.862  25.178  0.00  0.00    +0.041 C 
ATOM     11  C   UNL     1      -2.272   4.010  24.866  0.00  0.00    +0.098 C 
ATOM     12  N   UNL     1      -2.525   3.217  24.797  0.00  0.00    -0.155 NA
ATOM     13  C   UNL     1      -1.934   3.567  24.987  0.00  0.00    +0.102 C 
ATOM     22  C   UNL     1      -1.455   2.908  25.160  0.00  0.00    +0.110 C 
ATOM     23  N   UNL     1      -1.920   2.449  25.014  0.00  0.00    -0.298 N 
ATOM     24  C   UNL     1      -2.278   1.713  24.908  0.00  0.00    +0.276 A 
ATOM     25  O   UNL     1      -3.225   1.672  24.592  0.00  0.00    -0.266 OA
ENDROOT
BRANCH   4   3
ATOM      1  O   UNL     1      -1.664  -0.539  26.316  0.00  0.00    -0.268 OA
ATOM      2  C   UNL     1      -2.025  -0.411  25.520  0.00  0.00    +0.269 C 
ATOM      3  N   UNL     1      -2.176   0.255  24.971  0.00  0.00    -0.171 NA
BRANCH   2  26
ATOM     26  C   UNL     1      -2.306  -1.118  25.187  0.00  0.00    +0.055 A 
ATOM     27  C   UNL     1      -1.914  -1.619  24.661  0.00  0.00    +0.005 A 
ATOM     28  C   UNL     1      -2.287  -2.303  24.389  0.00  0.00    +0.010 A 
ATOM     29  C   UNL     1      -3.051  -2.485  24.643  0.00  0.00    +0.068 A 
ATOM     30  C   UNL     1      -3.442  -1.984  25.168  0.00  0.00    +0.010 A 
ATOM     31  C   UNL     1      -3.069  -1.300  25.440  0.00  0.00    +0.005 A 
BRANCH  29  32
ATOM     32  C   UNL     1      -3.424  -3.169  24.370  0.00  0.00    +0.100 C 
ATOM     33  N   UNL     1      -3.796  -3.852  24.097  0.00  0.00    -0.191 NA
ENDBRANCH  29  32
ENDBRANCH   2  26
ENDBRANCH   4   3
BRANCH  12  14
ATOM     14  S   UNL     1      -3.117   2.647  24.610  0.00  0.00    +0.069 S 
ATOM     15  O   UNL     1      -3.698   2.035  24.400  0.00  0.00    -0.152 OA
ATOM     16  O   UNL     1      -2.588   2.040  24.230  0.00  0.00    -0.152 OA
BRANCH  14  17
ATOM     17  C   UNL     1      -3.669   3.297  25.014  0.00  0.00    +0.152 A 
ATOM     18  C   UNL     1      -3.920   3.290  25.799  0.00  0.00    +0.027 A 
ATOM     19  C   UNL     1      -4.391   3.956  25.922  0.00  0.00    +0.009 A 
ATOM     20  C   UNL     1      -4.431   4.375  25.211  0.00  0.00    +0.037 A 
ATOM     21  S   UNL     1      -3.984   3.967  24.650  0.00  0.00    -0.067 S 
ENDBRANCH  14  17
ENDBRANCH  12  14
TORSDOF 5
ENDMDL
MODEL 6
REMARK VINA RESULT:     -11.9      2.642      5.637
REMARK  Name = 
REMARK  5 active torsions:
REMARK  status: ('A' for Active; 'I' for Inactive)
REMARK    1  A    between atoms: C_2  and  C_26
REMARK    2  A    between atoms: N_3  and  C_4
REMARK    3  A    between atoms: N_12  and  S_14
REMARK    4  A    between atoms: S_14  and  C_17
REMARK    5  A    between atoms: C_29  and  C_32
REMARK                            x       y       z     vdW  Elec       q    Type
REMARK                         _______ _______ _______ _____ _____    ______ ____
ROOT
ATOM      4  C   UNL     1      -1.852   2.431  24.867  0.00  0.00    +0.130 A 
ATOM      5  C   UNL     1      -1.258   2.919  25.476  0.00  0.00    +0.023 A 
ATOM      6  C   UNL     1      -1.703   3.471  25.898  0.00  0.00    +0.014 A 
ATOM      7  C   UNL     1      -2.515   3.534  25.765  0.00  0.00    +0.041 A 
ATOM      8  C   UNL     1      -3.249   4.010  26.046  0.00  0.00    +0.056 C 
ATOM      9  C   UNL     1      -3.438   4.520  26.490  0.00  0.00    +0.011 C 
ATOM     10  C   UNL     1      -3.796   4.036  25.941  0.00  0.00    +0.041 C 
ATOM     11  C   UNL     1      -4.402   3.550  25.330  0.00  0.00    +0.098 C 
ATOM     12  N   UNL     1      -3.853   3.035  24.968  0.00  0.00    -0.155 NA
ATOM     13  C   UNL     1      -3.848   3.549  25.462  0.00  0.00    +0.102 C 
ATOM     22  C   UNL     1      -3.035   3.534  25.641  0.00  0.00    +0.110 C 
ATOM     23  N   UNL     1      -2.881   3.046  25.210  0.00  0.00    -0.298 N 
ATOM     24  C   UNL     1      -2.436   2.494  24.788  0.00  0.00    +0.276 A 
ATOM     25  O   UNL     1      -2.891   1.908  24.119  0.00  0.00    -0.266 OA
ENDROOT
BRANCH   4   3
ATOM      1  O   UNL     1      -0.756   0.636  25.515  0.00  0.00    -0.268 OA
ATOM      2  C   UNL     1      -0.722   1.172  24.814  0.00  0.00    +0.269 C 
ATOM      3  N   UNL     1      -1.132   1.887  24.518  0.00  0.00    -0.171 NA
BRANCH   2  26
ATOM     26  C   UNL     1      -0.137   0.940  24.272  0.00  0.00    +0.055 A 
ATOM     27  C   UNL     1       0.529   1.366  24.035  0.00  0.00    +0.005 A 
ATOM     28  C   UNL     1       1.052   1.041  23.485  0.00  0.00    +0.010 A 
ATOM     29  C   UNL     1       0.909   0.290  23.174  0.00  0.00    +0.068 A 
ATOM     30  C   UNL     1       0.244  -0.135  23.412  0.00  0.00    +0.010 A 
ATOM     31  C   UNL     1      -0.279   0.190  23.961  0.00  0.00    +0.005 A 
BRANCH  29  32
ATOM     32  C   UNL     1       1.432  -0.035  22.625  0.00  0.00    +0.100 C 
ATOM     33  N   UNL     1       1.955  -0.359  22.076  0.00  0.00    -0.191 NA
ENDBRANCH  29  32
ENDBRANCH   2  26
ENDBRANCH   4   3
BRANCH  12  14
ATOM     14  S   UNL     1      -3.671   2.420  24.423  0.00  0.00    +0.069 S 
ATOM     15  O   UNL     1      -3.448   1.805  23.849  0.00  0.00    -0.152 OA
ATOM     16  O   UNL     1      -2.895   2.742  24.129  0.00  0.00    -0.152 OA
BRANCH  14  17
ATOM     17  C   UNL     1      -4.495   2.087  24.740  0.00  0.00    +0.152 A 
ATOM     18  C   UNL     1      -4.586   1.456  25.263  0.00  0.00    +0.027 A 
ATOM     19  C   UNL     1      -5.394   1.349  25.394  0.00  0.00    +0.009 A 
ATOM     20  C   UNL     1      -5.801   1.915  24.953  0.00  0.00    +0.037 A 
ATOM     21  S   UNL     1      -5.246   2.372  24.549  0.00  0.00    -0.067 S 
ENDBRANCH  14  17
ENDBRANCH  12  14
TORSDOF 5
ENDMDL
