MODEL 1
REMARK VINA RESULT:     -15.2      0.000      0.000
REMARK  Name = 
REMARK  4 active torsions:
REMARK  status: ('A' for Active; 'I' for Inactive)
REMARK    1  A    between atoms: C_2  and  C_3
REMARK    2  A    between atoms: C_11  and  C_12
REMARK    3  A    between atoms: C_12  and  C_13
REMARK    4  A    between atoms: C_28  and  C_30
REMARK                            x       y       z     vdW  Elec       q    Type
REMARK                         _______ _______ _______ _____ _____    ______ ____
ROOT
ATOM      1  C   UNL     1      -0.510   4.272  24.737  0.00  0.00    +0.005 C 
ATOM      2  C   UNL     1      -1.186   3.816  24.860  0.00  0.00    +0.059 C 
ATOM      5  C   UNL     1      -1.469   4.555  25.090  0.00  0.00    +0.154 C 
ATOM      6  O   UNL     1      -0.973   5.214  25.062  0.00  0.00    -0.223 OA
ATOM      7  C   UNL     1      -2.249   4.637  25.349  0.00  0.00    +0.033 C 
ATOM      8  C   UNL     1      -2.745   3.979  25.377  0.00  0.00    +0.003 C 
ATOM      9  C   UNL     1      -2.462   3.239  25.147  0.00  0.00    +0.006 C 
ATOM     10  C   UNL     1      -3.241   3.321  25.405  0.00  0.00    +0.000 C 
ATOM     11  C   UNL     1      -2.958   2.580  25.175  0.00  0.00    +0.050 C 
ATOM     21  C   UNL     1      -2.676   1.841  24.945  0.00  0.00    +0.063 A 
ATOM     22  C   UNL     1      -1.895   1.759  24.686  0.00  0.00    +0.023 A 
ATOM     23  C   UNL     1      -1.400   2.417  24.658  0.00  0.00    +0.034 C 
ATOM     24  C   UNL     1      -1.682   3.158  24.888  0.00  0.00    +0.010 C 
ATOM     25  S   UNL     1      -1.773   0.966  24.496  0.00  0.00    -0.054 S 
ATOM     26  C   UNL     1      -2.475   0.557  24.636  0.00  0.00    +0.185 A 
ATOM     27  N   UNL     1      -2.598  -0.250  24.519  0.00  0.00    -0.154 NA
ATOM     28  C   UNL     1      -3.334  -0.583  24.685  0.00  0.00    +0.247 C 
ATOM     29  O   UNL     1      -3.948  -0.109  24.967  0.00  0.00    -0.273 OA
ATOM     36  N   UNL     1      -3.033   1.098  24.914  0.00  0.00    -0.227 NA
ENDROOT
BRANCH  28  30
ATOM     30  C   UNL     1      -3.457  -1.390  24.568  0.00  0.00    +0.079 C 
ATOM     31  C   UNL     1      -3.952  -1.649  23.960  0.00  0.00    +0.009 C 
ATOM     32  C   UNL     1      -4.076  -2.456  23.843  0.00  0.00    +0.000 C 
ATOM     33  C   UNL     1      -3.704  -3.005  24.335  0.00  0.00    +0.000 C 
ATOM     34  C   UNL     1      -3.210  -2.747  24.942  0.00  0.00    +0.000 C 
ATOM     35  C   UNL     1      -3.087  -1.940  25.059  0.00  0.00    +0.009 C 
ENDBRANCH  28  30
BRANCH   2   3
ATOM      3  C   UNL     1      -0.669   3.234  24.587  0.00  0.00    +0.184 C 
ATOM      4  O   UNL     1       0.082   3.445  24.316  0.00  0.00    -0.220 OA
ENDBRANCH   2   3
BRANCH  11  12
ATOM     12  C   UNL     1      -3.737   2.662  25.434  0.00  0.00    +0.091 C 
BRANCH  12  13
ATOM     13  C   UNL     1      -4.360   2.601  24.894  0.00  0.00    +0.226 C 
ATOM     14  O   UNL     1      -4.217   2.699  24.088  0.00  0.00    -0.275 OA
ATOM     15  N   UNL     1      -5.123   2.444  25.162  0.00  0.00    -0.274 N 
ATOM     16  C   UNL     1      -5.745   2.384  24.624  0.00  0.00    +0.125 C 
ATOM     17  C   UNL     1      -6.509   2.227  24.891  0.00  0.00    +0.164 C 
ATOM     18  O   UNL     1      -6.652   2.129  25.698  0.00  0.00    -0.350 OA
ATOM     19  C   UNL     1      -6.030   2.190  26.237  0.00  0.00    +0.164 C 
ATOM     20  C   UNL     1      -5.266   2.347  25.969  0.00  0.00    +0.125 C 
ENDBRANCH  12  13
ENDBRANCH  11  12
TORSDOF 4
ENDMDL
MODEL 2
REMARK VINA RESULT:     -14.9      1.250      4.640
REMARK  Name = 
REMARK  4 active torsions:
REMARK  status: ('A' for Active; 'I' for Inactive)
REMARK    1  A    between atoms: C_2  and  C_3
REMARK    2  A    between atoms: C_11  and  C_12
REMARK    3  A    between atoms: C_12  and  C_13
REMARK    4  A    between atoms: C_28  and  C_30
REMARK                            x       y       z     vdW  Elec       q    Type
REMARK                         _______ _______ _______ _____ _____    ______ ____
ROOT
ATOM      1  C   UNL     1      -1.953  -2.560  24.527  0.00  0.00    +0.005 C 
ATOM      2  C   UNL     1      -2.311  -1.835  24.687  0.00  0.00    +0.059 C 
ATOM      5  C   UNL     1      -2.952  -2.340  24.804  0.00  0.00    +0.154 C 
ATOM      6  O   UNL     1      -2.860  -3.154  24.704  0.00  0.00    -0.223 OA
ATOM      7  C   UNL     1      -3.687  -2.031  25.021  0.00  0.00    +0.033 C 
ATOM      8  C   UNL     1      -3.779  -1.218  25.121  0.00  0.00    +0.003 C 
ATOM      9  C   UNL     1      -3.138  -0.713  25.004  0.00  0.00    +0.006 C 
ATOM     10  C   UNL     1      -3.871  -0.405  25.221  0.00  0.00    +0.000 C 
ATOM     11  C   UNL     1      -3.230   0.101  25.104  0.00  0.00    +0.050 C 
ATOM     21  C   UNL     1      -2.589   0.606  24.987  0.00  0.00    +0.063 A 
ATOM     22  C   UNL     1      -1.854   0.298  24.770  0.00  0.00    +0.023 A 
ATOM     23  C   UNL     1      -1.762  -0.516  24.670  0.00  0.00    +0.034 C 
ATOM     24  C   UNL     1      -2.403  -1.022  24.787  0.00  0.00    +0.010 C 
ATOM     25  S   UNL     1      -1.327   0.927  24.694  0.00  0.00    -0.054 S 
ATOM     26  C   UNL     1      -1.734   1.624  24.864  0.00  0.00    +0.185 A 
ATOM     27  N   UNL     1      -1.417   2.386  24.854  0.00  0.00    -0.154 NA
ATOM     28  C   UNL     1      -1.894   3.033  25.037  0.00  0.00    +0.247 C 
ATOM     29  O   UNL     1      -2.688   2.920  25.230  0.00  0.00    -0.273 OA
ATOM     36  N   UNL     1      -2.513   1.426  25.045  0.00  0.00    -0.227 NA
ENDROOT
BRANCH  28  30
ATOM     30  C   UNL     1      -1.577   3.795  25.027  0.00  0.00    +0.079 C 
ATOM     31  C   UNL     1      -2.011   4.427  25.334  0.00  0.00    +0.009 C 
ATOM     32  C   UNL     1      -1.694   5.188  25.324  0.00  0.00    +0.000 C 
ATOM     33  C   UNL     1      -0.943   5.318  25.007  0.00  0.00    +0.000 C 
ATOM     34  C   UNL     1      -0.509   4.687  24.701  0.00  0.00    +0.000 C 
ATOM     35  C   UNL     1      -0.826   3.926  24.711  0.00  0.00    +0.009 C 
ENDBRANCH  28  30
BRANCH   2   3
ATOM      3  C   UNL     1      -1.545  -1.582  24.514  0.00  0.00    +0.184 C 
ATOM      4  O   UNL     1      -0.964  -2.132  24.315  0.00  0.00    -0.220 OA
ENDBRANCH   2   3
BRANCH  11  12
ATOM     12  C   UNL     1      -3.964   0.409  25.321  0.00  0.00    +0.091 C 
BRANCH  12  13
ATOM     13  C   UNL     1      -4.419   0.820  24.768  0.00  0.00    +0.226 C 
ATOM     14  O   UNL     1      -4.225   0.785  23.967  0.00  0.00    -0.275 OA
ATOM     15  N   UNL     1      -5.067   1.264  25.017  0.00  0.00    -0.274 N 
ATOM     16  C   UNL     1      -5.522   1.675  24.465  0.00  0.00    +0.125 C 
ATOM     17  C   UNL     1      -6.171   2.120  24.713  0.00  0.00    +0.164 C 
ATOM     18  O   UNL     1      -6.364   2.154  25.514  0.00  0.00    -0.350 OA
ATOM     19  C   UNL     1      -5.910   1.744  26.067  0.00  0.00    +0.164 C 
ATOM     20  C   UNL     1      -5.261   1.299  25.818  0.00  0.00    +0.125 C 
ENDBRANCH  12  13
ENDBRANCH  11  12
TORSDOF 4
ENDMDL
MODEL 3
REMARK VINA RESULT:     -14.2      1.808      3.993
REMARK  Name = 
REMARK  4 active torsions:
REMARK  status: ('A' for Active; 'I' for Inactive)
REMARK    1  A    between atoms: C_2  and  C_3
REMARK    2  A    between atoms: C_11  and  C_12
REMARK    3  A    between atoms: C_12  and  C_13
REMARK    4  A    between atoms: C_28  and  C_30
REMARK                            x       y       z     vdW  Elec       q    Type
REMARK                         _______ _______ _______ _____ _____    ______ ____
ROOT
ATOM      1  C   UNL     1      -5.217   3.489  25.566  0.00  0.00    +0.005 C 
ATOM      2  C   UNL     1      -4.835   2.805  25.309  0.00  0.00    +0.059 C 
ATOM      5  C   UNL     1      -5.596   2.510  25.422  0.00  0.00    +0.154 C 
ATOM      6  O   UNL     1      -6.198   3.008  25.687  0.00  0.00    -0.223 OA
ATOM      7  C   UNL     1      -5.757   1.714  25.269  0.00  0.00    +0.033 C 
ATOM      8  C   UNL     1      -5.156   1.216  25.004  0.00  0.00    +0.003 C 
ATOM      9  C   UNL     1      -4.395   1.511  24.892  0.00  0.00    +0.006 C 
ATOM     10  C   UNL     1      -4.556   0.717  24.739  0.00  0.00    +0.000 C 
ATOM     11  C   UNL     1      -3.793   1.013  24.626  0.00  0.00    +0.050 C 
ATOM     21  C   UNL     1      -3.032   1.308  24.513  0.00  0.00    +0.063 A 
ATOM     22  C   UNL     1      -2.871   2.104  24.666  0.00  0.00    +0.023 A 
ATOM     23  C   UNL     1      -3.472   2.602  24.931  0.00  0.00    +0.034 C 
ATOM     24  C   UNL     1      -4.234   2.307  25.044  0.00  0.00    +0.010 C 
ATOM     25  S   UNL     1      -2.073   2.237  24.505  0.00  0.00    -0.054 S 
ATOM     26  C   UNL     1      -1.740   1.525  24.254  0.00  0.00    +0.185 A 
ATOM     27  N   UNL     1      -0.953   1.408  24.036  0.00  0.00    -0.154 NA
ATOM     28  C   UNL     1      -0.699   0.662  23.795  0.00  0.00    +0.247 C 
ATOM     29  O   UNL     1      -1.232   0.032  23.771  0.00  0.00    -0.273 OA
ATOM     36  N   UNL     1      -2.333   0.952  24.259  0.00  0.00    -0.227 NA
ENDROOT
BRANCH  28  30
ATOM     30  C   UNL     1       0.087   0.545  23.576  0.00  0.00    +0.079 C 
ATOM     31  C   UNL     1       0.301  -0.125  23.143  0.00  0.00    +0.009 C 
ATOM     32  C   UNL     1       1.087  -0.243  22.925  0.00  0.00    +0.000 C 
ATOM     33  C   UNL     1       1.661   0.310  23.140  0.00  0.00    +0.000 C 
ATOM     34  C   UNL     1       1.449   0.979  23.572  0.00  0.00    +0.000 C 
ATOM     35  C   UNL     1       0.662   1.096  23.790  0.00  0.00    +0.009 C 
ENDBRANCH  28  30
BRANCH   2   3
ATOM      3  C   UNL     1      -4.206   3.338  25.286  0.00  0.00    +0.184 C 
ATOM      4  O   UNL     1      -4.320   4.121  25.522  0.00  0.00    -0.220 OA
ENDBRANCH   2   3
BRANCH  11  12
ATOM     12  C   UNL     1      -3.954   0.218  24.474  0.00  0.00    +0.091 C 
BRANCH  12  13
ATOM     13  C   UNL     1      -3.701  -0.364  25.003  0.00  0.00    +0.226 C 
ATOM     14  O   UNL     1      -3.415  -0.148  25.745  0.00  0.00    -0.275 OA
ATOM     15  N   UNL     1      -3.735  -1.158  24.788  0.00  0.00    -0.274 N 
ATOM     16  C   UNL     1      -3.482  -1.740  25.316  0.00  0.00    +0.125 C 
ATOM     17  C   UNL     1      -3.516  -2.536  25.102  0.00  0.00    +0.164 C 
ATOM     18  O   UNL     1      -3.802  -2.750  24.359  0.00  0.00    -0.350 OA
ATOM     19  C   UNL     1      -4.055  -2.170  23.830  0.00  0.00    +0.164 C 
ATOM     20  C   UNL     1      -4.021  -1.374  24.044  0.00  0.00    +0.125 C 
ENDBRANCH  12  13
ENDBRANCH  11  12
TORSDOF 4
ENDMDL
MODEL 4
REMARK VINA RESULT:     -13.7      1.626      5.298
REMARK  Name = 
REMARK  4 active torsions:
REMARK  status: ('A' for Active; 'I' for Inactive)
REMARK    1  A    between atoms: C_2  and  C_3
REMARK    2  A    between atoms: C_11  and  C_12
REMARK    3  A    between atoms: C_12  and  C_13
REMARK    4  A    between atoms: C_28  and  C_30
REMARK                            x       y       z     vdW  Elec       q    Type
REMARK                         _______ _______ _______ _____ _____    ______ ____
ROOT
ATOM      1  C   UNL     1      -3.125  -3.009  24.206  0.00  0.00    +0.005 C 
ATOM      2  C   UNL     1      -2.912  -2.240  24.415  0.00  0.00    +0.059 C 
ATOM      5  C   UNL     1      -2.176  -2.609  24.456  0.00  0.00    +0.154 C 
ATOM      6  O   UNL     1      -2.107  -3.414  24.287  0.00  0.00    -0.223 OA
ATOM      7  C   UNL     1      -1.506  -2.174  24.667  0.00  0.00    +0.033 C 
ATOM      8  C   UNL     1      -1.575  -1.370  24.836  0.00  0.00    +0.003 C 
ATOM      9  C   UNL     1      -2.310  -1.000  24.795  0.00  0.00    +0.006 C 
ATOM     10  C   UNL     1      -1.643  -0.566  25.005  0.00  0.00    +0.000 C 
ATOM     11  C   UNL     1      -2.379  -0.196  24.964  0.00  0.00    +0.050 C 
ATOM     21  C   UNL     1      -3.115   0.174  24.923  0.00  0.00    +0.063 A 
ATOM     22  C   UNL     1      -3.784  -0.262  24.712  0.00  0.00    +0.023 A 
ATOM     23  C   UNL     1      -3.716  -1.066  24.543  0.00  0.00    +0.034 C 
ATOM     24  C   UNL     1      -2.980  -1.436  24.584  0.00  0.00    +0.010 C 
ATOM     25  S   UNL     1      -4.432   0.249  24.717  0.00  0.00    -0.054 S 
ATOM     26  C   UNL     1      -4.164   0.999  24.931  0.00  0.00    +0.185 A 
ATOM     27  N   UNL     1      -4.629   1.677  25.005  0.00  0.00    -0.154 NA
ATOM     28  C   UNL     1      -4.282   2.392  25.224  0.00  0.00    +0.247 C 
ATOM     29  O   UNL     1      -3.471   2.431  25.370  0.00  0.00    -0.273 OA
ATOM     36  N   UNL     1      -3.351   0.953  25.058  0.00  0.00    -0.227 NA
ENDROOT
BRANCH  28  30
ATOM     30  C   UNL     1      -4.746   3.070  25.298  0.00  0.00    +0.079 C 
ATOM     31  C   UNL     1      -4.475   3.791  25.001  0.00  0.00    +0.009 C 
ATOM     32  C   UNL     1      -4.940   4.469  25.075  0.00  0.00    +0.000 C 
ATOM     33  C   UNL     1      -5.675   4.426  25.446  0.00  0.00    +0.000 C 
ATOM     34  C   UNL     1      -5.946   3.706  25.743  0.00  0.00    +0.000 C 
ATOM     35  C   UNL     1      -5.482   3.028  25.669  0.00  0.00    +0.009 C 
ENDBRANCH  28  30
BRANCH   2   3
ATOM      3  C   UNL     1      -3.722  -2.138  24.301  0.00  0.00    +0.184 C 
ATOM      4  O   UNL     1      -4.185  -2.768  24.036  0.00  0.00    -0.220 OA
ENDBRANCH   2   3
BRANCH  11  12
ATOM     12  C   UNL     1      -1.710   0.239  25.175  0.00  0.00    +0.091 C 
BRANCH  12  13
ATOM     13  C   UNL     1      -1.346   0.731  24.620  0.00  0.00    +0.226 C 
ATOM     14  O   UNL     1      -1.532   0.658  23.820  0.00  0.00    -0.275 OA
ATOM     15  N   UNL     1      -0.798   1.295  24.867  0.00  0.00    -0.274 N 
ATOM     16  C   UNL     1      -0.434   1.786  24.313  0.00  0.00    +0.125 C 
ATOM     17  C   UNL     1       0.115   2.350  24.560  0.00  0.00    +0.164 C 
ATOM     18  O   UNL     1       0.300   2.423  25.360  0.00  0.00    -0.350 OA
ATOM     19  C   UNL     1      -0.063   1.932  25.915  0.00  0.00    +0.164 C 
ATOM     20  C   UNL     1      -0.612   1.368  25.668  0.00  0.00    +0.125 C 
ENDBRANCH  12  13
ENDBRANCH  11  12
TORSDOF 4
ENDMDL
MODEL 5
REMARK VINA RESULT:     -13.4      1.500      3.388
REMARK  Name = 
REMARK  4 active torsions:
REMARK  status: ('A' for Active; 'I' for Inactive)
REMARK    1  A    between atoms: C_2  and  C_3
REMARK    2  A    between atoms: C_11  and  C_12
REMARK    3  A    between atoms: C_12  and  C_13
REMARK    4  A    between atoms: C_28  and  C_30
REMARK                            x       y       z     vdW  Elec       q    Type
REMARK                         _______ _______ _______ _____ _____    ______ ____
ROOT
ATOM      1  C   UNL     1      -5.507   4.110  25.593  0.00  0.00    +0.005 C 
ATOM      2  C   UNL     1      -4.923   3.583  25.348  0.00  0.00    +0.059 C 
ATOM      5  C   UNL     1      -4.517   4.296  25.264  0.00  0.00    +0.154 C 
ATOM      6  O   UNL     1      -4.889   5.008  25.451  0.00  0.00    -0.223 OA
ATOM      7  C   UNL     1      -3.737   4.297  24.993  0.00  0.00    +0.033 C 
ATOM      8  C   UNL     1      -3.364   3.586  24.806  0.00  0.00    +0.003 C 
ATOM      9  C   UNL     1      -3.770   2.873  24.890  0.00  0.00    +0.006 C 
ATOM     10  C   UNL     1      -2.992   2.874  24.619  0.00  0.00    +0.000 C 
ATOM     11  C   UNL     1      -3.398   2.161  24.703  0.00  0.00    +0.050 C 
ATOM     21  C   UNL     1      -3.803   1.448  24.786  0.00  0.00    +0.063 A 
ATOM     22  C   UNL     1      -4.584   1.447  25.058  0.00  0.00    +0.023 A 
ATOM     23  C   UNL     1      -4.956   2.158  25.244  0.00  0.00    +0.034 C 
ATOM     24  C   UNL     1      -4.550   2.872  25.161  0.00  0.00    +0.010 C 
ATOM     25  S   UNL     1      -4.842   0.664  25.084  0.00  0.00    -0.054 S 
ATOM     26  C   UNL     1      -4.223   0.181  24.830  0.00  0.00    +0.185 A 
ATOM     27  N   UNL     1      -4.242  -0.641  24.771  0.00  0.00    -0.154 NA
ATOM     28  C   UNL     1      -3.578  -1.051  24.507  0.00  0.00    +0.247 C 
ATOM     29  O   UNL     1      -2.893  -0.639  24.302  0.00  0.00    -0.273 OA
ATOM     36  N   UNL     1      -3.582   0.666  24.646  0.00  0.00    -0.227 NA
ENDROOT
BRANCH  28  30
ATOM     30  C   UNL     1      -3.597  -1.874  24.447  0.00  0.00    +0.079 C 
ATOM     31  C   UNL     1      -3.186  -2.337  24.993  0.00  0.00    +0.009 C 
ATOM     32  C   UNL     1      -3.205  -3.160  24.933  0.00  0.00    +0.000 C 
ATOM     33  C   UNL     1      -3.635  -3.519  24.328  0.00  0.00    +0.000 C 
ATOM     34  C   UNL     1      -4.046  -3.057  23.783  0.00  0.00    +0.000 C 
ATOM     35  C   UNL     1      -4.027  -2.234  23.842  0.00  0.00    +0.009 C 
ENDBRANCH  28  30
BRANCH   2   3
ATOM      3  C   UNL     1      -5.532   3.053  25.517  0.00  0.00    +0.184 C 
ATOM      4  O   UNL     1      -6.242   3.329  25.836  0.00  0.00    -0.220 OA
ENDBRANCH   2   3
BRANCH  11  12
ATOM     12  C   UNL     1      -2.618   2.162  24.432  0.00  0.00    +0.091 C 
BRANCH  12  13
ATOM     13  C   UNL     1      -2.002   1.970  24.946  0.00  0.00    +0.226 C 
ATOM     14  O   UNL     1      -2.140   1.936  25.759  0.00  0.00    -0.275 OA
ATOM     15  N   UNL     1      -1.250   1.813  24.648  0.00  0.00    -0.274 N 
ATOM     16  C   UNL     1      -0.634   1.622  25.162  0.00  0.00    +0.125 C 
ATOM     17  C   UNL     1       0.119   1.464  24.864  0.00  0.00    +0.164 C 
ATOM     18  O   UNL     1       0.256   1.499  24.052  0.00  0.00    -0.350 OA
ATOM     19  C   UNL     1      -0.360   1.691  23.537  0.00  0.00    +0.164 C 
ATOM     20  C   UNL     1      -1.113   1.848  23.835  0.00  0.00    +0.125 C 
ENDBRANCH  12  13
ENDBRANCH  11  12
TORSDOF 4
ENDMDL
MODEL 6
REMARK VINA RESULT:     -13.1      1.631      3.412
REMARK  Name = 
REMARK  4 active torsions:
REMARK  status: ('A' for Active; 'I' for Inactive)
REMARK    1  A    between atoms: C_2  and  C_3
REMARK    2  A    between atoms: C_11  and  C_12
REMARK    3  A    between atoms: C_12  and  C_13
REMARK    4  A    between atoms: C_28  and  C_30
REMARK                            x       y       z     vdW  Elec       q    Type
REMARK                         _______ _______ _______ _____ _____    ______ ____
ROOT
ATOM      1  C   UNL     1      -2.466   4.676  25.492  0.00  0.00    +0.005 C 
ATOM      2  C   UNL     1      -2.169   3.935  25.283  0.00  0.00    +0.059 C 
ATOM      5  C   UNL     1      -1.479   4.384  25.238  0.00  0.00    +0.154 C 
ATOM      6  O   UNL     1      -1.500   5.192  25.406  0.00  0.00    -0.223 OA
ATOM      7  C   UNL     1      -0.767   4.025  25.024  0.00  0.00    +0.033 C 
ATOM      8  C   UNL     1      -0.746   3.218  24.857  0.00  0.00    +0.003 C 
ATOM      9  C   UNL     1      -1.436   2.769  24.902  0.00  0.00    +0.006 C 
ATOM     10  C   UNL     1      -0.725   2.411  24.689  0.00  0.00    +0.000 C 
ATOM     11  C   UNL     1      -1.415   1.962  24.734  0.00  0.00    +0.050 C 
ATOM     21  C   UNL     1      -2.105   1.513  24.779  0.00  0.00    +0.063 A 
ATOM     22  C   UNL     1      -2.818   1.872  24.993  0.00  0.00    +0.023 A 
ATOM     23  C   UNL     1      -2.839   2.679  25.160  0.00  0.00    +0.034 C 
ATOM     24  C   UNL     1      -2.148   3.128  25.115  0.00  0.00    +0.010 C 
ATOM     25  S   UNL     1      -3.405   1.292  24.991  0.00  0.00    -0.054 S 
ATOM     26  C   UNL     1      -3.057   0.576  24.777  0.00  0.00    +0.185 A 
ATOM     27  N   UNL     1      -3.443  -0.149  24.706  0.00  0.00    -0.154 NA
ATOM     28  C   UNL     1      -3.021  -0.822  24.486  0.00  0.00    +0.247 C 
ATOM     29  O   UNL     1      -2.211  -0.771  24.337  0.00  0.00    -0.273 OA
ATOM     36  N   UNL     1      -2.254   0.712  24.646  0.00  0.00    -0.227 NA
ENDROOT
BRANCH  28  30
ATOM     30  C   UNL     1      -3.407  -1.547  24.415  0.00  0.00    +0.079 C 
ATOM     31  C   UNL     1      -3.219  -2.167  24.927  0.00  0.00    +0.009 C 
ATOM     32  C   UNL     1      -3.606  -2.893  24.857  0.00  0.00    +0.000 C 
ATOM     33  C   UNL     1      -4.180  -2.998  24.274  0.00  0.00    +0.000 C 
ATOM     34  C   UNL     1      -4.368  -2.379  23.762  0.00  0.00    +0.000 C 
ATOM     35  C   UNL     1      -3.982  -1.654  23.833  0.00  0.00    +0.009 C 
ENDBRANCH  28  30
BRANCH   2   3
ATOM      3  C   UNL     1      -2.963   3.744  25.401  0.00  0.00    +0.184 C 
ATOM      4  O   UNL     1      -3.487   4.314  25.687  0.00  0.00    -0.220 OA
ENDBRANCH   2   3
BRANCH  11  12
ATOM     12  C   UNL     1      -0.704   1.603  24.521  0.00  0.00    +0.091 C 
BRANCH  12  13
ATOM     13  C   UNL     1      -0.573   1.378  23.737  0.00  0.00    +0.226 C 
ATOM     14  O   UNL     1      -1.041   1.692  23.135  0.00  0.00    -0.275 OA
ATOM     15  N   UNL     1       0.024   0.839  23.557  0.00  0.00    -0.274 N 
ATOM     16  C   UNL     1       0.155   0.614  22.775  0.00  0.00    +0.125 C 
ATOM     17  C   UNL     1       0.753   0.075  22.595  0.00  0.00    +0.164 C 
ATOM     18  O   UNL     1       1.220  -0.239  23.197  0.00  0.00    -0.350 OA
ATOM     19  C   UNL     1       1.090  -0.014  23.980  0.00  0.00    +0.164 C 
ATOM     20  C   UNL     1       0.492   0.525  24.161  0.00  0.00    +0.125 C 
ENDBRANCH  12  13
ENDBRANCH  11  12
TORSDOF 4
ENDMDL
MODEL 7
REMARK VINA RESULT:     -11.5      2.119      5.949
REMARK  Name = 
REMARK  4 active torsions:
REMARK  status: ('A' for Active; 'I' for Inactive)
REMARK    1  A    between atoms: C_2  and  C_3
REMARK    2  A    between atoms: C_11  and  C_12
REMARK    3  A    between atoms: C_12  and  C_13
REMARK    4  A    between atoms: C_28  and  C_30
REMARK                            x       y       z     vdW  Elec       q    Type
REMARK                         _______ _______ _______ _____ _____    ______ ____
ROOT
ATOM      1  C   UNL     1      -3.581  -2.239  25.007  0.00  0.00    +0.005 C 
ATOM      2  C   UNL     1      -2.951  -1.723  24.874  0.00  0.00    +0.059 C 
ATOM      5  C   UNL     1      -2.588  -2.441  24.695  0.00  0.00    +0.154 C 
ATOM      6  O   UNL     1      -3.015  -3.145  24.750  0.00  0.00    -0.223 OA
ATOM      7  C   UNL     1      -1.796  -2.456  24.462  0.00  0.00    +0.033 C 
ATOM      8  C   UNL     1      -1.369  -1.753  24.407  0.00  0.00    +0.003 C 
ATOM      9  C   UNL     1      -1.733  -1.035  24.586  0.00  0.00    +0.006 C 
ATOM     10  C   UNL     1      -0.942  -1.049  24.352  0.00  0.00    +0.000 C 
ATOM     11  C   UNL     1      -1.306  -0.330  24.531  0.00  0.00    +0.050 C 
ATOM     21  C   UNL     1      -1.669   0.388  24.710  0.00  0.00    +0.063 A 
ATOM     22  C   UNL     1      -2.461   0.403  24.944  0.00  0.00    +0.023 A 
ATOM     23  C   UNL     1      -2.888  -0.301  24.998  0.00  0.00    +0.034 C 
ATOM     24  C   UNL     1      -2.525  -1.020  24.819  0.00  0.00    +0.010 C 
ATOM     25  S   UNL     1      -2.670   1.188  25.084  0.00  0.00    -0.054 S 
ATOM     26  C   UNL     1      -2.009   1.659  24.937  0.00  0.00    +0.185 A 
ATOM     27  N   UNL     1      -1.972   2.480  25.009  0.00  0.00    -0.154 NA
ATOM     28  C   UNL     1      -1.269   2.877  24.842  0.00  0.00    +0.247 C 
ATOM     29  O   UNL     1      -0.602   2.454  24.604  0.00  0.00    -0.273 OA
ATOM     36  N   UNL     1      -1.391   1.164  24.706  0.00  0.00    -0.227 NA
ENDROOT
BRANCH  28  30
ATOM     30  C   UNL     1      -1.233   3.698  24.914  0.00  0.00    +0.079 C 
ATOM     31  C   UNL     1      -1.824   4.104  25.323  0.00  0.00    +0.009 C 
ATOM     32  C   UNL     1      -1.787   4.925  25.395  0.00  0.00    +0.000 C 
ATOM     33  C   UNL     1      -1.159   5.340  25.057  0.00  0.00    +0.000 C 
ATOM     34  C   UNL     1      -0.569   4.936  24.648  0.00  0.00    +0.000 C 
ATOM     35  C   UNL     1      -0.606   4.115  24.577  0.00  0.00    +0.009 C 
ENDBRANCH  28  30
BRANCH   2   3
ATOM      3  C   UNL     1      -3.534  -1.184  25.099  0.00  0.00    +0.184 C 
ATOM      4  O   UNL     1      -4.313  -1.437  25.203  0.00  0.00    -0.220 OA
ENDBRANCH   2   3
BRANCH  11  12
ATOM     12  C   UNL     1      -0.515  -0.345  24.298  0.00  0.00    +0.091 C 
BRANCH  12  13
ATOM     13  C   UNL     1      -0.309  -0.148  23.523  0.00  0.00    +0.226 C 
ATOM     14  O   UNL     1      -0.898   0.019  22.970  0.00  0.00    -0.275 OA
ATOM     15  N   UNL     1       0.484  -0.117  23.302  0.00  0.00    -0.274 N 
ATOM     16  C   UNL     1       0.690   0.080  22.528  0.00  0.00    +0.125 C 
ATOM     17  C   UNL     1       1.485   0.111  22.307  0.00  0.00    +0.164 C 
ATOM     18  O   UNL     1       2.073  -0.055  22.860  0.00  0.00    -0.350 OA
ATOM     19  C   UNL     1       1.868  -0.253  23.635  0.00  0.00    +0.164 C 
ATOM     20  C   UNL     1       1.074  -0.284  23.856  0.00  0.00    +0.125 C 
ENDBRANCH  12  13
ENDBRANCH  11  12
TORSDOF 4
ENDMDL
MODEL 8
REMARK VINA RESULT:     -11.2      2.661      5.198
REMARK  Name = 
REMARK  4 active torsions:
REMARK  status: ('A' for Active; 'I' for Inactive)
REMARK    1  A    between atoms: C_2  and  C_3
REMARK    2  A    between atoms: C_11  and  C_12
REMARK    3  A    between atoms: C_12  and  C_13
REMARK    4  A    between atoms: C_28  and  C_30
REMARK                            x       y       z     vdW  Elec       q    Type
REMARK                         _______ _______ _______ _____ _____    ______ ____
ROOT
ATOM      1  C   UNL     1      -3.293  -2.085  25.202  0.00  0.00    +0.005 C 
ATOM      2  C   UNL     1      -2.834  -1.424  25.024  0.00  0.00    +0.059 C 
ATOM      5  C   UNL     1      -3.503  -1.054  25.332  0.00  0.00    +0.154 C 
ATOM      6  O   UNL     1      -4.141  -1.507  25.596  0.00  0.00    -0.223 OA
ATOM      7  C   UNL     1      -3.536  -0.230  25.377  0.00  0.00    +0.033 C 
ATOM      8  C   UNL     1      -2.899   0.222  25.114  0.00  0.00    +0.003 C 
ATOM      9  C   UNL     1      -2.230  -0.147  24.805  0.00  0.00    +0.006 C 
ATOM     10  C   UNL     1      -2.262   0.675  24.850  0.00  0.00    +0.000 C 
ATOM     11  C   UNL     1      -1.592   0.305  24.541  0.00  0.00    +0.050 C 
ATOM     21  C   UNL     1      -0.923  -0.064  24.233  0.00  0.00    +0.063 A 
ATOM     22  C   UNL     1      -0.890  -0.889  24.188  0.00  0.00    +0.023 A 
ATOM     23  C   UNL     1      -1.527  -1.341  24.452  0.00  0.00    +0.034 C 
ATOM     24  C   UNL     1      -2.197  -0.971  24.760  0.00  0.00    +0.010 C 
ATOM     25  S   UNL     1      -0.162  -1.096  23.860  0.00  0.00    -0.054 S 
ATOM     26  C   UNL     1       0.255  -0.403  23.702  0.00  0.00    +0.185 A 
ATOM     27  N   UNL     1       1.009  -0.355  23.372  0.00  0.00    -0.154 NA
ATOM     28  C   UNL     1       1.358   0.381  23.246  0.00  0.00    +0.247 C 
ATOM     29  O   UNL     1       0.953   1.071  23.450  0.00  0.00    -0.273 OA
ATOM     36  N   UNL     1      -0.215   0.235  23.933  0.00  0.00    -0.227 NA
ENDROOT
BRANCH  28  30
ATOM     30  C   UNL     1       2.112   0.429  22.916  0.00  0.00    +0.079 C 
ATOM     31  C   UNL     1       2.688   0.905  23.268  0.00  0.00    +0.009 C 
ATOM     32  C   UNL     1       3.443   0.953  22.938  0.00  0.00    +0.000 C 
ATOM     33  C   UNL     1       3.621   0.525  22.255  0.00  0.00    +0.000 C 
ATOM     34  C   UNL     1       3.047   0.050  21.903  0.00  0.00    +0.000 C 
ATOM     35  C   UNL     1       2.293   0.002  22.233  0.00  0.00    +0.009 C 
ENDBRANCH  28  30
BRANCH   2   3
ATOM      3  C   UNL     1      -2.324  -2.024  24.777  0.00  0.00    +0.184 C 
ATOM      4  O   UNL     1      -2.572  -2.811  24.800  0.00  0.00    -0.220 OA
ENDBRANCH   2   3
BRANCH  11  12
ATOM     12  C   UNL     1      -1.625   1.128  24.586  0.00  0.00    +0.091 C 
BRANCH  12  13
ATOM     13  C   UNL     1      -1.214   1.526  25.182  0.00  0.00    +0.226 C 
ATOM     14  O   UNL     1      -0.889   1.103  25.811  0.00  0.00    -0.275 OA
ATOM     15  N   UNL     1      -1.129   2.345  25.148  0.00  0.00    -0.274 N 
ATOM     16  C   UNL     1      -0.719   2.743  25.743  0.00  0.00    +0.125 C 
ATOM     17  C   UNL     1      -0.634   3.563  25.709  0.00  0.00    +0.164 C 
ATOM     18  O   UNL     1      -0.959   3.985  25.080  0.00  0.00    -0.350 OA
ATOM     19  C   UNL     1      -1.369   3.588  24.484  0.00  0.00    +0.164 C 
ATOM     20  C   UNL     1      -1.454   2.768  24.518  0.00  0.00    +0.125 C 
ENDBRANCH  12  13
ENDBRANCH  11  12
TORSDOF 4
ENDMDL
