MODEL 1
REMARK VINA RESULT:      -9.5      0.000      0.000
REMARK  Name = 
REMARK  4 active torsions:
REMARK  status: ('A' for Active; 'I' for Inactive)
REMARK    1  A    between atoms: O_2  and  C_3
REMARK    2  A    between atoms: C_3  and  C_4
REMARK    3  A    between atoms: C_4  and  C_5
REMARK    4  A    between atoms: C_10  and  C_12
REMARK                            x       y       z     vdW  Elec       q    Type
REMARK                         _______ _______ _______ _____ _____    ______ ____
ROOT
ATOM      5  C   UNL     1      -2.033   2.529  25.146  0.00  0.00    +0.228 C 
ATOM      6  O   UNL     1      -1.271   2.281  25.340  0.00  0.00    -0.275 OA
ATOM      7  N   UNL     1      -2.613   1.972  24.956  0.00  0.00    -0.279 N 
ATOM      8  C   UNL     1      -3.395   2.137  24.752  0.00  0.00    +0.094 C 
ATOM      9  C   UNL     1      -3.777   1.421  24.606  0.00  0.00    +0.032 C 
ATOM     10  C   UNL     1      -3.231   0.812  24.721  0.00  0.00    +0.098 C 
ATOM     11  C   UNL     1      -2.512   1.153  24.937  0.00  0.00    +0.103 C 
ENDROOT
BRANCH  10  12
ATOM     12  C   UNL     1      -3.379   0.006  24.635  0.00  0.00    +0.207 A 
ATOM     13  N   UNL     1      -3.880  -0.339  24.078  0.00  0.00    -0.212 NA
ATOM     14  C   UNL     1      -3.862  -1.156  24.189  0.00  0.00    +0.119 A 
ATOM     15  C   UNL     1      -3.350  -1.317  24.815  0.00  0.00    +0.164 A 
ATOM     16  O   UNL     1      -3.051  -0.599  25.090  0.00  0.00    -0.438 OA
ATOM     17  C   UNL     1      -3.222  -2.096  25.053  0.00  0.00    +0.039 A 
ATOM     18  C   UNL     1      -3.606  -2.715  24.665  0.00  0.00    +0.003 A 
ATOM     19  C   UNL     1      -4.118  -2.554  24.039  0.00  0.00    +0.002 A 
ATOM     20  C   UNL     1      -4.247  -1.774  23.801  0.00  0.00    +0.022 A 
ENDBRANCH  10  12
BRANCH   5   4
ATOM      4  C   UNL     1      -2.217   3.333  25.141  0.00  0.00    +0.117 C 
BRANCH   4   3
ATOM      3  C   UNL     1      -1.624   3.891  25.271  0.00  0.00    +0.152 C 
BRANCH   3   2
ATOM      1  C   UNL     1      -1.332   5.277  25.077  0.00  0.00    +0.174 C 
ATOM      2  O   UNL     1      -1.822   4.686  25.378  0.00  0.00    -0.351 OA
ENDBRANCH   3   2
ENDBRANCH   4   3
ENDBRANCH   5   4
TORSDOF 4
ENDMDL
MODEL 2
REMARK VINA RESULT:      -9.0      0.893      5.086
REMARK  Name = 
REMARK  4 active torsions:
REMARK  status: ('A' for Active; 'I' for Inactive)
REMARK    1  A    between atoms: O_2  and  C_3
REMARK    2  A    between atoms: C_3  and  C_4
REMARK    3  A    between atoms: C_4  and  C_5
REMARK    4  A    between atoms: C_10  and  C_12
REMARK                            x       y       z     vdW  Elec       q    Type
REMARK                         _______ _______ _______ _____ _____    ______ ____
ROOT
ATOM      5  C   UNL     1      -3.299  -0.225  24.749  0.00  0.00    +0.228 C 
ATOM      6  O   UNL     1      -2.963  -0.469  25.462  0.00  0.00    -0.275 OA
ATOM      7  N   UNL     1      -3.180   0.546  24.479  0.00  0.00    -0.279 N 
ATOM      8  C   UNL     1      -3.479   0.868  23.781  0.00  0.00    +0.094 C 
ATOM      9  C   UNL     1      -3.224   1.651  23.731  0.00  0.00    +0.032 C 
ATOM     10  C   UNL     1      -2.767   1.814  24.399  0.00  0.00    +0.098 C 
ATOM     11  C   UNL     1      -2.740   1.131  24.861  0.00  0.00    +0.103 C 
ENDROOT
BRANCH  10  12
ATOM     12  C   UNL     1      -2.402   2.532  24.573  0.00  0.00    +0.207 A 
ATOM     13  N   UNL     1      -2.769   3.197  24.895  0.00  0.00    -0.212 NA
ATOM     14  C   UNL     1      -2.200   3.789  24.977  0.00  0.00    +0.119 A 
ATOM     15  C   UNL     1      -1.480   3.489  24.705  0.00  0.00    +0.164 A 
ATOM     16  O   UNL     1      -1.606   2.713  24.455  0.00  0.00    -0.438 OA
ATOM     17  C   UNL     1      -0.805   3.962  24.720  0.00  0.00    +0.039 A 
ATOM     18  C   UNL     1      -0.848   4.735  25.006  0.00  0.00    +0.003 A 
ATOM     19  C   UNL     1      -1.567   5.034  25.278  0.00  0.00    +0.002 A 
ATOM     20  C   UNL     1      -2.243   4.561  25.263  0.00  0.00    +0.022 A 
ENDBRANCH  10  12
BRANCH   5   4
ATOM      4  C   UNL     1      -3.755  -0.750  24.306  0.00  0.00    +0.117 C 
BRANCH   4   3
ATOM      3  C   UNL     1      -3.771  -1.550  24.505  0.00  0.00    +0.152 C 
BRANCH   3   2
ATOM      1  C   UNL     1      -3.994  -2.882  24.035  0.00  0.00    +0.174 C 
ATOM      2  O   UNL     1      -4.199  -2.082  24.041  0.00  0.00    -0.351 OA
ENDBRANCH   3   2
ENDBRANCH   4   3
ENDBRANCH   5   4
TORSDOF 4
ENDMDL
MODEL 3
REMARK VINA RESULT:      -8.9      2.158      2.446
REMARK  Name = 
REMARK  4 active torsions:
REMARK  status: ('A' for Active; 'I' for Inactive)
REMARK    1  A    between atoms: O_2  and  C_3
REMARK    2  A    between atoms: C_3  and  C_4
REMARK    3  A    between atoms: C_4  and  C_5
REMARK    4  A    between atoms: C_10  and  C_12
REMARK                            x       y       z     vdW  Elec       q    Type
REMARK                         _______ _______ _______ _____ _____    ______ ____
ROOT
ATOM      5  C   UNL     1      -5.277   2.143  25.347  0.00  0.00    +0.228 C 
ATOM      6  O   UNL     1      -5.880   1.904  25.857  0.00  0.00    -0.275 OA
ATOM      7  N   UNL     1      -4.782   1.581  25.001  0.00  0.00    -0.279 N 
ATOM      8  C   UNL     1      -4.160   1.736  24.483  0.00  0.00    +0.094 C 
ATOM      9  C   UNL     1      -3.815   1.016  24.274  0.00  0.00    +0.032 C 
ATOM     10  C   UNL     1      -4.226   0.415  24.663  0.00  0.00    +0.098 C 
ATOM     11  C   UNL     1      -4.823   0.764  25.113  0.00  0.00    +0.103 C 
ENDROOT
BRANCH  10  12
ATOM     12  C   UNL     1      -4.067  -0.393  24.612  0.00  0.00    +0.207 A 
ATOM     13  N   UNL     1      -3.616  -0.833  25.145  0.00  0.00    -0.212 NA
ATOM     14  C   UNL     1      -3.601  -1.615  24.882  0.00  0.00    +0.119 A 
ATOM     15  C   UNL     1      -4.042  -1.657  24.185  0.00  0.00    +0.164 A 
ATOM     16  O   UNL     1      -4.329  -0.902  24.019  0.00  0.00    -0.438 OA
ATOM     17  C   UNL     1      -4.124  -2.378  23.794  0.00  0.00    +0.039 A 
ATOM     18  C   UNL     1      -3.765  -3.057  24.097  0.00  0.00    +0.003 A 
ATOM     19  C   UNL     1      -3.325  -3.014  24.793  0.00  0.00    +0.002 A 
ATOM     20  C   UNL     1      -3.242  -2.292  25.186  0.00  0.00    +0.022 A 
ENDBRANCH  10  12
BRANCH   5   4
ATOM      4  C   UNL     1      -5.169   2.944  25.183  0.00  0.00    +0.117 C 
BRANCH   4   3
ATOM      3  C   UNL     1      -5.627   3.509  25.571  0.00  0.00    +0.152 C 
BRANCH   3   2
ATOM      1  C   UNL     1      -6.003   4.889  25.573  0.00  0.00    +0.174 C 
ATOM      2  O   UNL     1      -5.419   4.307  25.531  0.00  0.00    -0.351 OA
ENDBRANCH   3   2
ENDBRANCH   4   3
ENDBRANCH   5   4
TORSDOF 4
ENDMDL
MODEL 4
REMARK VINA RESULT:      -8.3      2.704      3.841
REMARK  Name = 
REMARK  4 active torsions:
REMARK  status: ('A' for Active; 'I' for Inactive)
REMARK    1  A    between atoms: O_2  and  C_3
REMARK    2  A    between atoms: C_3  and  C_4
REMARK    3  A    between atoms: C_4  and  C_5
REMARK    4  A    between atoms: C_10  and  C_12
REMARK                            x       y       z     vdW  Elec       q    Type
REMARK                         _______ _______ _______ _____ _____    ______ ____
ROOT
ATOM      5  C   UNL     1      -0.821   0.628  24.064  0.00  0.00    +0.228 C 
ATOM      6  O   UNL     1      -0.740   0.171  24.746  0.00  0.00    -0.275 OA
ATOM      7  N   UNL     1      -1.500   1.083  23.950  0.00  0.00    -0.279 N 
ATOM      8  C   UNL     1      -1.657   1.564  23.299  0.00  0.00    +0.094 C 
ATOM      9  C   UNL     1      -2.395   1.916  23.414  0.00  0.00    +0.032 C 
ATOM     10  C   UNL     1      -2.694   1.651  24.137  0.00  0.00    +0.098 C 
ATOM     11  C   UNL     1      -2.141   1.137  24.468  0.00  0.00    +0.103 C 
ENDROOT
BRANCH  10  12
ATOM     12  C   UNL     1      -3.418   1.864  24.469  0.00  0.00    +0.207 A 
ATOM     13  N   UNL     1      -3.577   2.561  24.879  0.00  0.00    -0.212 NA
ATOM     14  C   UNL     1      -4.368   2.545  25.114  0.00  0.00    +0.119 A 
ATOM     15  C   UNL     1      -4.698   1.837  24.848  0.00  0.00    +0.164 A 
ATOM     16  O   UNL     1      -4.111   1.416  24.449  0.00  0.00    -0.438 OA
ATOM     17  C   UNL     1      -5.489   1.668  25.003  0.00  0.00    +0.039 A 
ATOM     18  C   UNL     1      -5.952   2.207  25.424  0.00  0.00    +0.003 A 
ATOM     19  C   UNL     1      -5.623   2.914  25.690  0.00  0.00    +0.002 A 
ATOM     20  C   UNL     1      -4.830   3.084  25.535  0.00  0.00    +0.022 A 
ENDBRANCH  10  12
BRANCH   5   4
ATOM      4  C   UNL     1      -0.224   0.630  23.495  0.00  0.00    +0.117 C 
BRANCH   4   3
ATOM      3  C   UNL     1       0.411   0.108  23.563  0.00  0.00    +0.152 C 
BRANCH   3   2
ATOM      1  C   UNL     1       1.648  -0.030  22.858  0.00  0.00    +0.174 C 
ATOM      2  O   UNL     1       0.828  -0.125  22.889  0.00  0.00    -0.351 OA
ENDBRANCH   3   2
ENDBRANCH   4   3
ENDBRANCH   5   4
TORSDOF 4
ENDMDL
MODEL 5
REMARK VINA RESULT:      -7.7      2.024      4.800
REMARK  Name = 
REMARK  4 active torsions:
REMARK  status: ('A' for Active; 'I' for Inactive)
REMARK    1  A    between atoms: O_2  and  C_3
REMARK    2  A    between atoms: C_3  and  C_4
REMARK    3  A    between atoms: C_4  and  C_5
REMARK    4  A    between atoms: C_10  and  C_12
REMARK                            x       y       z     vdW  Elec       q    Type
REMARK                         _______ _______ _______ _____ _____    ______ ____
ROOT
ATOM      5  C   UNL     1      -3.502  -1.299  24.999  0.00  0.00    +0.228 C 
ATOM      6  O   UNL     1      -3.640  -1.486  25.790  0.00  0.00    -0.275 OA
ATOM      7  N   UNL     1      -3.680  -0.544  24.715  0.00  0.00    -0.279 N 
ATOM      8  C   UNL     1      -3.573  -0.279  23.942  0.00  0.00    +0.094 C 
ATOM      9  C   UNL     1      -3.824   0.507  23.905  0.00  0.00    +0.032 C 
ATOM     10  C   UNL     1      -4.086   0.727  24.656  0.00  0.00    +0.098 C 
ATOM     11  C   UNL     1      -3.997   0.077  25.157  0.00  0.00    +0.103 C 
ENDROOT
BRANCH  10  12
ATOM     12  C   UNL     1      -4.384   1.465  24.869  0.00  0.00    +0.207 A 
ATOM     13  N   UNL     1      -3.981   2.183  24.820  0.00  0.00    -0.212 NA
ATOM     14  C   UNL     1      -4.485   2.779  25.088  0.00  0.00    +0.119 A 
ATOM     15  C   UNL     1      -5.201   2.428  25.303  0.00  0.00    +0.164 A 
ATOM     16  O   UNL     1      -5.138   1.617  25.167  0.00  0.00    -0.438 OA
ATOM     17  C   UNL     1      -5.816   2.893  25.594  0.00  0.00    +0.039 A 
ATOM     18  C   UNL     1      -5.717   3.709  25.671  0.00  0.00    +0.003 A 
ATOM     19  C   UNL     1      -5.002   4.059  25.456  0.00  0.00    +0.002 A 
ATOM     20  C   UNL     1      -4.385   3.594  25.164  0.00  0.00    +0.022 A 
ENDBRANCH  10  12
BRANCH   5   4
ATOM      4  C   UNL     1      -3.186  -1.866  24.489  0.00  0.00    +0.117 C 
BRANCH   4   3
ATOM      3  C   UNL     1      -2.645  -2.419  24.774  0.00  0.00    +0.152 C 
BRANCH   3   2
ATOM      1  C   UNL     1      -1.378  -2.849  24.269  0.00  0.00    +0.174 C 
ATOM      2  O   UNL     1      -2.203  -2.874  24.246  0.00  0.00    -0.351 OA
ENDBRANCH   3   2
ENDBRANCH   4   3
ENDBRANCH   5   4
TORSDOF 4
ENDMDL
MODEL 6
REMARK VINA RESULT:      -7.0      2.085      2.617
REMARK  Name = 
REMARK  4 active torsions:
REMARK  status: ('A' for Active; 'I' for Inactive)
REMARK    1  A    between atoms: O_2  and  C_3
REMARK    2  A    between atoms: C_3  and  C_4
REMARK    3  A    between atoms: C_4  and  C_5
REMARK    4  A    between atoms: C_10  and  C_12
REMARK                            x       y       z     vdW  Elec       q    Type
REMARK                         _______ _______ _______ _____ _____    ______ ____
ROOT
ATOM      5  C   UNL     1      -3.980   2.749  25.167  0.00  0.00    +0.228 C 
ATOM      6  O   UNL     1      -3.394   3.301  25.347  0.00  0.00    -0.275 OA
ATOM      7  N   UNL     1      -3.776   1.962  25.022  0.00  0.00    -0.279 N 
ATOM      8  C   UNL     1      -4.299   1.353  24.836  0.00  0.00    +0.094 C 
ATOM      9  C   UNL     1      -3.860   0.661  24.737  0.00  0.00    +0.032 C 
ATOM     10  C   UNL     1      -3.065   0.844  24.862  0.00  0.00    +0.098 C 
ATOM     11  C   UNL     1      -3.013   1.649  25.038  0.00  0.00    +0.103 C 
ENDROOT
BRANCH  10  12
ATOM     12  C   UNL     1      -2.433   0.316  24.818  0.00  0.00    +0.207 A 
ATOM     13  N   UNL     1      -1.737   0.427  24.390  0.00  0.00    -0.212 NA
ATOM     14  C   UNL     1      -1.260  -0.237  24.501  0.00  0.00    +0.119 A 
ATOM     15  C   UNL     1      -1.661  -0.758  24.999  0.00  0.00    +0.164 A 
ATOM     16  O   UNL     1      -2.386  -0.416  25.195  0.00  0.00    -0.438 OA
ATOM     17  C   UNL     1      -1.315  -1.476  25.210  0.00  0.00    +0.039 A 
ATOM     18  C   UNL     1      -0.566  -1.673  24.923  0.00  0.00    +0.003 A 
ATOM     19  C   UNL     1      -0.165  -1.152  24.426  0.00  0.00    +0.002 A 
ATOM     20  C   UNL     1      -0.512  -0.433  24.214  0.00  0.00    +0.022 A 
ENDBRANCH  10  12
BRANCH   5   4
ATOM      4  C   UNL     1      -4.770   2.983  25.131  0.00  0.00    +0.117 C 
BRANCH   4   3
ATOM      3  C   UNL     1      -4.993   3.725  25.416  0.00  0.00    +0.152 C 
BRANCH   3   2
ATOM      1  C   UNL     1      -6.099   4.614  25.592  0.00  0.00    +0.174 C 
ATOM      2  O   UNL     1      -5.773   3.858  25.652  0.00  0.00    -0.351 OA
ENDBRANCH   3   2
ENDBRANCH   4   3
ENDBRANCH   5   4
TORSDOF 4
ENDMDL
MODEL 7
REMARK VINA RESULT:      -6.9      1.197      5.186
REMARK  Name = 
REMARK  4 active torsions:
REMARK  status: ('A' for Active; 'I' for Inactive)
REMARK    1  A    between atoms: O_2  and  C_3
REMARK    2  A    between atoms: C_3  and  C_4
REMARK    3  A    between atoms: C_4  and  C_5
REMARK    4  A    between atoms: C_10  and  C_12
REMARK                            x       y       z     vdW  Elec       q    Type
REMARK                         _______ _______ _______ _____ _____    ______ ____
ROOT
ATOM      5  C   UNL     1      -3.103  -0.569  24.410  0.00  0.00    +0.228 C 
ATOM      6  O   UNL     1      -3.692  -0.290  23.904  0.00  0.00    -0.275 OA
ATOM      7  N   UNL     1      -2.525  -0.054  24.695  0.00  0.00    -0.279 N 
ATOM      8  C   UNL     1      -1.906  -0.252  25.202  0.00  0.00    +0.094 C 
ATOM      9  C   UNL     1      -1.463   0.429  25.343  0.00  0.00    +0.032 C 
ATOM     10  C   UNL     1      -1.809   1.050  24.923  0.00  0.00    +0.098 C 
ATOM     11  C   UNL     1      -2.465   0.751  24.522  0.00  0.00    +0.103 C 
ENDROOT
BRANCH  10  12
ATOM     12  C   UNL     1      -1.545   1.831  24.907  0.00  0.00    +0.207 A 
ATOM     13  N   UNL     1      -1.381   2.301  25.564  0.00  0.00    -0.212 NA
ATOM     14  C   UNL     1      -1.133   3.040  25.294  0.00  0.00    +0.119 A 
ATOM     15  C   UNL     1      -1.143   3.027  24.469  0.00  0.00    +0.164 A 
ATOM     16  O   UNL     1      -1.398   2.279  24.230  0.00  0.00    -0.438 OA
ATOM     17  C   UNL     1      -0.920   3.696  24.043  0.00  0.00    +0.039 A 
ATOM     18  C   UNL     1      -0.686   4.380  24.442  0.00  0.00    +0.003 A 
ATOM     19  C   UNL     1      -0.675   4.394  25.266  0.00  0.00    +0.002 A 
ATOM     20  C   UNL     1      -0.898   3.723  25.693  0.00  0.00    +0.022 A 
ENDBRANCH  10  12
BRANCH   5   4
ATOM      4  C   UNL     1      -3.092  -1.364  24.632  0.00  0.00    +0.117 C 
BRANCH   4   3
ATOM      3  C   UNL     1      -3.600  -1.900  24.265  0.00  0.00    +0.152 C 
BRANCH   3   2
ATOM      1  C   UNL     1      -3.991  -3.258  24.046  0.00  0.00    +0.174 C 
ATOM      2  O   UNL     1      -3.416  -2.705  24.261  0.00  0.00    -0.351 OA
ENDBRANCH   3   2
ENDBRANCH   4   3
ENDBRANCH   5   4
TORSDOF 4
ENDMDL
MODEL 8
REMARK VINA RESULT:      -6.9     17.821     19.709
REMARK  Name = 
REMARK  4 active torsions:
REMARK  status: ('A' for Active; 'I' for Inactive)
REMARK    1  A    between atoms: O_2  and  C_3
REMARK    2  A    between atoms: C_3  and  C_4
REMARK    3  A    between atoms: C_4  and  C_5
REMARK    4  A    between atoms: C_10  and  C_12
REMARK                            x       y       z     vdW  Elec       q    Type
REMARK                         _______ _______ _______ _____ _____    ______ ____
ROOT
ATOM      5  C   UNL     1      12.813   8.040  17.484  0.00  0.00    +0.228 C 
ATOM      6  O   UNL     1      13.237   8.254  16.810  0.00  0.00    -0.275 OA
ATOM      7  N   UNL     1      13.210   7.740  18.144  0.00  0.00    -0.279 N 
ATOM      8  C   UNL     1      12.862   7.504  18.853  0.00  0.00    +0.094 C 
ATOM      9  C   UNL     1      13.460   7.243  19.357  0.00  0.00    +0.032 C 
ATOM     10  C   UNL     1      14.180   7.318  18.958  0.00  0.00    +0.098 C 
ATOM     11  C   UNL     1      14.025   7.625  18.209  0.00  0.00    +0.103 C 
ENDROOT
BRANCH  10  12
ATOM     12  C   UNL     1      14.922   7.120  19.257  0.00  0.00    +0.207 A 
ATOM     13  N   UNL     1      15.273   7.437  19.933  0.00  0.00    -0.212 NA
ATOM     14  C   UNL     1      16.013   7.083  20.027  0.00  0.00    +0.119 A 
ATOM     15  C   UNL     1      16.119   6.547  19.408  0.00  0.00    +0.164 A 
ATOM     16  O   UNL     1      15.445   6.570  18.933  0.00  0.00    -0.438 OA
ATOM     17  C   UNL     1      16.815   6.108  19.359  0.00  0.00    +0.039 A 
ATOM     18  C   UNL     1      17.405   6.205  19.927  0.00  0.00    +0.003 A 
ATOM     19  C   UNL     1      17.300   6.740  20.545  0.00  0.00    +0.002 A 
ATOM     20  C   UNL     1      16.603   7.180  20.595  0.00  0.00    +0.022 A 
ENDBRANCH  10  12
BRANCH   5   4
ATOM      4  C   UNL     1      11.993   8.124  17.501  0.00  0.00    +0.117 C 
BRANCH   4   3
ATOM      3  C   UNL     1      11.591   8.363  16.821  0.00  0.00    +0.152 C 
BRANCH   3   2
ATOM      1  C   UNL     1      10.266   8.696  16.398  0.00  0.00    +0.174 C 
ATOM      2  O   UNL     1      10.800   8.151  16.715  0.00  0.00    -0.351 OA
ENDBRANCH   3   2
ENDBRANCH   4   3
ENDBRANCH   5   4
TORSDOF 4
ENDMDL
MODEL 9
REMARK VINA RESULT:      -6.7     16.545     18.845
REMARK  Name = 
REMARK  4 active torsions:
REMARK  status: ('A' for Active; 'I' for Inactive)
REMARK    1  A    between atoms: O_2  and  C_3
REMARK    2  A    between atoms: C_3  and  C_4
REMARK    3  A    between atoms: C_4  and  C_5
REMARK    4  A    between atoms: C_10  and  C_12
REMARK                            x       y       z     vdW  Elec       q    Type
REMARK                         _______ _______ _______ _____ _____    ______ ____
ROOT
ATOM      5  C   UNL     1      12.148   7.057  21.106  0.00  0.00    +0.228 C 
ATOM      6  O   UNL     1      11.773   6.590  20.539  0.00  0.00    -0.275 OA
ATOM      7  N   UNL     1      12.970   7.131  21.102  0.00  0.00    -0.279 N 
ATOM      8  C   UNL     1      13.420   7.575  21.631  0.00  0.00    +0.094 C 
ATOM      9  C   UNL     1      14.214   7.492  21.424  0.00  0.00    +0.032 C 
ATOM     10  C   UNL     1      14.255   6.995  20.766  0.00  0.00    +0.098 C 
ATOM     11  C   UNL     1      13.487   6.772  20.567  0.00  0.00    +0.103 C 
ENDROOT
BRANCH  10  12
ATOM     12  C   UNL     1      14.944   6.763  20.376  0.00  0.00    +0.207 A 
ATOM     13  N   UNL     1      15.681   6.639  20.725  0.00  0.00    -0.212 NA
ATOM     14  C   UNL     1      16.210   6.414  20.134  0.00  0.00    +0.119 A 
ATOM     15  C   UNL     1      15.799   6.398  19.418  0.00  0.00    +0.164 A 
ATOM     16  O   UNL     1      15.017   6.614  19.568  0.00  0.00    -0.438 OA
ATOM     17  C   UNL     1      16.190   6.189  18.723  0.00  0.00    +0.039 A 
ATOM     18  C   UNL     1      16.993   5.996  18.743  0.00  0.00    +0.003 A 
ATOM     19  C   UNL     1      17.403   6.011  19.458  0.00  0.00    +0.002 A 
ATOM     20  C   UNL     1      17.011   6.221  20.154  0.00  0.00    +0.022 A 
ENDBRANCH  10  12
BRANCH   5   4
ATOM      4  C   UNL     1      11.702   7.450  21.678  0.00  0.00    +0.117 C 
BRANCH   4   3
ATOM      3  C   UNL     1      10.879   7.443  21.635  0.00  0.00    +0.152 C 
BRANCH   3   2
ATOM      1  C   UNL     1      10.093   8.334  22.430  0.00  0.00    +0.174 C 
ATOM      2  O   UNL     1      10.429   7.590  22.312  0.00  0.00    -0.351 OA
ENDBRANCH   3   2
ENDBRANCH   4   3
ENDBRANCH   5   4
TORSDOF 4
ENDMDL
MODEL 10
REMARK VINA RESULT:      -6.7     15.768     18.004
REMARK  Name = 
REMARK  4 active torsions:
REMARK  status: ('A' for Active; 'I' for Inactive)
REMARK    1  A    between atoms: O_2  and  C_3
REMARK    2  A    between atoms: C_3  and  C_4
REMARK    3  A    between atoms: C_4  and  C_5
REMARK    4  A    between atoms: C_10  and  C_12
REMARK                            x       y       z     vdW  Elec       q    Type
REMARK                         _______ _______ _______ _____ _____    ______ ____
ROOT
ATOM      5  C   UNL     1      13.247   8.228  17.554  0.00  0.00    +0.228 C 
ATOM      6  O   UNL     1      13.927   7.893  17.881  0.00  0.00    -0.275 OA
ATOM      7  N   UNL     1      12.581   8.355  18.026  0.00  0.00    -0.279 N 
ATOM      8  C   UNL     1      11.867   8.682  17.778  0.00  0.00    +0.094 C 
ATOM      9  C   UNL     1      11.358   8.706  18.427  0.00  0.00    +0.032 C 
ATOM     10  C   UNL     1      11.759   8.392  19.077  0.00  0.00    +0.098 C 
ATOM     11  C   UNL     1      12.515   8.175  18.829  0.00  0.00    +0.103 C 
ENDROOT
BRANCH  10  12
ATOM     12  C   UNL     1      11.456   8.310  19.840  0.00  0.00    +0.207 A 
ATOM     13  N   UNL     1      11.333   8.921  20.381  0.00  0.00    -0.212 NA
ATOM     14  C   UNL     1      11.024   8.592  21.071  0.00  0.00    +0.119 A 
ATOM     15  C   UNL     1      10.957   7.777  20.957  0.00  0.00    +0.164 A 
ATOM     16  O   UNL     1      11.224   7.604  20.196  0.00  0.00    -0.438 OA
ATOM     17  C   UNL     1      10.662   7.300  21.561  0.00  0.00    +0.039 A 
ATOM     18  C   UNL     1      10.433   7.636  22.279  0.00  0.00    +0.003 A 
ATOM     19  C   UNL     1      10.500   8.450  22.393  0.00  0.00    +0.002 A 
ATOM     20  C   UNL     1      10.796   8.928  21.789  0.00  0.00    +0.022 A 
ENDBRANCH  10  12
BRANCH   5   4
ATOM      4  C   UNL     1      13.232   8.436  16.756  0.00  0.00    +0.117 C 
BRANCH   4   3
ATOM      3  C   UNL     1      13.930   8.433  16.317  0.00  0.00    +0.152 C 
BRANCH   3   2
ATOM      1  C   UNL     1      14.422   9.006  15.103  0.00  0.00    +0.174 C 
ATOM      2  O   UNL     1      13.900   8.501  15.495  0.00  0.00    -0.351 OA
ENDBRANCH   3   2
ENDBRANCH   4   3
ENDBRANCH   5   4
TORSDOF 4
ENDMDL
