MODEL 1
REMARK VINA RESULT:     -12.6      0.000      0.000
REMARK  Name = 
REMARK  6 active torsions:
REMARK  status: ('A' for Active; 'I' for Inactive)
REMARK    1  A    between atoms: C_5  and  C_8
REMARK    2  A    between atoms: C_10  and  C_11
REMARK    3  A    between atoms: C_11  and  C_12
REMARK    4  A    between atoms: C_12  and  N_16
REMARK    5  A    between atoms: N_16  and  C_17
REMARK    6  A    between atoms: C_17  and  C_18
REMARK                            x       y       z     vdW  Elec       q    Type
REMARK                         _______ _______ _______ _____ _____    ______ ____
ROOT
ATOM     11  C   UNL     1      -4.211   2.290  24.592  0.00  0.00    +0.070 C 
ENDROOT
BRANCH  11  10
ATOM      8  C   UNL     1      -4.296   0.179  24.899  0.00  0.00    +0.177 A 
ATOM      9  C   UNL     1      -3.969   0.841  24.531  0.00  0.00    +0.058 A 
ATOM     10  C   UNL     1      -4.361   1.509  24.813  0.00  0.00    +0.102 A 
ATOM     24  N   UNL     1      -4.931   1.261  25.355  0.00  0.00    -0.081 NA
ATOM     25  O   UNL     1      -4.891   0.439  25.408  0.00  0.00    -0.354 OA
BRANCH   8   5
ATOM      1  F   UNL     1      -3.388  -2.957  24.419  0.00  0.00    -0.204 F 
ATOM      2  C   UNL     1      -3.616  -2.173  24.539  0.00  0.00    +0.140 A 
ATOM      3  C   UNL     1      -3.388  -1.778  25.228  0.00  0.00    +0.030 A 
ATOM      4  C   UNL     1      -3.616  -0.994  25.347  0.00  0.00    +0.005 A 
ATOM      5  C   UNL     1      -4.070  -0.605  24.778  0.00  0.00    +0.037 A 
ATOM      6  C   UNL     1      -4.296  -0.999  24.091  0.00  0.00    +0.005 A 
ATOM      7  C   UNL     1      -4.069  -1.783  23.971  0.00  0.00    +0.030 A 
ENDBRANCH   8   5
ENDBRANCH  11  10
BRANCH  11  12
ATOM     12  C   UNL     1      -4.335   2.902  25.130  0.00  0.00    +0.120 C 
ATOM     13  C   UNL     1      -4.459   3.516  25.669  0.00  0.00    +0.161 C 
ATOM     14  O   UNL     1      -5.272   3.470  25.532  0.00  0.00    -0.351 OA
ATOM     15  C   UNL     1      -5.148   2.857  24.994  0.00  0.00    +0.161 C 
BRANCH  12  16
ATOM     16  N   UNL     1      -3.522   2.948  25.266  0.00  0.00    -0.211 NA
BRANCH  16  17
ATOM     17  C   UNL     1      -3.167   3.682  25.395  0.00  0.00    +0.115 C 
BRANCH  17  18
ATOM     18  C   UNL     1      -2.345   3.748  25.391  0.00  0.00    -0.005 A 
ATOM     19  C   UNL     1      -1.982   4.352  24.962  0.00  0.00    -0.003 A 
ATOM     20  C   UNL     1      -1.160   4.419  24.957  0.00  0.00    -0.000 A 
ATOM     21  C   UNL     1      -0.700   3.881  25.382  0.00  0.00    -0.000 A 
ATOM     22  C   UNL     1      -1.063   3.277  25.811  0.00  0.00    -0.000 A 
ATOM     23  C   UNL     1      -1.886   3.211  25.815  0.00  0.00    -0.003 A 
ENDBRANCH  17  18
ENDBRANCH  16  17
ENDBRANCH  12  16
ENDBRANCH  11  12
TORSDOF 6
ENDMDL
MODEL 2
REMARK VINA RESULT:     -12.4      1.952      4.761
REMARK  Name = 
REMARK  6 active torsions:
REMARK  status: ('A' for Active; 'I' for Inactive)
REMARK    1  A    between atoms: C_5  and  C_8
REMARK    2  A    between atoms: C_10  and  C_11
REMARK    3  A    between atoms: C_11  and  C_12
REMARK    4  A    between atoms: C_12  and  N_16
REMARK    5  A    between atoms: N_16  and  C_17
REMARK    6  A    between atoms: C_17  and  C_18
REMARK                            x       y       z     vdW  Elec       q    Type
REMARK                         _______ _______ _______ _____ _____    ______ ____
ROOT
ATOM     11  C   UNL     1      -4.361   2.098  24.520  0.00  0.00    +0.070 C 
ENDROOT
BRANCH  11  10
ATOM      8  C   UNL     1      -2.908   3.516  25.180  0.00  0.00    +0.177 A 
ATOM      9  C   UNL     1      -3.196   2.990  24.613  0.00  0.00    +0.058 A 
ATOM     10  C   UNL     1      -3.890   2.654  24.906  0.00  0.00    +0.102 A 
ATOM     24  N   UNL     1      -4.031   2.972  25.654  0.00  0.00    -0.081 NA
ATOM     25  O   UNL     1      -3.424   3.505  25.823  0.00  0.00    -0.354 OA
BRANCH   8   5
ATOM      1  F   UNL     1      -0.172   5.344  24.920  0.00  0.00    -0.204 F 
ATOM      2  C   UNL     1      -0.856   4.886  24.985  0.00  0.00    +0.140 A 
ATOM      3  C   UNL     1      -1.587   5.252  25.103  0.00  0.00    +0.030 A 
ATOM      4  C   UNL     1      -2.271   4.795  25.168  0.00  0.00    +0.005 A 
ATOM      5  C   UNL     1      -2.224   3.972  25.115  0.00  0.00    +0.037 A 
ATOM      6  C   UNL     1      -1.494   3.608  24.996  0.00  0.00    +0.005 A 
ATOM      7  C   UNL     1      -0.810   4.065  24.932  0.00  0.00    +0.030 A 
ENDBRANCH   8   5
ENDBRANCH  11  10
BRANCH  11  12
ATOM     12  C   UNL     1      -4.951   1.698  24.935  0.00  0.00    +0.120 C 
ATOM     13  C   UNL     1      -5.541   1.297  25.350  0.00  0.00    +0.161 C 
ATOM     14  O   UNL     1      -6.034   1.955  25.283  0.00  0.00    -0.351 OA
ATOM     15  C   UNL     1      -5.445   2.355  24.868  0.00  0.00    +0.161 C 
BRANCH  12  16
ATOM     16  N   UNL     1      -4.457   1.039  25.002  0.00  0.00    -0.211 NA
BRANCH  16  17
ATOM     17  C   UNL     1      -4.761   0.283  24.871  0.00  0.00    +0.115 C 
BRANCH  17  18
ATOM     18  C   UNL     1      -4.253  -0.368  24.863  0.00  0.00    -0.005 A 
ATOM     19  C   UNL     1      -4.132  -0.786  24.162  0.00  0.00    -0.003 A 
ATOM     20  C   UNL     1      -3.626  -1.437  24.152  0.00  0.00    -0.000 A 
ATOM     21  C   UNL     1      -3.240  -1.669  24.843  0.00  0.00    -0.000 A 
ATOM     22  C   UNL     1      -3.361  -1.251  25.544  0.00  0.00    -0.000 A 
ATOM     23  C   UNL     1      -3.868  -0.600  25.553  0.00  0.00    -0.003 A 
ENDBRANCH  17  18
ENDBRANCH  16  17
ENDBRANCH  12  16
ENDBRANCH  11  12
TORSDOF 6
ENDMDL
MODEL 3
REMARK VINA RESULT:     -11.5      2.696      5.589
REMARK  Name = 
REMARK  6 active torsions:
REMARK  status: ('A' for Active; 'I' for Inactive)
REMARK    1  A    between atoms: C_5  and  C_8
REMARK    2  A    between atoms: C_10  and  C_11
REMARK    3  A    between atoms: C_11  and  C_12
REMARK    4  A    between atoms: C_12  and  N_16
REMARK    5  A    between atoms: N_16  and  C_17
REMARK    6  A    between atoms: C_17  and  C_18
REMARK                            x       y       z     vdW  Elec       q    Type
REMARK                         _______ _______ _______ _____ _____    ______ ____
ROOT
ATOM     11  C   UNL     1      -1.771   0.432  25.226  0.00  0.00    +0.070 C 
ENDROOT
BRANCH  11  10
ATOM      8  C   UNL     1      -1.590   2.501  24.730  0.00  0.00    +0.177 A 
ATOM      9  C   UNL     1      -1.676   1.898  25.287  0.00  0.00    +0.058 A 
ATOM     10  C   UNL     1      -1.692   1.178  24.884  0.00  0.00    +0.102 A 
ATOM     24  N   UNL     1      -1.616   1.336  24.078  0.00  0.00    -0.081 NA
ATOM     25  O   UNL     1      -1.553   2.153  23.983  0.00  0.00    -0.354 OA
BRANCH   8   5
ATOM      1  F   UNL     1      -1.422   5.732  25.376  0.00  0.00    -0.204 F 
ATOM      2  C   UNL     1      -1.465   4.924  25.215  0.00  0.00    +0.140 A 
ATOM      3  C   UNL     1      -0.796   4.522  24.942  0.00  0.00    +0.030 A 
ATOM      4  C   UNL     1      -0.839   3.714  24.781  0.00  0.00    +0.005 A 
ATOM      5  C   UNL     1      -1.548   3.308  24.892  0.00  0.00    +0.037 A 
ATOM      6  C   UNL     1      -2.215   3.709  25.164  0.00  0.00    +0.005 A 
ATOM      7  C   UNL     1      -2.173   4.517  25.326  0.00  0.00    +0.030 A 
ENDBRANCH   8   5
ENDBRANCH  11  10
BRANCH  11  12
ATOM     12  C   UNL     1      -1.366  -0.212  24.908  0.00  0.00    +0.120 C 
ATOM     13  C   UNL     1      -0.960  -0.858  24.590  0.00  0.00    +0.161 C 
ATOM     14  O   UNL     1      -0.250  -0.552  24.877  0.00  0.00    -0.351 OA
ATOM     15  C   UNL     1      -0.655   0.092  25.195  0.00  0.00    +0.161 C 
BRANCH  12  16
ATOM     16  N   UNL     1      -2.077  -0.518  24.621  0.00  0.00    -0.211 NA
BRANCH  16  17
ATOM     17  C   UNL     1      -2.444  -1.143  25.014  0.00  0.00    +0.115 C 
BRANCH  17  18
ATOM     18  C   UNL     1      -3.072  -1.542  24.656  0.00  0.00    -0.005 A 
ATOM     19  C   UNL     1      -3.068  -2.366  24.618  0.00  0.00    -0.003 A 
ATOM     20  C   UNL     1      -3.695  -2.766  24.261  0.00  0.00    -0.000 A 
ATOM     21  C   UNL     1      -4.326  -2.341  23.942  0.00  0.00    -0.000 A 
ATOM     22  C   UNL     1      -4.331  -1.517  23.981  0.00  0.00    -0.000 A 
ATOM     23  C   UNL     1      -3.703  -1.118  24.338  0.00  0.00    -0.003 A 
ENDBRANCH  17  18
ENDBRANCH  16  17
ENDBRANCH  12  16
ENDBRANCH  11  12
TORSDOF 6
ENDMDL
