MODEL 1
REMARK VINA RESULT:     -10.7      0.000      0.000
REMARK  Name = 
REMARK  5 active torsions:
REMARK  status: ('A' for Active; 'I' for Inactive)
REMARK    1  A    between atoms: C_4  and  C_15
REMARK    2  A    between atoms: C_6  and  C_8
REMARK    3  A    between atoms: C_22  and  C_23
REMARK    4  A    between atoms: C_23  and  N_24
REMARK    5  A    between atoms: N_27  and  C_28
REMARK                            x       y       z     vdW  Elec       q    Type
REMARK                         _______ _______ _______ _____ _____    ______ ____
ROOT
ATOM     15  C   UNL     1      -1.632   0.766  24.231  0.00  0.00    +0.056 C 
ATOM     16  C   UNL     1      -1.057   0.495  24.680  0.00  0.00    +0.078 C 
ATOM     17  N   UNL     1      -0.971   0.969  24.010  0.00  0.00    -0.272 NA
ATOM     18  C   UNL     1      -1.932   1.157  23.637  0.00  0.00    +0.072 C 
ATOM     19  C   UNL     1      -2.326   1.435  23.196  0.00  0.00    +0.018 C 
ATOM     20  C   UNL     1      -1.539   1.230  23.574  0.00  0.00    +0.010 C 
ATOM     21  C   UNL     1      -0.826   1.557  23.182  0.00  0.00    +0.018 C 
ATOM     22  C   UNL     1      -0.233   1.312  23.596  0.00  0.00    +0.079 C 
ENDROOT
BRANCH  15   4
ATOM      1  C   UNL     1      -4.190   1.500  25.276  0.00  0.00    +0.074 C 
ATOM      2  C   UNL     1      -3.683   0.928  24.964  0.00  0.00    +0.139 A 
ATOM      3  N   UNL     1      -2.912   1.132  24.754  0.00  0.00    -0.235 NA
ATOM      4  C   UNL     1      -2.405   0.561  24.442  0.00  0.00    +0.063 A 
ATOM      5  C   UNL     1      -2.668  -0.213  24.340  0.00  0.00    +0.034 A 
ATOM      6  C   UNL     1      -3.439  -0.417  24.551  0.00  0.00    +0.084 A 
ATOM      7  N   UNL     1      -3.946   0.153  24.863  0.00  0.00    -0.231 NA
BRANCH   6   8
ATOM      8  C   UNL     1      -3.703  -1.192  24.450  0.00  0.00    +0.024 A 
ATOM      9  C   UNL     1      -3.594  -1.747  25.051  0.00  0.00    +0.036 A 
ATOM     10 BR   UNL     1      -3.220  -1.527  25.752  0.00  0.00    -0.049 Br
ATOM     11  C   UNL     1      -3.858  -2.522  24.951  0.00  0.00    +0.007 A 
ATOM     12  C   UNL     1      -4.232  -2.743  24.248  0.00  0.00    +0.001 A 
ATOM     13  C   UNL     1      -4.341  -2.188  23.648  0.00  0.00    +0.000 A 
ATOM     14  C   UNL     1      -4.077  -1.413  23.748  0.00  0.00    +0.002 A 
ENDBRANCH   6   8
ENDBRANCH  15   4
BRANCH  22  23
ATOM     23  C   UNL     1       0.589   1.342  23.642  0.00  0.00    +0.133 C 
BRANCH  23  24
ATOM     24  N   UNL     1       1.047   0.879  23.136  0.00  0.00    -0.185 NA
ATOM     25  C   UNL     1       1.861   0.817  23.255  0.00  0.00    +0.344 C 
ATOM     26  O   UNL     1       2.217   1.218  23.882  0.00  0.00    -0.249 OA
ATOM     27  N   UNL     1       2.319   0.354  22.748  0.00  0.00    -0.161 NA
BRANCH  27  28
ATOM     28  C   UNL     1       3.133   0.293  22.868  0.00  0.00    +0.075 A 
ATOM     29  C   UNL     1       3.447  -0.380  23.227  0.00  0.00    +0.018 A 
ATOM     30  C   UNL     1       4.261  -0.442  23.347  0.00  0.00    +0.013 A 
ATOM     31  C   UNL     1       4.761   0.170  23.108  0.00  0.00    +0.058 A 
ATOM     32 CL   UNL     1       5.575   0.107  23.228  0.00  0.00    -0.082 Cl
ATOM     33  C   UNL     1       4.447   0.843  22.749  0.00  0.00    +0.013 A 
ATOM     34  C   UNL     1       3.633   0.904  22.629  0.00  0.00    +0.018 A 
ENDBRANCH  27  28
ENDBRANCH  23  24
ENDBRANCH  22  23
TORSDOF 5
ENDMDL
MODEL 2
REMARK VINA RESULT:      -9.6      1.201      2.500
REMARK  Name = 
REMARK  5 active torsions:
REMARK  status: ('A' for Active; 'I' for Inactive)
REMARK    1  A    between atoms: C_4  and  C_15
REMARK    2  A    between atoms: C_6  and  C_8
REMARK    3  A    between atoms: C_22  and  C_23
REMARK    4  A    between atoms: C_23  and  N_24
REMARK    5  A    between atoms: N_27  and  C_28
REMARK                            x       y       z     vdW  Elec       q    Type
REMARK                         _______ _______ _______ _____ _____    ______ ____
ROOT
ATOM     15  C   UNL     1      -1.921   0.911  24.083  0.00  0.00    +0.056 C 
ATOM     16  C   UNL     1      -1.677   1.340  23.481  0.00  0.00    +0.078 C 
ATOM     17  N   UNL     1      -1.197   0.938  24.019  0.00  0.00    -0.272 NA
ATOM     18  C   UNL     1      -1.832   0.460  24.703  0.00  0.00    +0.072 C 
ATOM     19  C   UNL     1      -1.919   0.082  25.229  0.00  0.00    +0.018 C 
ATOM     20  C   UNL     1      -1.444   0.519  24.607  0.00  0.00    +0.010 C 
ATOM     21  C   UNL     1      -0.571   0.451  24.670  0.00  0.00    +0.018 C 
ATOM     22  C   UNL     1      -0.291   0.863  24.091  0.00  0.00    +0.079 C 
ENDROOT
BRANCH  15   4
ATOM      1  C   UNL     1      -4.330  -0.621  23.951  0.00  0.00    +0.074 C 
ATOM      2  C   UNL     1      -3.941   0.083  24.131  0.00  0.00    +0.139 A 
ATOM      3  N   UNL     1      -3.126   0.145  24.017  0.00  0.00    -0.235 NA
ATOM      4  C   UNL     1      -2.737   0.850  24.197  0.00  0.00    +0.063 A 
ATOM      5  C   UNL     1      -3.161   1.493  24.491  0.00  0.00    +0.034 A 
ATOM      6  C   UNL     1      -3.975   1.431  24.604  0.00  0.00    +0.084 A 
ATOM      7  N   UNL     1      -4.366   0.727  24.425  0.00  0.00    -0.231 NA
BRANCH   6   8
ATOM      8  C   UNL     1      -4.401   2.074  24.898  0.00  0.00    +0.024 A 
ATOM      9  C   UNL     1      -4.572   2.714  24.407  0.00  0.00    +0.036 A 
ATOM     10 BR   UNL     1      -4.317   2.712  23.622  0.00  0.00    -0.049 Br
ATOM     11  C   UNL     1      -4.998   3.358  24.700  0.00  0.00    +0.007 A 
ATOM     12  C   UNL     1      -5.252   3.360  25.485  0.00  0.00    +0.001 A 
ATOM     13  C   UNL     1      -5.082   2.720  25.976  0.00  0.00    +0.000 A 
ATOM     14  C   UNL     1      -4.656   2.077  25.683  0.00  0.00    +0.002 A 
ENDBRANCH   6   8
ENDBRANCH  15   4
BRANCH  22  23
ATOM     23  C   UNL     1       0.416   1.099  23.739  0.00  0.00    +0.133 C 
BRANCH  23  24
ATOM     24  N   UNL     1       0.878   0.550  23.332  0.00  0.00    -0.185 NA
ATOM     25  C   UNL     1       1.700   0.613  23.342  0.00  0.00    +0.344 C 
ATOM     26  O   UNL     1       2.061   1.226  23.759  0.00  0.00    -0.249 OA
ATOM     27  N   UNL     1       2.162   0.064  22.935  0.00  0.00    -0.161 NA
BRANCH  27  28
ATOM     28  C   UNL     1       2.985   0.128  22.946  0.00  0.00    +0.075 A 
ATOM     29  C   UNL     1       3.438  -0.445  23.329  0.00  0.00    +0.018 A 
ATOM     30  C   UNL     1       4.261  -0.381  23.340  0.00  0.00    +0.013 A 
ATOM     31  C   UNL     1       4.630   0.256  22.967  0.00  0.00    +0.058 A 
ATOM     32 CL   UNL     1       5.452   0.319  22.978  0.00  0.00    -0.082 Cl
ATOM     33  C   UNL     1       4.176   0.828  22.583  0.00  0.00    +0.013 A 
ATOM     34  C   UNL     1       3.354   0.764  22.573  0.00  0.00    +0.018 A 
ENDBRANCH  27  28
ENDBRANCH  23  24
ENDBRANCH  22  23
TORSDOF 5
ENDMDL
MODEL 3
REMARK VINA RESULT:      -8.4      3.306      5.232
REMARK  Name = 
REMARK  5 active torsions:
REMARK  status: ('A' for Active; 'I' for Inactive)
REMARK    1  A    between atoms: C_4  and  C_15
REMARK    2  A    between atoms: C_6  and  C_8
REMARK    3  A    between atoms: C_22  and  C_23
REMARK    4  A    between atoms: C_23  and  N_24
REMARK    5  A    between atoms: N_27  and  C_28
REMARK                            x       y       z     vdW  Elec       q    Type
REMARK                         _______ _______ _______ _____ _____    ______ ____
ROOT
ATOM     15  C   UNL     1      -1.254   2.237  24.915  0.00  0.00    +0.056 C 
ATOM     16  C   UNL     1      -1.475   1.813  24.301  0.00  0.00    +0.078 C 
ATOM     17  N   UNL     1      -0.937   1.583  24.883  0.00  0.00    -0.272 NA
ATOM     18  C   UNL     1      -0.860   2.377  25.564  0.00  0.00    +0.072 C 
ATOM     19  C   UNL     1      -0.605   2.637  26.106  0.00  0.00    +0.018 C 
ATOM     20  C   UNL     1      -0.725   2.004  25.482  0.00  0.00    +0.010 C 
ATOM     21  C   UNL     1      -0.264   1.265  25.589  0.00  0.00    +0.018 C 
ATOM     22  C   UNL     1      -0.455   0.818  25.000  0.00  0.00    +0.079 C 
ENDROOT
BRANCH  15   4
ATOM      1  C   UNL     1      -0.973   5.082  24.913  0.00  0.00    +0.074 C 
ATOM      2  C   UNL     1      -1.446   4.411  24.994  0.00  0.00    +0.139 A 
ATOM      3  N   UNL     1      -1.114   3.660  24.914  0.00  0.00    -0.235 NA
ATOM      4  C   UNL     1      -1.587   2.989  24.995  0.00  0.00    +0.063 A 
ATOM      5  C   UNL     1      -2.391   3.068  25.157  0.00  0.00    +0.034 A 
ATOM      6  C   UNL     1      -2.723   3.818  25.237  0.00  0.00    +0.084 A 
ATOM      7  N   UNL     1      -2.251   4.490  25.156  0.00  0.00    -0.231 NA
BRANCH   6   8
ATOM      8  C   UNL     1      -3.528   3.899  25.399  0.00  0.00    +0.024 A 
ATOM      9  C   UNL     1      -4.073   3.919  24.780  0.00  0.00    +0.036 A 
ATOM     10 BR   UNL     1      -3.813   3.859  24.000  0.00  0.00    -0.049 Br
ATOM     11  C   UNL     1      -4.879   3.999  24.941  0.00  0.00    +0.007 A 
ATOM     12  C   UNL     1      -5.139   4.059  25.722  0.00  0.00    +0.001 A 
ATOM     13  C   UNL     1      -4.594   4.039  26.340  0.00  0.00    +0.000 A 
ATOM     14  C   UNL     1      -3.789   3.959  26.180  0.00  0.00    +0.002 A 
ENDBRANCH   6   8
ENDBRANCH  15   4
BRANCH  22  23
ATOM     23  C   UNL     1      -0.310   0.078  24.667  0.00  0.00    +0.133 C 
BRANCH  23  24
ATOM     24  N   UNL     1      -0.556  -0.606  25.058  0.00  0.00    -0.185 NA
ATOM     25  C   UNL     1      -1.198  -1.037  24.771  0.00  0.00    +0.344 C 
ATOM     26  O   UNL     1      -1.594  -0.784  24.093  0.00  0.00    -0.249 OA
ATOM     27  N   UNL     1      -1.445  -1.720  25.162  0.00  0.00    -0.161 NA
BRANCH  27  28
ATOM     28  C   UNL     1      -2.087  -2.151  24.874  0.00  0.00    +0.075 A 
ATOM     29  C   UNL     1      -2.850  -1.977  25.135  0.00  0.00    +0.018 A 
ATOM     30  C   UNL     1      -3.493  -2.408  24.848  0.00  0.00    +0.013 A 
ATOM     31  C   UNL     1      -3.372  -3.013  24.299  0.00  0.00    +0.058 A 
ATOM     32 CL   UNL     1      -4.015  -3.443  24.012  0.00  0.00    -0.082 Cl
ATOM     33  C   UNL     1      -2.609  -3.186  24.038  0.00  0.00    +0.013 A 
ATOM     34  C   UNL     1      -1.967  -2.756  24.326  0.00  0.00    +0.018 A 
ENDBRANCH  27  28
ENDBRANCH  23  24
ENDBRANCH  22  23
TORSDOF 5
ENDMDL
