MODEL 1
REMARK VINA RESULT:     -10.8      0.000      0.000
REMARK  Name = 
REMARK  10 active torsions:
REMARK  status: ('A' for Active; 'I' for Inactive)
REMARK    1  A    between atoms: C_2  and  C_5
REMARK    2  A    between atoms: C_5  and  C_6
REMARK    3  A    between atoms: C_11  and  N_12
REMARK    4  A    between atoms: N_15  and  C_16
REMARK    5  A    between atoms: C_16  and  C_17
REMARK    6  A    between atoms: C_19  and  C_20
REMARK    7  A    between atoms: N_22  and  C_23
REMARK    8  A    between atoms: C_23  and  C_24
REMARK    9  A    between atoms: C_23  and  C_30
REMARK   10  A    between atoms: C_24  and  C_25
REMARK                            x       y       z     vdW  Elec       q    Type
REMARK                         _______ _______ _______ _____ _____    ______ ____
ROOT
ATOM      6  C   UNL     1      -0.904   2.896  25.446  0.00  0.00    +0.226 C 
ATOM      7  O   UNL     1      -0.279   3.157  25.916  0.00  0.00    -0.275 OA
ATOM      8  N   UNL     1      -1.093   2.094  25.419  0.00  0.00    -0.272 N 
ATOM      9  C   UNL     1      -0.707   1.491  25.828  0.00  0.00    +0.096 C 
ATOM     10  C   UNL     1      -1.076   0.777  25.640  0.00  0.00    +0.045 C 
ATOM     11  C   UNL     1      -1.690   0.940  25.113  0.00  0.00    +0.126 C 
ATOM     19  C   UNL     1      -1.700   1.754  24.976  0.00  0.00    +0.174 C 
ENDROOT
BRANCH  11  12
ATOM     12  N   UNL     1      -2.203   0.386  24.781  0.00  0.00    -0.187 NA
ATOM     13  C   UNL     1      -2.206  -0.392  25.057  0.00  0.00    +0.340 C 
ATOM     14  O   UNL     1      -1.695  -0.615  25.665  0.00  0.00    -0.249 OA
ATOM     15  N   UNL     1      -2.719  -0.945  24.725  0.00  0.00    -0.182 NA
BRANCH  15  16
ATOM     16  C   UNL     1      -2.721  -1.723  25.001  0.00  0.00    +0.143 C 
BRANCH  16  17
ATOM     17  C   UNL     1      -3.408  -2.177  24.950  0.00  0.00    -0.003 C 
ATOM     18  C   UNL     1      -3.392  -2.909  24.569  0.00  0.00    -0.003 C 
ENDBRANCH  16  17
ENDBRANCH  15  16
ENDBRANCH  11  12
BRANCH  19  20
ATOM     20  C   UNL     1      -2.226   2.155  24.484  0.00  0.00    +0.262 C 
ATOM     21  O   UNL     1      -1.938   2.651  23.890  0.00  0.00    -0.271 OA
ATOM     22  N   UNL     1      -3.039   2.062  24.584  0.00  0.00    -0.196 NA
BRANCH  22  23
ATOM     23  C   UNL     1      -3.564   2.464  24.091  0.00  0.00    +0.179 C 
BRANCH  23  30
ATOM     30  C   UNL     1      -3.556   2.326  23.278  0.00  0.00    +0.281 C 
ATOM     31  N   UNL     1      -3.542   2.961  22.751  0.00  0.00    -0.086 NA
ATOM     32  O   UNL     1      -3.561   1.552  22.991  0.00  0.00    -0.270 OA
ENDBRANCH  23  30
BRANCH  23  24
ATOM     24  C   UNL     1      -4.099   3.005  24.411  0.00  0.00    +0.064 C 
BRANCH  24  25
ATOM     25  C   UNL     1      -4.731   2.739  24.870  0.00  0.00    +0.010 A 
ATOM     26  C   UNL     1      -5.223   2.101  24.694  0.00  0.00    +0.003 A 
ATOM     27  C   UNL     1      -5.778   2.032  25.301  0.00  0.00    +0.007 A 
ATOM     28  C   UNL     1      -5.628   2.628  25.852  0.00  0.00    +0.035 A 
ATOM     29  S   UNL     1      -4.981   3.064  25.586  0.00  0.00    -0.091 S 
ENDBRANCH  24  25
ENDBRANCH  23  24
ENDBRANCH  22  23
ENDBRANCH  19  20
BRANCH   6   5
ATOM      5  C   UNL     1      -1.342   3.439  25.004  0.00  0.00    +0.085 C 
BRANCH   5   2
ATOM      1  C   UNL     1      -0.950   5.041  25.041  0.00  0.00    +0.000 C 
ATOM      2  C   UNL     1      -1.146   4.239  25.023  0.00  0.00    +0.009 C 
ATOM      3  C   UNL     1      -1.668   4.352  25.651  0.00  0.00    +0.000 C 
ATOM      4  C   UNL     1      -0.623   4.127  24.394  0.00  0.00    +0.000 C 
ENDBRANCH   5   2
ENDBRANCH   6   5
TORSDOF 10
ENDMDL
MODEL 2
REMARK VINA RESULT:      -9.7      1.755      3.309
REMARK  Name = 
REMARK  10 active torsions:
REMARK  status: ('A' for Active; 'I' for Inactive)
REMARK    1  A    between atoms: C_2  and  C_5
REMARK    2  A    between atoms: C_5  and  C_6
REMARK    3  A    between atoms: C_11  and  N_12
REMARK    4  A    between atoms: N_15  and  C_16
REMARK    5  A    between atoms: C_16  and  C_17
REMARK    6  A    between atoms: C_19  and  C_20
REMARK    7  A    between atoms: N_22  and  C_23
REMARK    8  A    between atoms: C_23  and  C_24
REMARK    9  A    between atoms: C_23  and  C_30
REMARK   10  A    between atoms: C_24  and  C_25
REMARK                            x       y       z     vdW  Elec       q    Type
REMARK                         _______ _______ _______ _____ _____    ______ ____
ROOT
ATOM      6  C   UNL     1      -3.134   3.528  25.098  0.00  0.00    +0.226 C 
ATOM      7  O   UNL     1      -3.641   4.142  25.309  0.00  0.00    -0.275 OA
ATOM      8  N   UNL     1      -3.435   2.773  24.957  0.00  0.00    -0.272 N 
ATOM      9  C   UNL     1      -4.228   2.551  25.005  0.00  0.00    +0.096 C 
ATOM     10  C   UNL     1      -4.280   1.748  24.820  0.00  0.00    +0.045 C 
ATOM     11  C   UNL     1      -3.518   1.475  24.658  0.00  0.00    +0.126 C 
ATOM     19  C   UNL     1      -2.997   2.108  24.742  0.00  0.00    +0.174 C 
ENDROOT
BRANCH  11  12
ATOM     12  N   UNL     1      -3.316   0.704  24.448  0.00  0.00    -0.187 NA
ATOM     13  C   UNL     1      -3.891   0.112  24.440  0.00  0.00    +0.340 C 
ATOM     14  O   UNL     1      -4.670   0.293  24.643  0.00  0.00    -0.249 OA
ATOM     15  N   UNL     1      -3.688  -0.659  24.230  0.00  0.00    -0.182 NA
BRANCH  15  16
ATOM     16  C   UNL     1      -4.264  -1.250  24.223  0.00  0.00    +0.143 C 
BRANCH  16  17
ATOM     17  C   UNL     1      -4.122  -1.958  23.826  0.00  0.00    -0.003 C 
ATOM     18  C   UNL     1      -3.897  -2.631  24.248  0.00  0.00    -0.003 C 
ENDBRANCH  16  17
ENDBRANCH  15  16
ENDBRANCH  11  12
BRANCH  19  20
ATOM     20  C   UNL     1      -2.180   2.081  24.630  0.00  0.00    +0.262 C 
ATOM     21  O   UNL     1      -1.821   2.587  24.086  0.00  0.00    -0.271 OA
ATOM     22  N   UNL     1      -1.722   1.548  25.063  0.00  0.00    -0.196 NA
BRANCH  22  23
ATOM     23  C   UNL     1      -0.905   1.521  24.951  0.00  0.00    +0.179 C 
BRANCH  23  30
ATOM     30  C   UNL     1      -0.396   1.697  25.575  0.00  0.00    +0.281 C 
ATOM     31  N   UNL     1       0.283   2.146  25.441  0.00  0.00    -0.086 NA
ATOM     32  O   UNL     1      -0.567   1.424  26.335  0.00  0.00    -0.270 OA
ENDBRANCH  23  30
BRANCH  23  24
ATOM     24  C   UNL     1      -0.597   1.317  24.213  0.00  0.00    +0.064 C 
BRANCH  24  25
ATOM     25  C   UNL     1      -0.318   0.552  24.079  0.00  0.00    +0.010 A 
ATOM     26  C   UNL     1      -0.422  -0.096  24.578  0.00  0.00    +0.003 A 
ATOM     27  C   UNL     1      -0.055  -0.748  24.228  0.00  0.00    +0.007 A 
ATOM     28  C   UNL     1       0.275  -0.501  23.513  0.00  0.00    +0.035 A 
ATOM     29  S   UNL     1       0.113   0.302  23.421  0.00  0.00    -0.091 S 
ENDBRANCH  24  25
ENDBRANCH  23  24
ENDBRANCH  22  23
ENDBRANCH  19  20
BRANCH   6   5
ATOM      5  C   UNL     1      -2.323   3.668  25.027  0.00  0.00    +0.085 C 
BRANCH   5   2
ATOM      1  C   UNL     1      -1.721   5.181  25.298  0.00  0.00    +0.000 C 
ATOM      2  C   UNL     1      -2.022   4.424  25.163  0.00  0.00    +0.009 C 
ATOM      3  C   UNL     1      -2.102   4.310  25.976  0.00  0.00    +0.000 C 
ATOM      4  C   UNL     1      -1.943   4.538  24.349  0.00  0.00    +0.000 C 
ENDBRANCH   5   2
ENDBRANCH   6   5
TORSDOF 10
ENDMDL
MODEL 3
REMARK VINA RESULT:      -9.5      1.964      5.213
REMARK  Name = 
REMARK  10 active torsions:
REMARK  status: ('A' for Active; 'I' for Inactive)
REMARK    1  A    between atoms: C_2  and  C_5
REMARK    2  A    between atoms: C_5  and  C_6
REMARK    3  A    between atoms: C_11  and  N_12
REMARK    4  A    between atoms: N_15  and  C_16
REMARK    5  A    between atoms: C_16  and  C_17
REMARK    6  A    between atoms: C_19  and  C_20
REMARK    7  A    between atoms: N_22  and  C_23
REMARK    8  A    between atoms: C_23  and  C_24
REMARK    9  A    between atoms: C_23  and  C_30
REMARK   10  A    between atoms: C_24  and  C_25
REMARK                            x       y       z     vdW  Elec       q    Type
REMARK                         _______ _______ _______ _____ _____    ______ ____
ROOT
ATOM      6  C   UNL     1      -4.136  -0.431  24.443  0.00  0.00    +0.226 C 
ATOM      7  O   UNL     1      -4.867  -0.663  24.138  0.00  0.00    -0.275 OA
ATOM      8  N   UNL     1      -3.974   0.369  24.560  0.00  0.00    -0.272 N 
ATOM      9  C   UNL     1      -4.484   0.997  24.399  0.00  0.00    +0.096 C 
ATOM     10  C   UNL     1      -4.098   1.698  24.598  0.00  0.00    +0.045 C 
ATOM     11  C   UNL     1      -3.348   1.504  24.883  0.00  0.00    +0.126 C 
ATOM     19  C   UNL     1      -3.272   0.683  24.859  0.00  0.00    +0.174 C 
ENDROOT
BRANCH  11  12
ATOM     12  N   UNL     1      -2.777   2.037  25.145  0.00  0.00    -0.187 NA
ATOM     13  C   UNL     1      -2.876   2.846  25.016  0.00  0.00    +0.340 C 
ATOM     14  O   UNL     1      -3.548   3.121  24.624  0.00  0.00    -0.249 OA
ATOM     15  N   UNL     1      -2.304   3.379  25.278  0.00  0.00    -0.182 NA
BRANCH  15  16
ATOM     16  C   UNL     1      -2.403   4.188  25.149  0.00  0.00    +0.143 C 
BRANCH  16  17
ATOM     17  C   UNL     1      -1.889   4.728  25.500  0.00  0.00    -0.003 C 
ATOM     18  C   UNL     1      -1.490   5.281  25.035  0.00  0.00    -0.003 C 
ENDBRANCH  16  17
ENDBRANCH  15  16
ENDBRANCH  11  12
BRANCH  19  20
ATOM     20  C   UNL     1      -2.609   0.251  25.094  0.00  0.00    +0.262 C 
ATOM     21  O   UNL     1      -2.687  -0.356  25.647  0.00  0.00    -0.271 OA
ATOM     22  N   UNL     1      -1.868   0.426  24.775  0.00  0.00    -0.196 NA
BRANCH  22  23
ATOM     23  C   UNL     1      -1.206  -0.006  25.010  0.00  0.00    +0.179 C 
BRANCH  23  30
ATOM     30  C   UNL     1      -0.911   0.075  25.776  0.00  0.00    +0.281 C 
ATOM     31  N   UNL     1      -0.868  -0.581  26.274  0.00  0.00    -0.086 NA
ATOM     32  O   UNL     1      -0.657   0.813  26.044  0.00  0.00    -0.270 OA
ENDBRANCH  23  30
BRANCH  23  24
ATOM     24  C   UNL     1      -0.839  -0.519  24.479  0.00  0.00    +0.064 C 
BRANCH  24  25
ATOM     25  C   UNL     1      -0.267  -0.233  23.957  0.00  0.00    +0.010 A 
ATOM     26  C   UNL     1      -0.265   0.511  23.600  0.00  0.00    +0.003 A 
ATOM     27  C   UNL     1       0.407   0.562  23.122  0.00  0.00    +0.007 A 
ATOM     28  C   UNL     1       0.818  -0.151  23.184  0.00  0.00    +0.035 A 
ATOM     29  S   UNL     1       0.402  -0.642  23.699  0.00  0.00    -0.091 S 
ENDBRANCH  24  25
ENDBRANCH  23  24
ENDBRANCH  22  23
ENDBRANCH  19  20
BRANCH   6   5
ATOM      5  C   UNL     1      -3.568  -0.999  24.630  0.00  0.00    +0.085 C 
BRANCH   5   2
ATOM      1  C   UNL     1      -3.878  -2.597  24.357  0.00  0.00    +0.000 C 
ATOM      2  C   UNL     1      -3.723  -1.798  24.494  0.00  0.00    +0.009 C 
ATOM      3  C   UNL     1      -3.792  -1.923  25.306  0.00  0.00    +0.000 C 
ATOM      4  C   UNL     1      -3.655  -1.672  23.681  0.00  0.00    +0.000 C 
ENDBRANCH   5   2
ENDBRANCH   6   5
TORSDOF 10
ENDMDL
MODEL 4
REMARK VINA RESULT:      -9.3      0.898      3.853
REMARK  Name = 
REMARK  10 active torsions:
REMARK  status: ('A' for Active; 'I' for Inactive)
REMARK    1  A    between atoms: C_2  and  C_5
REMARK    2  A    between atoms: C_5  and  C_6
REMARK    3  A    between atoms: C_11  and  N_12
REMARK    4  A    between atoms: N_15  and  C_16
REMARK    5  A    between atoms: C_16  and  C_17
REMARK    6  A    between atoms: C_19  and  C_20
REMARK    7  A    between atoms: N_22  and  C_23
REMARK    8  A    between atoms: C_23  and  C_24
REMARK    9  A    between atoms: C_23  and  C_30
REMARK   10  A    between atoms: C_24  and  C_25
REMARK                            x       y       z     vdW  Elec       q    Type
REMARK                         _______ _______ _______ _____ _____    ______ ____
ROOT
ATOM      6  C   UNL     1      -1.867  -0.592  25.605  0.00  0.00    +0.226 C 
ATOM      7  O   UNL     1      -1.556  -1.169  26.106  0.00  0.00    -0.275 OA
ATOM      8  N   UNL     1      -1.514   0.152  25.562  0.00  0.00    -0.272 N 
ATOM      9  C   UNL     1      -0.851   0.399  25.986  0.00  0.00    +0.096 C 
ATOM     10  C   UNL     1      -0.689   1.180  25.775  0.00  0.00    +0.045 C 
ATOM     11  C   UNL     1      -1.253   1.416  25.220  0.00  0.00    +0.126 C 
ATOM     19  C   UNL     1      -1.763   0.780  25.089  0.00  0.00    +0.174 C 
ENDROOT
BRANCH  11  12
ATOM     12  N   UNL     1      -1.299   2.156  24.861  0.00  0.00    -0.187 NA
ATOM     13  C   UNL     1      -0.958   2.814  25.224  0.00  0.00    +0.340 C 
ATOM     14  O   UNL     1      -0.570   2.730  25.947  0.00  0.00    -0.249 OA
ATOM     15  N   UNL     1      -1.003   3.554  24.864  0.00  0.00    -0.182 NA
BRANCH  15  16
ATOM     16  C   UNL     1      -0.662   4.212  25.227  0.00  0.00    +0.143 C 
BRANCH  16  17
ATOM     17  C   UNL     1      -0.708   4.952  24.868  0.00  0.00    -0.003 C 
ATOM     18  C   UNL     1      -1.347   5.449  25.025  0.00  0.00    -0.003 C 
ENDBRANCH  16  17
ENDBRANCH  15  16
ENDBRANCH  11  12
BRANCH  19  20
ATOM     20  C   UNL     1      -2.408   0.775  24.575  0.00  0.00    +0.262 C 
ATOM     21  O   UNL     1      -2.476   0.181  24.005  0.00  0.00    -0.271 OA
ATOM     22  N   UNL     1      -2.984   1.362  24.629  0.00  0.00    -0.196 NA
BRANCH  22  23
ATOM     23  C   UNL     1      -3.629   1.356  24.114  0.00  0.00    +0.179 C 
BRANCH  23  30
ATOM     30  C   UNL     1      -3.514   1.481  23.307  0.00  0.00    +0.281 C 
ATOM     31  N   UNL     1      -3.270   2.220  23.034  0.00  0.00    -0.086 NA
ATOM     32  O   UNL     1      -3.642   0.866  22.773  0.00  0.00    -0.270 OA
ENDBRANCH  23  30
BRANCH  23  24
ATOM     24  C   UNL     1      -4.389   1.225  24.407  0.00  0.00    +0.064 C 
BRANCH  24  25
ATOM     25  C   UNL     1      -4.777   1.819  24.827  0.00  0.00    +0.010 A 
ATOM     26  C   UNL     1      -4.678   2.631  24.724  0.00  0.00    +0.003 A 
ATOM     27  C   UNL     1      -5.173   3.019  25.259  0.00  0.00    +0.007 A 
ATOM     28  C   UNL     1      -5.579   2.445  25.692  0.00  0.00    +0.035 A 
ATOM     29  S   UNL     1      -5.334   1.704  25.426  0.00  0.00    -0.091 S 
ENDBRANCH  24  25
ENDBRANCH  23  24
ENDBRANCH  22  23
ENDBRANCH  19  20
BRANCH   6   5
ATOM      5  C   UNL     1      -2.532  -0.761  25.145  0.00  0.00    +0.085 C 
BRANCH   5   2
ATOM      1  C   UNL     1      -3.236  -2.251  25.228  0.00  0.00    +0.000 C 
ATOM      2  C   UNL     1      -2.884  -1.505  25.186  0.00  0.00    +0.009 C 
ATOM      3  C   UNL     1      -2.435  -1.753  24.541  0.00  0.00    +0.000 C 
ATOM      4  C   UNL     1      -3.333  -1.257  25.833  0.00  0.00    +0.000 C 
ENDBRANCH   5   2
ENDBRANCH   6   5
TORSDOF 10
ENDMDL
MODEL 5
REMARK VINA RESULT:      -9.1      2.063      4.076
REMARK  Name = 
REMARK  10 active torsions:
REMARK  status: ('A' for Active; 'I' for Inactive)
REMARK    1  A    between atoms: C_2  and  C_5
REMARK    2  A    between atoms: C_5  and  C_6
REMARK    3  A    between atoms: C_11  and  N_12
REMARK    4  A    between atoms: N_15  and  C_16
REMARK    5  A    between atoms: C_16  and  C_17
REMARK    6  A    between atoms: C_19  and  C_20
REMARK    7  A    between atoms: N_22  and  C_23
REMARK    8  A    between atoms: C_23  and  C_24
REMARK    9  A    between atoms: C_23  and  C_30
REMARK   10  A    between atoms: C_24  and  C_25
REMARK                            x       y       z     vdW  Elec       q    Type
REMARK                         _______ _______ _______ _____ _____    ______ ____
ROOT
ATOM      6  C   UNL     1      -3.988   2.120  24.257  0.00  0.00    +0.226 C 
ATOM      7  O   UNL     1      -4.377   2.785  23.964  0.00  0.00    -0.275 OA
ATOM      8  N   UNL     1      -3.245   1.914  23.965  0.00  0.00    -0.272 N 
ATOM      9  C   UNL     1      -2.823   2.319  23.383  0.00  0.00    +0.096 C 
ATOM     10  C   UNL     1      -2.110   1.923  23.262  0.00  0.00    +0.045 C 
ATOM     11  C   UNL     1      -2.090   1.272  23.770  0.00  0.00    +0.126 C 
ATOM     19  C   UNL     1      -2.791   1.268  24.205  0.00  0.00    +0.174 C 
ENDROOT
BRANCH  11  12
ATOM     12  N   UNL     1      -1.477   0.725  23.832  0.00  0.00    -0.187 NA
ATOM     13  C   UNL     1      -0.740   0.890  23.501  0.00  0.00    +0.340 C 
ATOM     14  O   UNL     1      -0.616   1.605  23.107  0.00  0.00    -0.249 OA
ATOM     15  N   UNL     1      -0.127   0.343  23.563  0.00  0.00    -0.182 NA
BRANCH  15  16
ATOM     16  C   UNL     1       0.611   0.508  23.232  0.00  0.00    +0.143 C 
BRANCH  16  17
ATOM     17  C   UNL     1       1.157  -0.098  23.117  0.00  0.00    -0.003 C 
ATOM     18  C   UNL     1       1.873   0.057  22.736  0.00  0.00    -0.003 C 
ENDBRANCH  16  17
ENDBRANCH  15  16
ENDBRANCH  11  12
BRANCH  19  20
ATOM     20  C   UNL     1      -3.002   0.713  24.778  0.00  0.00    +0.262 C 
ATOM     21  O   UNL     1      -3.247   0.965  25.525  0.00  0.00    -0.271 OA
ATOM     22  N   UNL     1      -2.967  -0.093  24.605  0.00  0.00    -0.196 NA
BRANCH  22  23
ATOM     23  C   UNL     1      -3.178  -0.647  25.179  0.00  0.00    +0.179 C 
BRANCH  23  30
ATOM     30  C   UNL     1      -2.694  -0.765  25.835  0.00  0.00    +0.281 C 
ATOM     31  N   UNL     1      -3.021  -0.776  26.593  0.00  0.00    -0.086 NA
ATOM     32  O   UNL     1      -1.883  -0.873  25.736  0.00  0.00    -0.270 OA
ENDBRANCH  23  30
BRANCH  23  24
ATOM     24  C   UNL     1      -3.874  -1.083  25.095  0.00  0.00    +0.064 C 
BRANCH  24  25
ATOM     25  C   UNL     1      -3.894  -1.736  24.591  0.00  0.00    +0.010 A 
ATOM     26  C   UNL     1      -4.284  -1.777  23.866  0.00  0.00    +0.003 A 
ATOM     27  C   UNL     1      -4.158  -2.530  23.550  0.00  0.00    +0.007 A 
ATOM     28  C   UNL     1      -3.689  -2.953  24.081  0.00  0.00    +0.035 A 
ATOM     29  S   UNL     1      -3.526  -2.463  24.724  0.00  0.00    -0.091 S 
ENDBRANCH  24  25
ENDBRANCH  23  24
ENDBRANCH  22  23
ENDBRANCH  19  20
BRANCH   6   5
ATOM      5  C   UNL     1      -4.343   1.660  24.843  0.00  0.00    +0.085 C 
BRANCH   5   2
ATOM      1  C   UNL     1      -5.808   2.098  25.462  0.00  0.00    +0.000 C 
ATOM      2  C   UNL     1      -5.075   1.879  25.152  0.00  0.00    +0.009 C 
ATOM      3  C   UNL     1      -5.453   1.403  24.594  0.00  0.00    +0.000 C 
ATOM      4  C   UNL     1      -4.697   2.354  25.711  0.00  0.00    +0.000 C 
ENDBRANCH   5   2
ENDBRANCH   6   5
TORSDOF 10
ENDMDL
MODEL 6
REMARK VINA RESULT:      -8.6      2.105      3.918
REMARK  Name = 
REMARK  10 active torsions:
REMARK  status: ('A' for Active; 'I' for Inactive)
REMARK    1  A    between atoms: C_2  and  C_5
REMARK    2  A    between atoms: C_5  and  C_6
REMARK    3  A    between atoms: C_11  and  N_12
REMARK    4  A    between atoms: N_15  and  C_16
REMARK    5  A    between atoms: C_16  and  C_17
REMARK    6  A    between atoms: C_19  and  C_20
REMARK    7  A    between atoms: N_22  and  C_23
REMARK    8  A    between atoms: C_23  and  C_24
REMARK    9  A    between atoms: C_23  and  C_30
REMARK   10  A    between atoms: C_24  and  C_25
REMARK                            x       y       z     vdW  Elec       q    Type
REMARK                         _______ _______ _______ _____ _____    ______ ____
ROOT
ATOM      6  C   UNL     1      -2.712  -0.899  24.900  0.00  0.00    +0.226 C 
ATOM      7  O   UNL     1      -2.972  -1.574  25.298  0.00  0.00    -0.275 OA
ATOM      8  N   UNL     1      -1.910  -0.798  24.740  0.00  0.00    -0.272 N 
ATOM      9  C   UNL     1      -1.305  -1.321  24.941  0.00  0.00    +0.096 C 
ATOM     10  C   UNL     1      -0.592  -1.003  24.675  0.00  0.00    +0.045 C 
ATOM     11  C   UNL     1      -0.757  -0.282  24.308  0.00  0.00    +0.126 C 
ATOM     19  C   UNL     1      -1.571  -0.156  24.348  0.00  0.00    +0.174 C 
ENDROOT
BRANCH  11  12
ATOM     12  N   UNL     1      -0.204   0.223  23.963  0.00  0.00    -0.187 NA
ATOM     13  C   UNL     1       0.487  -0.084  23.633  0.00  0.00    +0.340 C 
ATOM     14  O   UNL     1       0.625  -0.897  23.649  0.00  0.00    -0.249 OA
ATOM     15  N   UNL     1       1.040   0.421  23.288  0.00  0.00    -0.182 NA
BRANCH  15  16
ATOM     16  C   UNL     1       1.731   0.113  22.958  0.00  0.00    +0.143 C 
BRANCH  16  17
ATOM     17  C   UNL     1       2.379   0.605  22.824  0.00  0.00    -0.003 C 
ATOM     18  C   UNL     1       3.046   0.314  22.436  0.00  0.00    -0.003 C 
ENDBRANCH  16  17
ENDBRANCH  15  16
ENDBRANCH  11  12
BRANCH  19  20
ATOM     20  C   UNL     1      -1.975   0.498  24.049  0.00  0.00    +0.262 C 
ATOM     21  O   UNL     1      -2.571   0.393  23.487  0.00  0.00    -0.271 OA
ATOM     22  N   UNL     1      -1.784   1.257  24.311  0.00  0.00    -0.196 NA
BRANCH  22  23
ATOM     23  C   UNL     1      -2.189   1.910  24.011  0.00  0.00    +0.179 C 
BRANCH  23  30
ATOM     30  C   UNL     1      -2.059   2.155  23.234  0.00  0.00    +0.281 C 
ATOM     31  N   UNL     1      -2.679   2.151  22.690  0.00  0.00    -0.086 NA
ATOM     32  O   UNL     1      -1.308   2.406  23.001  0.00  0.00    -0.270 OA
ENDBRANCH  23  30
BRANCH  23  24
ATOM     24  C   UNL     1      -2.723   2.319  24.488  0.00  0.00    +0.064 C 
BRANCH  24  25
ATOM     25  C   UNL     1      -2.458   2.927  24.979  0.00  0.00    +0.010 A 
ATOM     26  C   UNL     1      -1.806   2.894  25.483  0.00  0.00    +0.003 A 
ATOM     27  C   UNL     1      -1.744   3.622  25.867  0.00  0.00    +0.007 A 
ATOM     28  C   UNL     1      -2.357   4.104  25.600  0.00  0.00    +0.035 A 
ATOM     29  S   UNL     1      -2.799   3.675  25.051  0.00  0.00    -0.091 S 
ENDBRANCH  24  25
ENDBRANCH  23  24
ENDBRANCH  22  23
ENDBRANCH  19  20
BRANCH   6   5
ATOM      5  C   UNL     1      -3.257  -0.326  24.663  0.00  0.00    +0.085 C 
BRANCH   5   2
ATOM      1  C   UNL     1      -4.872  -0.580  24.884  0.00  0.00    +0.000 C 
ATOM      2  C   UNL     1      -4.064  -0.453  24.773  0.00  0.00    +0.009 C 
ATOM      3  C   UNL     1      -4.114  -0.788  24.021  0.00  0.00    +0.000 C 
ATOM      4  C   UNL     1      -4.014  -0.118  25.526  0.00  0.00    +0.000 C 
ENDBRANCH   5   2
ENDBRANCH   6   5
TORSDOF 10
ENDMDL
MODEL 7
REMARK VINA RESULT:      -8.5      1.524      4.320
REMARK  Name = 
REMARK  10 active torsions:
REMARK  status: ('A' for Active; 'I' for Inactive)
REMARK    1  A    between atoms: C_2  and  C_5
REMARK    2  A    between atoms: C_5  and  C_6
REMARK    3  A    between atoms: C_11  and  N_12
REMARK    4  A    between atoms: N_15  and  C_16
REMARK    5  A    between atoms: C_16  and  C_17
REMARK    6  A    between atoms: C_19  and  C_20
REMARK    7  A    between atoms: N_22  and  C_23
REMARK    8  A    between atoms: C_23  and  C_24
REMARK    9  A    between atoms: C_23  and  C_30
REMARK   10  A    between atoms: C_24  and  C_25
REMARK                            x       y       z     vdW  Elec       q    Type
REMARK                         _______ _______ _______ _____ _____    ______ ____
ROOT
ATOM      6  C   UNL     1      -2.519  -1.317  24.785  0.00  0.00    +0.226 C 
ATOM      7  O   UNL     1      -2.712  -2.115  24.708  0.00  0.00    -0.275 OA
ATOM      8  N   UNL     1      -3.112  -0.745  24.751  0.00  0.00    -0.272 N 
ATOM      9  C   UNL     1      -3.917  -0.886  24.643  0.00  0.00    +0.096 C 
ATOM     10  C   UNL     1      -4.307  -0.159  24.644  0.00  0.00    +0.045 C 
ATOM     11  C   UNL     1      -3.741   0.433  24.753  0.00  0.00    +0.126 C 
ATOM     19  C   UNL     1      -3.003   0.070  24.818  0.00  0.00    +0.174 C 
ENDROOT
BRANCH  11  12
ATOM     12  N   UNL     1      -3.889   1.243  24.788  0.00  0.00    -0.187 NA
ATOM     13  C   UNL     1      -4.632   1.518  25.021  0.00  0.00    +0.340 C 
ATOM     14  O   UNL     1      -5.227   0.981  25.217  0.00  0.00    -0.249 OA
ATOM     15  N   UNL     1      -4.779   2.328  25.057  0.00  0.00    -0.182 NA
BRANCH  15  16
ATOM     16  C   UNL     1      -5.522   2.603  25.289  0.00  0.00    +0.143 C 
BRANCH  16  17
ATOM     17  C   UNL     1      -5.584   3.279  25.756  0.00  0.00    -0.003 C 
ATOM     18  C   UNL     1      -5.601   4.025  25.403  0.00  0.00    -0.003 C 
ENDBRANCH  16  17
ENDBRANCH  15  16
ENDBRANCH  11  12
BRANCH  19  20
ATOM     20  C   UNL     1      -2.283   0.456  24.932  0.00  0.00    +0.262 C 
ATOM     21  O   UNL     1      -1.798   0.245  25.565  0.00  0.00    -0.271 OA
ATOM     22  N   UNL     1      -2.048   1.052  24.413  0.00  0.00    -0.196 NA
BRANCH  22  23
ATOM     23  C   UNL     1      -1.327   1.438  24.527  0.00  0.00    +0.179 C 
BRANCH  23  30
ATOM     30  C   UNL     1      -0.737   1.389  23.953  0.00  0.00    +0.281 C 
ATOM     31  N   UNL     1       0.052   1.308  24.178  0.00  0.00    -0.086 NA
ATOM     32  O   UNL     1      -0.937   1.421  23.153  0.00  0.00    -0.270 OA
ENDBRANCH  23  30
BRANCH  23  24
ATOM     24  C   UNL     1      -1.197   1.872  25.216  0.00  0.00    +0.064 C 
BRANCH  24  25
ATOM     25  C   UNL     1      -1.293   2.692  25.212  0.00  0.00    +0.010 A 
ATOM     26  C   UNL     1      -1.390   3.165  24.544  0.00  0.00    +0.003 A 
ATOM     27  C   UNL     1      -1.466   3.948  24.795  0.00  0.00    +0.007 A 
ATOM     28  C   UNL     1      -1.415   3.957  25.619  0.00  0.00    +0.035 A 
ATOM     29  S   UNL     1      -1.308   3.181  25.876  0.00  0.00    -0.091 S 
ENDBRANCH  24  25
ENDBRANCH  23  24
ENDBRANCH  22  23
ENDBRANCH  19  20
BRANCH   6   5
ATOM      5  C   UNL     1      -1.733  -1.092  24.896  0.00  0.00    +0.085 C 
BRANCH   5   2
ATOM      1  C   UNL     1      -0.554  -2.240  25.019  0.00  0.00    +0.000 C 
ATOM      2  C   UNL     1      -1.144  -1.665  24.957  0.00  0.00    +0.009 C 
ATOM      3  C   UNL     1      -1.180  -1.788  24.142  0.00  0.00    +0.000 C 
ATOM      4  C   UNL     1      -1.108  -1.542  25.772  0.00  0.00    +0.000 C 
ENDBRANCH   5   2
ENDBRANCH   6   5
TORSDOF 10
ENDMDL
MODEL 8
REMARK VINA RESULT:      -8.5      1.965      2.682
REMARK  Name = 
REMARK  10 active torsions:
REMARK  status: ('A' for Active; 'I' for Inactive)
REMARK    1  A    between atoms: C_2  and  C_5
REMARK    2  A    between atoms: C_5  and  C_6
REMARK    3  A    between atoms: C_11  and  N_12
REMARK    4  A    between atoms: N_15  and  C_16
REMARK    5  A    between atoms: C_16  and  C_17
REMARK    6  A    between atoms: C_19  and  C_20
REMARK    7  A    between atoms: N_22  and  C_23
REMARK    8  A    between atoms: C_23  and  C_24
REMARK    9  A    between atoms: C_23  and  C_30
REMARK   10  A    between atoms: C_24  and  C_25
REMARK                            x       y       z     vdW  Elec       q    Type
REMARK                         _______ _______ _______ _____ _____    ______ ____
ROOT
ATOM      6  C   UNL     1      -1.527   3.288  25.861  0.00  0.00    +0.226 C 
ATOM      7  O   UNL     1      -1.319   3.706  26.541  0.00  0.00    -0.275 OA
ATOM      8  N   UNL     1      -1.008   2.732  25.544  0.00  0.00    -0.272 N 
ATOM      9  C   UNL     1      -0.266   2.535  25.844  0.00  0.00    +0.096 C 
ATOM     10  C   UNL     1       0.062   1.955  25.356  0.00  0.00    +0.045 C 
ATOM     11  C   UNL     1      -0.480   1.794  24.754  0.00  0.00    +0.126 C 
ATOM     19  C   UNL     1      -1.141   2.274  24.871  0.00  0.00    +0.174 C 
ENDROOT
BRANCH  11  12
ATOM     12  N   UNL     1      -0.377   1.249  24.144  0.00  0.00    -0.187 NA
ATOM     13  C   UNL     1       0.383   1.027  23.911  0.00  0.00    +0.340 C 
ATOM     14  O   UNL     1       1.041   1.351  24.290  0.00  0.00    -0.249 OA
ATOM     15  N   UNL     1       0.485   0.482  23.301  0.00  0.00    -0.182 NA
BRANCH  15  16
ATOM     16  C   UNL     1       1.245   0.260  23.069  0.00  0.00    +0.143 C 
BRANCH  16  17
ATOM     17  C   UNL     1       1.350  -0.236  22.419  0.00  0.00    -0.003 C 
ATOM     18  C   UNL     1       2.061  -0.225  22.001  0.00  0.00    -0.003 C 
ENDBRANCH  16  17
ENDBRANCH  15  16
ENDBRANCH  11  12
BRANCH  19  20
ATOM     20  C   UNL     1      -1.815   2.292  24.396  0.00  0.00    +0.262 C 
ATOM     21  O   UNL     1      -2.069   3.005  24.068  0.00  0.00    -0.271 OA
ATOM     22  N   UNL     1      -2.236   1.598  24.250  0.00  0.00    -0.196 NA
BRANCH  22  23
ATOM     23  C   UNL     1      -2.910   1.617  23.775  0.00  0.00    +0.179 C 
BRANCH  23  30
ATOM     30  C   UNL     1      -2.856   1.862  22.990  0.00  0.00    +0.281 C 
ATOM     31  N   UNL     1      -3.330   2.479  22.717  0.00  0.00    -0.086 NA
ATOM     32  O   UNL     1      -2.327   1.490  22.478  0.00  0.00    -0.270 OA
ENDBRANCH  23  30
BRANCH  23  24
ATOM     24  C   UNL     1      -3.640   1.390  24.087  0.00  0.00    +0.064 C 
BRANCH  24  25
ATOM     25  C   UNL     1      -3.785   0.597  24.262  0.00  0.00    +0.010 A 
ATOM     26  C   UNL     1      -3.688  -0.040  23.746  0.00  0.00    +0.003 A 
ATOM     27  C   UNL     1      -3.897  -0.729  24.150  0.00  0.00    +0.007 A 
ATOM     28  C   UNL     1      -4.123  -0.518  24.915  0.00  0.00    +0.035 A 
ATOM     29  S   UNL     1      -4.055   0.301  24.984  0.00  0.00    -0.091 S 
ENDBRANCH  24  25
ENDBRANCH  23  24
ENDBRANCH  22  23
ENDBRANCH  19  20
BRANCH   6   5
ATOM      5  C   UNL     1      -2.256   3.427  25.499  0.00  0.00    +0.085 C 
BRANCH   5   2
ATOM      1  C   UNL     1      -3.262   4.594  26.090  0.00  0.00    +0.000 C 
ATOM      2  C   UNL     1      -2.759   4.010  25.794  0.00  0.00    +0.009 C 
ATOM      3  C   UNL     1      -2.409   4.565  25.294  0.00  0.00    +0.000 C 
ATOM      4  C   UNL     1      -3.109   3.455  26.294  0.00  0.00    +0.000 C 
ENDBRANCH   5   2
ENDBRANCH   6   5
TORSDOF 10
ENDMDL
MODEL 9
REMARK VINA RESULT:      -8.5      1.622      3.158
REMARK  Name = 
REMARK  10 active torsions:
REMARK  status: ('A' for Active; 'I' for Inactive)
REMARK    1  A    between atoms: C_2  and  C_5
REMARK    2  A    between atoms: C_5  and  C_6
REMARK    3  A    between atoms: C_11  and  N_12
REMARK    4  A    between atoms: N_15  and  C_16
REMARK    5  A    between atoms: C_16  and  C_17
REMARK    6  A    between atoms: C_19  and  C_20
REMARK    7  A    between atoms: N_22  and  C_23
REMARK    8  A    between atoms: C_23  and  C_24
REMARK    9  A    between atoms: C_23  and  C_30
REMARK   10  A    between atoms: C_24  and  C_25
REMARK                            x       y       z     vdW  Elec       q    Type
REMARK                         _______ _______ _______ _____ _____    ______ ____
ROOT
ATOM      6  C   UNL     1      -4.651   2.394  25.091  0.00  0.00    +0.226 C 
ATOM      7  O   UNL     1      -5.349   2.668  25.433  0.00  0.00    -0.275 OA
ATOM      8  N   UNL     1      -4.505   1.584  25.042  0.00  0.00    -0.272 N 
ATOM      9  C   UNL     1      -5.004   0.984  25.310  0.00  0.00    +0.096 C 
ATOM     10  C   UNL     1      -4.642   0.260  25.150  0.00  0.00    +0.045 C 
ATOM     11  C   UNL     1      -3.919   0.413  24.782  0.00  0.00    +0.126 C 
ATOM     19  C   UNL     1      -3.835   1.231  24.715  0.00  0.00    +0.174 C 
ENDROOT
BRANCH  11  12
ATOM     12  N   UNL     1      -3.377  -0.153  24.527  0.00  0.00    -0.187 NA
ATOM     13  C   UNL     1      -3.492  -0.949  24.712  0.00  0.00    +0.340 C 
ATOM     14  O   UNL     1      -4.150  -1.178  25.153  0.00  0.00    -0.249 OA
ATOM     15  N   UNL     1      -2.950  -1.515  24.457  0.00  0.00    -0.182 NA
BRANCH  15  16
ATOM     16  C   UNL     1      -3.065  -2.311  24.642  0.00  0.00    +0.143 C 
BRANCH  16  17
ATOM     17  C   UNL     1      -2.595  -2.889  24.289  0.00  0.00    -0.003 C 
ATOM     18  C   UNL     1      -1.782  -2.904  24.429  0.00  0.00    -0.003 C 
ENDBRANCH  16  17
ENDBRANCH  15  16
ENDBRANCH  11  12
BRANCH  19  20
ATOM     20  C   UNL     1      -3.192   1.625  24.381  0.00  0.00    +0.262 C 
ATOM     21  O   UNL     1      -3.309   2.136  23.743  0.00  0.00    -0.271 OA
ATOM     22  N   UNL     1      -2.434   1.510  24.684  0.00  0.00    -0.196 NA
BRANCH  22  23
ATOM     23  C   UNL     1      -1.792   1.906  24.349  0.00  0.00    +0.179 C 
BRANCH  23  30
ATOM     30  C   UNL     1      -1.473   1.644  23.635  0.00  0.00    +0.281 C 
ATOM     31  N   UNL     1      -1.512   2.123  22.965  0.00  0.00    -0.086 NA
ATOM     32  O   UNL     1      -1.114   0.902  23.591  0.00  0.00    -0.270 OA
ENDBRANCH  23  30
BRANCH  23  24
ATOM     24  C   UNL     1      -1.469   2.563  24.728  0.00  0.00    +0.064 C 
BRANCH  24  25
ATOM     25  C   UNL     1      -0.900   2.462  25.317  0.00  0.00    +0.010 A 
ATOM     26  C   UNL     1      -0.819   1.801  25.805  0.00  0.00    +0.003 A 
ATOM     27  C   UNL     1      -0.181   1.935  26.311  0.00  0.00    +0.007 A 
ATOM     28  C   UNL     1       0.132   2.679  26.136  0.00  0.00    +0.035 A 
ATOM     29  S   UNL     1      -0.313   3.004  25.523  0.00  0.00    -0.091 S 
ENDBRANCH  24  25
ENDBRANCH  23  24
ENDBRANCH  22  23
ENDBRANCH  19  20
BRANCH   6   5
ATOM      5  C   UNL     1      -4.098   2.932  24.797  0.00  0.00    +0.085 C 
BRANCH   5   2
ATOM      1  C   UNL     1      -4.386   4.553  24.903  0.00  0.00    +0.000 C 
ATOM      2  C   UNL     1      -4.242   3.742  24.849  0.00  0.00    +0.009 C 
ATOM      3  C   UNL     1      -4.425   3.761  24.046  0.00  0.00    +0.000 C 
ATOM      4  C   UNL     1      -4.058   3.722  25.654  0.00  0.00    +0.000 C 
ENDBRANCH   5   2
ENDBRANCH   6   5
TORSDOF 10
ENDMDL
