MODEL 1
REMARK VINA RESULT:     -10.1      0.000      0.000
REMARK  Name = 
REMARK  5 active torsions:
REMARK  status: ('A' for Active; 'I' for Inactive)
REMARK    1  A    between atoms: C_2  and  C_4
REMARK    2  A    between atoms: C_4  and  C_5
REMARK    3  A    between atoms: C_5  and  C_6
REMARK    4  A    between atoms: N_8  and  C_9
REMARK    5  A    between atoms: C_20  and  C_25
REMARK                            x       y       z     vdW  Elec       q    Type
REMARK                         _______ _______ _______ _____ _____    ______ ____
ROOT
ATOM      9  C   UNL     1      -0.754   0.539  24.018  0.00  0.00    +0.124 C 
ATOM     10  C   UNL     1      -0.901  -0.176  24.404  0.00  0.00    +0.045 C 
ATOM     11  C   UNL     1      -1.668  -0.147  24.708  0.00  0.00    +0.096 C 
ATOM     12  N   UNL     1      -1.994   0.584  24.510  0.00  0.00    -0.268 N 
ATOM     13  C   UNL     1      -1.429   1.008  24.083  0.00  0.00    +0.174 C 
ATOM     14  C   UNL     1      -1.488   1.766  23.763  0.00  0.00    +0.265 C 
ATOM     15  O   UNL     1      -0.820   2.039  23.362  0.00  0.00    -0.271 OA
ATOM     16  N   UNL     1      -2.126   2.287  23.789  0.00  0.00    -0.178 NA
ATOM     17  C   UNL     1      -2.865   2.180  24.143  0.00  0.00    +0.078 A 
ATOM     18  C   UNL     1      -3.347   2.841  24.041  0.00  0.00    +0.017 A 
ATOM     19  C   UNL     1      -4.111   2.847  24.354  0.00  0.00    +0.002 A 
ATOM     20  C   UNL     1      -4.391   2.191  24.769  0.00  0.00    +0.006 A 
ATOM     21  C   UNL     1      -3.909   1.530  24.870  0.00  0.00    +0.006 A 
ATOM     22  C   UNL     1      -3.145   1.524  24.557  0.00  0.00    +0.069 A 
ATOM     23  C   UNL     1      -2.758   0.814  24.721  0.00  0.00    +0.251 C 
ATOM     24  O   UNL     1      -3.192   0.261  25.152  0.00  0.00    -0.270 OA
ENDROOT
BRANCH  20  25
ATOM     25  C   UNL     1      -5.154   2.196  25.081  0.00  0.00    +0.029 A 
ATOM     26  C   UNL     1      -5.790   1.741  24.816  0.00  0.00    +0.007 A 
ATOM     27  C   UNL     1      -6.445   1.921  25.285  0.00  0.00    +0.007 A 
ATOM     28  C   UNL     1      -6.214   2.486  25.839  0.00  0.00    +0.035 A 
ATOM     29  S   UNL     1      -5.416   2.656  25.714  0.00  0.00    -0.086 S 
ENDBRANCH  20  25
BRANCH   9   8
ATOM      6  C   UNL     1       0.510   0.169  23.462  0.00  0.00    +0.242 C 
ATOM      7  O   UNL     1       0.373  -0.616  23.675  0.00  0.00    -0.273 OA
ATOM      8  N   UNL     1      -0.054   0.746  23.634  0.00  0.00    -0.205 NA
BRANCH   6   5
ATOM      5  C   UNL     1       1.210   0.377  23.079  0.00  0.00    +0.099 C 
BRANCH   5   4
ATOM      4  C   UNL     1       1.700  -0.210  22.767  0.00  0.00    +0.124 C 
BRANCH   4   2
ATOM      1  O   UNL     1       3.026   0.315  22.677  0.00  0.00    -0.246 OA
ATOM      2  C   UNL     1       2.356  -0.001  22.314  0.00  0.00    +0.365 C 
ATOM      3  O   UNL     1       2.343  -0.109  21.496  0.00  0.00    -0.246 OA
ENDBRANCH   4   2
ENDBRANCH   5   4
ENDBRANCH   6   5
ENDBRANCH   9   8
TORSDOF 5
ENDMDL
MODEL 2
REMARK VINA RESULT:      -9.6      2.707      4.185
REMARK  Name = 
REMARK  5 active torsions:
REMARK  status: ('A' for Active; 'I' for Inactive)
REMARK    1  A    between atoms: C_2  and  C_4
REMARK    2  A    between atoms: C_4  and  C_5
REMARK    3  A    between atoms: C_5  and  C_6
REMARK    4  A    between atoms: N_8  and  C_9
REMARK    5  A    between atoms: C_20  and  C_25
REMARK                            x       y       z     vdW  Elec       q    Type
REMARK                         _______ _______ _______ _____ _____    ______ ____
ROOT
ATOM      9  C   UNL     1      -1.484   2.043  25.291  0.00  0.00    +0.124 C 
ATOM     10  C   UNL     1      -0.766   1.659  25.425  0.00  0.00    +0.045 C 
ATOM     11  C   UNL     1      -0.887   0.849  25.320  0.00  0.00    +0.096 C 
ATOM     12  N   UNL     1      -1.679   0.732  25.123  0.00  0.00    -0.268 N 
ATOM     13  C   UNL     1      -2.048   1.470  25.105  0.00  0.00    +0.174 C 
ATOM     14  C   UNL     1      -2.836   1.647  24.936  0.00  0.00    +0.265 C 
ATOM     15  O   UNL     1      -3.037   2.447  24.963  0.00  0.00    -0.271 OA
ATOM     16  N   UNL     1      -3.449   1.130  24.743  0.00  0.00    -0.178 NA
ATOM     17  C   UNL     1      -3.426   0.308  24.671  0.00  0.00    +0.078 A 
ATOM     18  C   UNL     1      -4.165   0.002  24.469  0.00  0.00    +0.017 A 
ATOM     19  C   UNL     1      -4.262  -0.811  24.370  0.00  0.00    +0.002 A 
ATOM     20  C   UNL     1      -3.620  -1.318  24.474  0.00  0.00    +0.006 A 
ATOM     21  C   UNL     1      -2.881  -1.013  24.676  0.00  0.00    +0.006 A 
ATOM     22  C   UNL     1      -2.784  -0.199  24.775  0.00  0.00    +0.069 A 
ATOM     23  C   UNL     1      -2.006  -0.010  24.976  0.00  0.00    +0.251 C 
ATOM     24  O   UNL     1      -1.488  -0.649  25.038  0.00  0.00    -0.270 OA
ENDROOT
BRANCH  20  25
ATOM     25  C   UNL     1      -3.716  -2.132  24.375  0.00  0.00    +0.029 A 
ATOM     26  C   UNL     1      -3.457  -2.717  24.896  0.00  0.00    +0.007 A 
ATOM     27  C   UNL     1      -3.669  -3.450  24.581  0.00  0.00    +0.007 A 
ATOM     28  C   UNL     1      -4.058  -3.318  23.867  0.00  0.00    +0.035 A 
ATOM     29  S   UNL     1      -4.087  -2.503  23.739  0.00  0.00    -0.086 S 
ENDBRANCH  20  25
BRANCH   9   8
ATOM      6  C   UNL     1      -0.983   3.368  25.475  0.00  0.00    +0.242 C 
ATOM      7  O   UNL     1      -0.221   3.067  25.569  0.00  0.00    -0.273 OA
ATOM      8  N   UNL     1      -1.615   2.855  25.337  0.00  0.00    -0.205 NA
BRANCH   6   5
ATOM      5  C   UNL     1      -1.114   4.181  25.521  0.00  0.00    +0.099 C 
BRANCH   5   4
ATOM      4  C   UNL     1      -0.807   4.682  24.942  0.00  0.00    +0.124 C 
BRANCH   4   2
ATOM      1  O   UNL     1      -1.748   5.713  25.246  0.00  0.00    -0.246 OA
ATOM      2  C   UNL     1      -1.026   5.476  24.924  0.00  0.00    +0.365 C 
ATOM      3  O   UNL     1      -0.523   6.036  24.585  0.00  0.00    -0.246 OA
ENDBRANCH   4   2
ENDBRANCH   5   4
ENDBRANCH   6   5
ENDBRANCH   9   8
TORSDOF 5
ENDMDL
MODEL 3
REMARK VINA RESULT:      -9.3      2.873      4.361
REMARK  Name = 
REMARK  5 active torsions:
REMARK  status: ('A' for Active; 'I' for Inactive)
REMARK    1  A    between atoms: C_2  and  C_4
REMARK    2  A    between atoms: C_4  and  C_5
REMARK    3  A    between atoms: C_5  and  C_6
REMARK    4  A    between atoms: N_8  and  C_9
REMARK    5  A    between atoms: C_20  and  C_25
REMARK                            x       y       z     vdW  Elec       q    Type
REMARK                         _______ _______ _______ _____ _____    ______ ____
ROOT
ATOM      9  C   UNL     1      -3.511   0.263  24.805  0.00  0.00    +0.124 C 
ATOM     10  C   UNL     1      -4.182   0.605  24.468  0.00  0.00    +0.045 C 
ATOM     11  C   UNL     1      -4.043   1.414  24.390  0.00  0.00    +0.096 C 
ATOM     12  N   UNL     1      -3.286   1.573  24.678  0.00  0.00    -0.268 N 
ATOM     13  C   UNL     1      -2.958   0.861  24.935  0.00  0.00    +0.174 C 
ATOM     14  C   UNL     1      -2.214   0.728  25.268  0.00  0.00    +0.265 C 
ATOM     15  O   UNL     1      -2.047  -0.055  25.469  0.00  0.00    -0.271 OA
ATOM     16  N   UNL     1      -1.616   1.273  25.425  0.00  0.00    -0.178 NA
ATOM     17  C   UNL     1      -1.614   2.088  25.289  0.00  0.00    +0.078 A 
ATOM     18  C   UNL     1      -0.903   2.431  25.528  0.00  0.00    +0.017 A 
ATOM     19  C   UNL     1      -0.786   3.243  25.440  0.00  0.00    +0.002 A 
ATOM     20  C   UNL     1      -1.381   3.712  25.113  0.00  0.00    +0.006 A 
ATOM     21  C   UNL     1      -2.092   3.369  24.874  0.00  0.00    +0.006 A 
ATOM     22  C   UNL     1      -2.209   2.556  24.962  0.00  0.00    +0.069 A 
ATOM     23  C   UNL     1      -2.954   2.327  24.690  0.00  0.00    +0.251 C 
ATOM     24  O   UNL     1      -3.427   2.932  24.391  0.00  0.00    -0.270 OA
ENDROOT
BRANCH  20  25
ATOM     25  C   UNL     1      -1.265   4.523  25.024  0.00  0.00    +0.029 A 
ATOM     26  C   UNL     1      -1.769   5.118  25.299  0.00  0.00    +0.007 A 
ATOM     27  C   UNL     1      -1.441   5.846  25.090  0.00  0.00    +0.007 A 
ATOM     28  C   UNL     1      -0.736   5.702  24.687  0.00  0.00    +0.035 A 
ATOM     29  S   UNL     1      -0.627   4.885  24.646  0.00  0.00    -0.086 S 
ENDBRANCH  20  25
BRANCH   9   8
ATOM      6  C   UNL     1      -3.932  -1.096  24.672  0.00  0.00    +0.242 C 
ATOM      7  O   UNL     1      -4.554  -0.855  24.186  0.00  0.00    -0.273 OA
ATOM      8  N   UNL     1      -3.411  -0.536  24.981  0.00  0.00    -0.205 NA
BRANCH   6   5
ATOM      5  C   UNL     1      -3.833  -1.895  24.848  0.00  0.00    +0.099 C 
BRANCH   5   4
ATOM      4  C   UNL     1      -3.759  -2.447  24.239  0.00  0.00    +0.124 C 
BRANCH   4   2
ATOM      1  O   UNL     1      -3.619  -3.687  24.934  0.00  0.00    -0.246 OA
ATOM      2  C   UNL     1      -3.350  -3.151  24.367  0.00  0.00    +0.365 C 
ATOM      3  O   UNL     1      -2.673  -3.321  23.928  0.00  0.00    -0.246 OA
ENDBRANCH   4   2
ENDBRANCH   5   4
ENDBRANCH   6   5
ENDBRANCH   9   8
TORSDOF 5
ENDMDL
MODEL 4
REMARK VINA RESULT:      -7.8      2.048      5.974
REMARK  Name = 
REMARK  5 active torsions:
REMARK  status: ('A' for Active; 'I' for Inactive)
REMARK    1  A    between atoms: C_2  and  C_4
REMARK    2  A    between atoms: C_4  and  C_5
REMARK    3  A    between atoms: C_5  and  C_6
REMARK    4  A    between atoms: N_8  and  C_9
REMARK    5  A    between atoms: C_20  and  C_25
REMARK                            x       y       z     vdW  Elec       q    Type
REMARK                         _______ _______ _______ _____ _____    ______ ____
ROOT
ATOM      9  C   UNL     1      -3.229   1.643  24.327  0.00  0.00    +0.124 C 
ATOM     10  C   UNL     1      -3.155   2.313  23.851  0.00  0.00    +0.045 C 
ATOM     11  C   UNL     1      -2.413   2.289  23.491  0.00  0.00    +0.096 C 
ATOM     12  N   UNL     1      -2.029   1.604  23.744  0.00  0.00    -0.268 N 
ATOM     13  C   UNL     1      -2.533   1.205  24.261  0.00  0.00    +0.174 C 
ATOM     14  C   UNL     1      -2.404   0.495  24.660  0.00  0.00    +0.265 C 
ATOM     15  O   UNL     1      -3.022   0.237  25.142  0.00  0.00    -0.271 OA
ATOM     16  N   UNL     1      -1.738   0.008  24.642  0.00  0.00    -0.178 NA
ATOM     17  C   UNL     1      -1.037   0.112  24.219  0.00  0.00    +0.078 A 
ATOM     18  C   UNL     1      -0.508  -0.506  24.356  0.00  0.00    +0.017 A 
ATOM     19  C   UNL     1       0.229  -0.509  23.985  0.00  0.00    +0.002 A 
ATOM     20  C   UNL     1       0.437   0.106  23.476  0.00  0.00    +0.006 A 
ATOM     21  C   UNL     1      -0.092   0.724  23.339  0.00  0.00    +0.006 A 
ATOM     22  C   UNL     1      -0.829   0.728  23.710  0.00  0.00    +0.069 A 
ATOM     23  C   UNL     1      -1.270   1.392  23.499  0.00  0.00    +0.251 C 
ATOM     24  O   UNL     1      -0.905   1.912  22.974  0.00  0.00    -0.270 OA
ENDROOT
BRANCH  20  25
ATOM     25  C   UNL     1       1.173   0.104  23.105  0.00  0.00    +0.029 A 
ATOM     26  C   UNL     1       1.847   0.507  23.361  0.00  0.00    +0.007 A 
ATOM     27  C   UNL     1       2.456   0.351  22.827  0.00  0.00    +0.007 A 
ATOM     28  C   UNL     1       2.159  -0.148  22.241  0.00  0.00    +0.035 A 
ATOM     29  S   UNL     1       1.367  -0.301  22.413  0.00  0.00    -0.086 S 
ENDBRANCH  20  25
BRANCH   9   8
ATOM      6  C   UNL     1      -4.563   1.914  24.761  0.00  0.00    +0.242 C 
ATOM      7  O   UNL     1      -4.587   2.580  24.274  0.00  0.00    -0.273 OA
ATOM      8  N   UNL     1      -3.884   1.446  24.787  0.00  0.00    -0.205 NA
BRANCH   6   5
ATOM      5  C   UNL     1      -5.218   1.717  25.222  0.00  0.00    +0.099 C 
BRANCH   5   4
ATOM      4  C   UNL     1      -5.659   2.311  25.588  0.00  0.00    +0.124 C 
BRANCH   4   2
ATOM      1  O   UNL     1      -6.158   2.601  26.896  0.00  0.00    -0.246 OA
ATOM      2  C   UNL     1      -6.155   2.126  26.221  0.00  0.00    +0.365 C 
ATOM      3  O   UNL     1      -6.648   1.466  26.179  0.00  0.00    -0.246 OA
ENDBRANCH   4   2
ENDBRANCH   5   4
ENDBRANCH   6   5
ENDBRANCH   9   8
TORSDOF 5
ENDMDL
MODEL 5
REMARK VINA RESULT:      -6.8     15.397     16.533
REMARK  Name = 
REMARK  5 active torsions:
REMARK  status: ('A' for Active; 'I' for Inactive)
REMARK    1  A    between atoms: C_2  and  C_4
REMARK    2  A    between atoms: C_4  and  C_5
REMARK    3  A    between atoms: C_5  and  C_6
REMARK    4  A    between atoms: N_8  and  C_9
REMARK    5  A    between atoms: C_20  and  C_25
REMARK                            x       y       z     vdW  Elec       q    Type
REMARK                         _______ _______ _______ _____ _____    ______ ____
ROOT
ATOM      9  C   UNL     1      -5.579 -10.335  14.768  0.00  0.00    +0.124 C 
ATOM     10  C   UNL     1      -6.343 -10.076  14.595  0.00  0.00    +0.045 C 
ATOM     11  C   UNL     1      -6.370  -9.883  13.793  0.00  0.00    +0.096 C 
ATOM     12  N   UNL     1      -5.624 -10.023  13.471  0.00  0.00    -0.268 N 
ATOM     13  C   UNL     1      -5.135 -10.303  14.073  0.00  0.00    +0.174 C 
ATOM     14  C   UNL     1      -4.340 -10.521  14.032  0.00  0.00    +0.265 C 
ATOM     15  O   UNL     1      -4.003 -10.781  14.738  0.00  0.00    -0.271 OA
ATOM     16  N   UNL     1      -3.839 -10.514  13.377  0.00  0.00    -0.178 NA
ATOM     17  C   UNL     1      -4.008 -10.287  12.602  0.00  0.00    +0.078 A 
ATOM     18  C   UNL     1      -3.348 -10.364  12.114  0.00  0.00    +0.017 A 
ATOM     19  C   UNL     1      -3.399 -10.165  11.314  0.00  0.00    +0.002 A 
ATOM     20  C   UNL     1      -4.111  -9.889  11.004  0.00  0.00    +0.006 A 
ATOM     21  C   UNL     1      -4.772  -9.812  11.491  0.00  0.00    +0.006 A 
ATOM     22  C   UNL     1      -4.721 -10.011  12.291  0.00  0.00    +0.069 A 
ATOM     23  C   UNL     1      -5.440  -9.893  12.678  0.00  0.00    +0.251 C 
ATOM     24  O   UNL     1      -6.056  -9.608  12.209  0.00  0.00    -0.270 OA
ENDROOT
BRANCH  20  25
ATOM     25  C   UNL     1      -4.163  -9.690  10.205  0.00  0.00    +0.029 A 
ATOM     26  C   UNL     1      -4.036  -8.940   9.883  0.00  0.00    +0.007 A 
ATOM     27  C   UNL     1      -4.145  -8.992   9.066  0.00  0.00    +0.007 A 
ATOM     28  C   UNL     1      -4.341  -9.772   8.885  0.00  0.00    +0.035 A 
ATOM     29  S   UNL     1      -4.352 -10.204   9.588  0.00  0.00    -0.086 S 
ENDBRANCH  20  25
BRANCH   9   8
ATOM      6  C   UNL     1      -5.774 -10.471  16.177  0.00  0.00    +0.242 C 
ATOM      7  O   UNL     1      -6.513 -10.111  16.110  0.00  0.00    -0.273 OA
ATOM      8  N   UNL     1      -5.307 -10.583  15.506  0.00  0.00    -0.205 NA
BRANCH   6   5
ATOM      5  C   UNL     1      -5.502 -10.719  16.915  0.00  0.00    +0.099 C 
BRANCH   5   4
ATOM      4  C   UNL     1      -5.744 -10.325  17.598  0.00  0.00    +0.124 C 
BRANCH   4   2
ATOM      1  O   UNL     1      -6.119 -10.781  18.899  0.00  0.00    -0.246 OA
ATOM      2  C   UNL     1      -5.535 -10.617  18.340  0.00  0.00    +0.365 C 
ATOM      3  O   UNL     1      -4.741 -10.747  18.524  0.00  0.00    -0.246 OA
ENDBRANCH   4   2
ENDBRANCH   5   4
ENDBRANCH   6   5
ENDBRANCH   9   8
TORSDOF 5
ENDMDL
MODEL 6
REMARK VINA RESULT:      -6.6     14.593     15.341
REMARK  Name = 
REMARK  5 active torsions:
REMARK  status: ('A' for Active; 'I' for Inactive)
REMARK    1  A    between atoms: C_2  and  C_4
REMARK    2  A    between atoms: C_4  and  C_5
REMARK    3  A    between atoms: C_5  and  C_6
REMARK    4  A    between atoms: N_8  and  C_9
REMARK    5  A    between atoms: C_20  and  C_25
REMARK                            x       y       z     vdW  Elec       q    Type
REMARK                         _______ _______ _______ _____ _____    ______ ____
ROOT
ATOM      9  C   UNL     1      -4.902 -10.272  13.457  0.00  0.00    +0.124 C 
ATOM     10  C   UNL     1      -5.707 -10.197  13.292  0.00  0.00    +0.045 C 
ATOM     11  C   UNL     1      -6.116 -10.211  14.008  0.00  0.00    +0.096 C 
ATOM     12  N   UNL     1      -5.566 -10.295  14.616  0.00  0.00    -0.268 N 
ATOM     13  C   UNL     1      -4.815 -10.333  14.276  0.00  0.00    +0.174 C 
ATOM     14  C   UNL     1      -4.084 -10.416  14.649  0.00  0.00    +0.265 C 
ATOM     15  O   UNL     1      -3.427 -10.435  14.150  0.00  0.00    -0.271 OA
ATOM     16  N   UNL     1      -3.923 -10.482  15.455  0.00  0.00    -0.178 NA
ATOM     17  C   UNL     1      -4.454 -10.481  16.088  0.00  0.00    +0.078 A 
ATOM     18  C   UNL     1      -4.063 -10.560  16.810  0.00  0.00    +0.017 A 
ATOM     19  C   UNL     1      -4.494 -10.572  17.514  0.00  0.00    +0.002 A 
ATOM     20  C   UNL     1      -5.316 -10.506  17.495  0.00  0.00    +0.006 A 
ATOM     21  C   UNL     1      -5.707 -10.427  16.773  0.00  0.00    +0.006 A 
ATOM     22  C   UNL     1      -5.276 -10.415  16.069  0.00  0.00    +0.069 A 
ATOM     23  C   UNL     1      -5.771 -10.332  15.413  0.00  0.00    +0.251 C 
ATOM     24  O   UNL     1      -6.577 -10.278  15.579  0.00  0.00    -0.270 OA
ENDROOT
BRANCH  20  25
ATOM     25  C   UNL     1      -5.747 -10.518  18.198  0.00  0.00    +0.029 A 
ATOM     26  C   UNL     1      -6.528 -10.268  18.291  0.00  0.00    +0.007 A 
ATOM     27  C   UNL     1      -6.738 -10.377  19.082  0.00  0.00    +0.007 A 
ATOM     28  C   UNL     1      -6.086 -10.694  19.476  0.00  0.00    +0.035 A 
ATOM     29  S   UNL     1      -5.474 -10.781  18.930  0.00  0.00    -0.086 S 
ENDBRANCH  20  25
BRANCH   9   8
ATOM      6  C   UNL     1      -4.466 -10.245  12.097  0.00  0.00    +0.242 C 
ATOM      7  O   UNL     1      -5.251 -10.195  11.846  0.00  0.00    -0.273 OA
ATOM      8  N   UNL     1      -4.293 -10.284  12.902  0.00  0.00    -0.205 NA
BRANCH   6   5
ATOM      5  C   UNL     1      -3.857 -10.257  11.542  0.00  0.00    +0.099 C 
BRANCH   5   4
ATOM      4  C   UNL     1      -3.863  -9.727  10.909  0.00  0.00    +0.124 C 
BRANCH   4   2
ATOM      1  O   UNL     1      -3.268  -9.643   9.613  0.00  0.00    -0.246 OA
ATOM      2  C   UNL     1      -3.194  -9.642  10.435  0.00  0.00    +0.365 C 
ATOM      3  O   UNL     1      -2.451  -9.556  10.782  0.00  0.00    -0.246 OA
ENDBRANCH   4   2
ENDBRANCH   5   4
ENDBRANCH   6   5
ENDBRANCH   9   8
TORSDOF 5
ENDMDL
MODEL 7
REMARK VINA RESULT:      -6.6     13.919     15.411
REMARK  Name = 
REMARK  5 active torsions:
REMARK  status: ('A' for Active; 'I' for Inactive)
REMARK    1  A    between atoms: C_2  and  C_4
REMARK    2  A    between atoms: C_4  and  C_5
REMARK    3  A    between atoms: C_5  and  C_6
REMARK    4  A    between atoms: N_8  and  C_9
REMARK    5  A    between atoms: C_20  and  C_25
REMARK                            x       y       z     vdW  Elec       q    Type
REMARK                         _______ _______ _______ _____ _____    ______ ____
ROOT
ATOM      9  C   UNL     1      -6.843 -10.450  17.468  0.00  0.00    +0.124 C 
ATOM     10  C   UNL     1      -6.549 -10.451  18.239  0.00  0.00    +0.045 C 
ATOM     11  C   UNL     1      -5.726 -10.487  18.198  0.00  0.00    +0.096 C 
ATOM     12  N   UNL     1      -5.511 -10.509  17.402  0.00  0.00    -0.268 N 
ATOM     13  C   UNL     1      -6.201 -10.486  16.951  0.00  0.00    +0.174 C 
ATOM     14  C   UNL     1      -6.279 -10.496  16.129  0.00  0.00    +0.265 C 
ATOM     15  O   UNL     1      -7.053 -10.467  15.843  0.00  0.00    -0.271 OA
ATOM     16  N   UNL     1      -5.687 -10.530  15.556  0.00  0.00    -0.178 NA
ATOM     17  C   UNL     1      -4.869 -10.564  15.663  0.00  0.00    +0.078 A 
ATOM     18  C   UNL     1      -4.472 -10.592  14.941  0.00  0.00    +0.017 A 
ATOM     19  C   UNL     1      -3.648 -10.628  14.924  0.00  0.00    +0.002 A 
ATOM     20  C   UNL     1      -3.221 -10.636  15.631  0.00  0.00    +0.006 A 
ATOM     21  C   UNL     1      -3.619 -10.607  16.353  0.00  0.00    +0.006 A 
ATOM     22  C   UNL     1      -4.443 -10.571  16.370  0.00  0.00    +0.069 A 
ATOM     23  C   UNL     1      -4.729 -10.547  17.144  0.00  0.00    +0.251 C 
ATOM     24  O   UNL     1      -4.156 -10.562  17.737  0.00  0.00    -0.270 OA
ENDROOT
BRANCH  20  25
ATOM     25  C   UNL     1      -2.398 -10.672  15.615  0.00  0.00    +0.029 A 
ATOM     26  C   UNL     1      -1.904 -10.779  16.268  0.00  0.00    +0.007 A 
ATOM     27  C   UNL     1      -1.123 -10.780  16.001  0.00  0.00    +0.007 A 
ATOM     28  C   UNL     1      -1.134 -10.674  15.183  0.00  0.00    +0.035 A 
ATOM     29  S   UNL     1      -1.922 -10.607  14.944  0.00  0.00    -0.086 S 
ENDBRANCH  20  25
BRANCH   9   8
ATOM      6  C   UNL     1      -8.224 -10.410  17.834  0.00  0.00    +0.242 C 
ATOM      7  O   UNL     1      -8.013 -10.431  18.631  0.00  0.00    -0.273 OA
ATOM      8  N   UNL     1      -7.638 -10.419  17.252  0.00  0.00    -0.205 NA
BRANCH   6   5
ATOM      5  C   UNL     1      -9.019 -10.379  17.618  0.00  0.00    +0.099 C 
BRANCH   5   4
ATOM      4  C   UNL     1      -9.552  -9.938  18.068  0.00  0.00    +0.124 C 
BRANCH   4   2
ATOM      1  O   UNL     1     -10.719 -10.466  17.435  0.00  0.00    -0.246 OA
ATOM      2  C   UNL     1     -10.330  -9.844  17.812  0.00  0.00    +0.365 C 
ATOM      3  O   UNL     1     -10.719  -9.126  17.931  0.00  0.00    -0.246 OA
ENDBRANCH   4   2
ENDBRANCH   5   4
ENDBRANCH   6   5
ENDBRANCH   9   8
TORSDOF 5
ENDMDL
