MODEL 1
REMARK VINA RESULT:     -11.8      0.000      0.000
REMARK  Name = 
REMARK  6 active torsions:
REMARK  status: ('A' for Active; 'I' for Inactive)
REMARK    1  A    between atoms: C_2  and  C_3
REMARK    2  A    between atoms: C_2  and  C_17
REMARK    3  A    between atoms: N_9  and  C_10
REMARK    4  A    between atoms: C_10  and  C_11
REMARK    5  A    between atoms: C_20  and  N_21
REMARK    6  A    between atoms: C_22  and  C_24
REMARK                            x       y       z     vdW  Elec       q    Type
REMARK                         _______ _______ _______ _____ _____    ______ ____
ROOT
ATOM      1  O   UNL     1      -3.995   3.375  23.614  0.00  0.00    -0.216 OA
ATOM      2  C   UNL     1      -3.998   2.940  24.316  0.00  0.00    +0.195 C 
ENDROOT
BRANCH   2   3
ATOM      3  C   UNL     1      -3.984   3.330  25.043  0.00  0.00    +0.140 C 
ATOM      4  C   UNL     1      -4.581   3.194  25.594  0.00  0.00    +0.165 C 
ATOM      5  O   UNL     1      -4.568   3.585  26.322  0.00  0.00    -0.343 OA
ATOM      6  C   UNL     1      -3.956   4.109  26.497  0.00  0.00    +0.227 C 
ATOM      7  C   UNL     1      -3.358   4.245  25.945  0.00  0.00    +0.256 C 
ATOM      8  O   UNL     1      -2.747   4.770  26.119  0.00  0.00    -0.272 OA
ATOM      9  N   UNL     1      -3.372   3.855  25.217  0.00  0.00    -0.268 N 
BRANCH   9  10
ATOM     10  C   UNL     1      -2.774   3.990  24.666  0.00  0.00    +0.139 C 
BRANCH  10  11
ATOM     11  C   UNL     1      -1.985   3.977  24.901  0.00  0.00    +0.079 A 
ATOM     12  N   UNL     1      -1.672   3.302  25.259  0.00  0.00    -0.246 NA
ATOM     13  C   UNL     1      -0.881   3.289  25.495  0.00  0.00    +0.099 A 
ATOM     14  C   UNL     1      -0.402   3.950  25.374  0.00  0.00    +0.021 A 
ATOM     15  C   UNL     1      -0.715   4.626  25.016  0.00  0.00    +0.003 A 
ATOM     16  C   UNL     1      -1.506   4.638  24.780  0.00  0.00    +0.016 A 
ENDBRANCH  10  11
ENDBRANCH   9  10
ENDBRANCH   2   3
BRANCH   2  17
ATOM     17  C   UNL     1      -4.014   2.116  24.290  0.00  0.00    +0.010 A 
ATOM     18  C   UNL     1      -4.581   1.700  24.720  0.00  0.00    -0.000 A 
ATOM     19  C   UNL     1      -4.597   0.875  24.694  0.00  0.00    +0.016 A 
ATOM     20  C   UNL     1      -4.046   0.467  24.236  0.00  0.00    +0.074 A 
ATOM     31  C   UNL     1      -3.479   0.882  23.805  0.00  0.00    +0.016 A 
ATOM     32  C   UNL     1      -3.463   1.707  23.831  0.00  0.00    -0.000 A 
BRANCH  20  21
ATOM     21  N   UNL     1      -4.062  -0.358  24.209  0.00  0.00    -0.175 NA
ATOM     22  C   UNL     1      -3.588  -0.797  24.722  0.00  0.00    +0.269 C 
ATOM     23  O   UNL     1      -3.097  -0.410  25.261  0.00  0.00    -0.268 OA
BRANCH  22  24
ATOM     24  C   UNL     1      -3.604  -1.620  24.695  0.00  0.00    +0.059 A 
ATOM     25  C   UNL     1      -3.977  -2.006  24.067  0.00  0.00    +0.035 A 
ATOM     26  C   UNL     1      -3.993  -2.830  24.040  0.00  0.00    +0.138 A 
ATOM     27 CL   UNL     1      -4.366  -3.215  23.412  0.00  0.00    -0.061 Cl
ATOM     28  N   UNL     1      -3.638  -3.270  24.640  0.00  0.00    -0.232 NA
ATOM     29  C   UNL     1      -3.265  -2.885  25.268  0.00  0.00    +0.100 A 
ATOM     30  C   UNL     1      -3.248  -2.061  25.295  0.00  0.00    +0.025 A 
ENDBRANCH  22  24
ENDBRANCH  20  21
ENDBRANCH   2  17
TORSDOF 6
ENDMDL
MODEL 2
REMARK VINA RESULT:     -10.8      2.486      6.247
REMARK  Name = 
REMARK  6 active torsions:
REMARK  status: ('A' for Active; 'I' for Inactive)
REMARK    1  A    between atoms: C_2  and  C_3
REMARK    2  A    between atoms: C_2  and  C_17
REMARK    3  A    between atoms: N_9  and  C_10
REMARK    4  A    between atoms: C_10  and  C_11
REMARK    5  A    between atoms: C_20  and  N_21
REMARK    6  A    between atoms: C_22  and  C_24
REMARK                            x       y       z     vdW  Elec       q    Type
REMARK                         _______ _______ _______ _____ _____    ______ ____
ROOT
ATOM      1  O   UNL     1      -1.935  -0.711  26.260  0.00  0.00    -0.216 OA
ATOM      2  C   UNL     1      -1.598  -0.440  25.556  0.00  0.00    +0.195 C 
ENDROOT
BRANCH   2   3
ATOM      3  C   UNL     1      -1.288  -0.979  25.013  0.00  0.00    +0.140 C 
ATOM      4  C   UNL     1      -0.562  -0.829  24.653  0.00  0.00    +0.165 C 
ATOM      5  O   UNL     1      -0.252  -1.368  24.109  0.00  0.00    -0.343 OA
ATOM      6  C   UNL     1      -0.668  -2.056  23.928  0.00  0.00    +0.227 C 
ATOM      7  C   UNL     1      -1.395  -2.207  24.289  0.00  0.00    +0.256 C 
ATOM      8  O   UNL     1      -1.811  -2.895  24.108  0.00  0.00    -0.272 OA
ATOM      9  N   UNL     1      -1.705  -1.668  24.833  0.00  0.00    -0.268 N 
BRANCH   9  10
ATOM     10  C   UNL     1      -2.431  -1.818  25.193  0.00  0.00    +0.139 C 
BRANCH  10  11
ATOM     11  C   UNL     1      -3.086  -2.019  24.735  0.00  0.00    +0.079 A 
ATOM     12  N   UNL     1      -3.428  -1.457  24.235  0.00  0.00    -0.246 NA
ATOM     13  C   UNL     1      -4.084  -1.658  23.777  0.00  0.00    +0.099 A 
ATOM     14  C   UNL     1      -4.398  -2.420  23.816  0.00  0.00    +0.021 A 
ATOM     15  C   UNL     1      -4.056  -2.982  24.316  0.00  0.00    +0.003 A 
ATOM     16  C   UNL     1      -3.400  -2.780  24.775  0.00  0.00    +0.016 A 
ENDBRANCH  10  11
ENDBRANCH   9  10
ENDBRANCH   2   3
BRANCH   2  17
ATOM     17  C   UNL     1      -1.572   0.369  25.396  0.00  0.00    +0.010 A 
ATOM     18  C   UNL     1      -2.218   0.741  25.045  0.00  0.00    -0.000 A 
ATOM     19  C   UNL     1      -2.191   1.550  24.885  0.00  0.00    +0.016 A 
ATOM     20  C   UNL     1      -1.518   1.986  25.077  0.00  0.00    +0.074 A 
ATOM     31  C   UNL     1      -0.872   1.614  25.429  0.00  0.00    +0.016 A 
ATOM     32  C   UNL     1      -0.898   0.805  25.588  0.00  0.00    -0.000 A 
BRANCH  20  21
ATOM     21  N   UNL     1      -1.491   2.796  24.918  0.00  0.00    -0.175 NA
ATOM     22  C   UNL     1      -1.627   3.340  25.522  0.00  0.00    +0.269 C 
ATOM     23  O   UNL     1      -1.789   3.075  26.287  0.00  0.00    -0.268 OA
BRANCH  22  24
ATOM     24  C   UNL     1      -1.600   4.149  25.362  0.00  0.00    +0.059 A 
ATOM     25  C   UNL     1      -0.924   4.480  25.022  0.00  0.00    +0.035 A 
ATOM     26  C   UNL     1      -0.898   5.289  24.862  0.00  0.00    +0.138 A 
ATOM     27 CL   UNL     1      -0.223   5.620  24.522  0.00  0.00    -0.061 Cl
ATOM     28  N   UNL     1      -1.546   5.767  25.042  0.00  0.00    -0.232 NA
ATOM     29  C   UNL     1      -2.221   5.435  25.382  0.00  0.00    +0.100 A 
ATOM     30  C   UNL     1      -2.248   4.627  25.542  0.00  0.00    +0.025 A 
ENDBRANCH  22  24
ENDBRANCH  20  21
ENDBRANCH   2  17
TORSDOF 6
ENDMDL
MODEL 3
REMARK VINA RESULT:      -9.9      1.676      2.787
REMARK  Name = 
REMARK  6 active torsions:
REMARK  status: ('A' for Active; 'I' for Inactive)
REMARK    1  A    between atoms: C_2  and  C_3
REMARK    2  A    between atoms: C_2  and  C_17
REMARK    3  A    between atoms: N_9  and  C_10
REMARK    4  A    between atoms: C_10  and  C_11
REMARK    5  A    between atoms: C_20  and  N_21
REMARK    6  A    between atoms: C_22  and  C_24
REMARK                            x       y       z     vdW  Elec       q    Type
REMARK                         _______ _______ _______ _____ _____    ______ ____
ROOT
ATOM      1  O   UNL     1      -0.220   2.010  26.384  0.00  0.00    -0.216 OA
ATOM      2  C   UNL     1      -0.519   1.904  25.622  0.00  0.00    +0.195 C 
ENDROOT
BRANCH   2   3
ATOM      3  C   UNL     1      -0.461   2.512  25.068  0.00  0.00    +0.140 C 
ATOM      4  C   UNL     1      -0.008   2.409  24.387  0.00  0.00    +0.165 C 
ATOM      5  O   UNL     1       0.050   3.018  23.832  0.00  0.00    -0.343 OA
ATOM      6  C   UNL     1      -0.346   3.730  23.960  0.00  0.00    +0.227 C 
ATOM      7  C   UNL     1      -0.800   3.834  24.641  0.00  0.00    +0.256 C 
ATOM      8  O   UNL     1      -1.196   4.546  24.768  0.00  0.00    -0.272 OA
ATOM      9  N   UNL     1      -0.858   3.225  25.196  0.00  0.00    -0.268 N 
BRANCH   9  10
ATOM     10  C   UNL     1      -1.311   3.328  25.876  0.00  0.00    +0.139 C 
BRANCH  10  11
ATOM     11  C   UNL     1      -2.098   3.567  25.816  0.00  0.00    +0.079 A 
ATOM     12  N   UNL     1      -2.582   3.248  25.227  0.00  0.00    -0.246 NA
ATOM     13  C   UNL     1      -3.369   3.488  25.167  0.00  0.00    +0.099 A 
ATOM     14  C   UNL     1      -3.674   4.045  25.693  0.00  0.00    +0.021 A 
ATOM     15  C   UNL     1      -3.190   4.364  26.282  0.00  0.00    +0.003 A 
ATOM     16  C   UNL     1      -2.402   4.125  26.342  0.00  0.00    +0.016 A 
ENDBRANCH  10  11
ENDBRANCH   9  10
ENDBRANCH   2   3
BRANCH   2  17
ATOM     17  C   UNL     1      -0.874   1.189  25.414  0.00  0.00    +0.010 A 
ATOM     18  C   UNL     1      -0.915   0.963  24.623  0.00  0.00    -0.000 A 
ATOM     19  C   UNL     1      -1.271   0.247  24.416  0.00  0.00    +0.016 A 
ATOM     20  C   UNL     1      -1.584  -0.242  25.002  0.00  0.00    +0.074 A 
ATOM     31  C   UNL     1      -1.543  -0.016  25.793  0.00  0.00    +0.016 A 
ATOM     32  C   UNL     1      -1.188   0.699  26.000  0.00  0.00    -0.000 A 
BRANCH  20  21
ATOM     21  N   UNL     1      -1.940  -0.958  24.795  0.00  0.00    -0.175 NA
ATOM     22  C   UNL     1      -2.762  -1.028  24.803  0.00  0.00    +0.269 C 
ATOM     23  O   UNL     1      -3.228  -0.382  25.018  0.00  0.00    -0.268 OA
BRANCH  22  24
ATOM     24  C   UNL     1      -3.116  -1.742  24.596  0.00  0.00    +0.059 A 
ATOM     25  C   UNL     1      -3.781  -1.747  24.106  0.00  0.00    +0.035 A 
ATOM     26  C   UNL     1      -4.136  -2.463  23.899  0.00  0.00    +0.138 A 
ATOM     27 CL   UNL     1      -4.800  -2.467  23.409  0.00  0.00    -0.061 Cl
ATOM     28  N   UNL     1      -3.827  -3.173  24.181  0.00  0.00    -0.232 NA
ATOM     29  C   UNL     1      -3.163  -3.169  24.671  0.00  0.00    +0.100 A 
ATOM     30  C   UNL     1      -2.808  -2.454  24.878  0.00  0.00    +0.025 A 
ENDBRANCH  22  24
ENDBRANCH  20  21
ENDBRANCH   2  17
TORSDOF 6
ENDMDL
MODEL 4
REMARK VINA RESULT:      -9.5      1.039      2.144
REMARK  Name = 
REMARK  6 active torsions:
REMARK  status: ('A' for Active; 'I' for Inactive)
REMARK    1  A    between atoms: C_2  and  C_3
REMARK    2  A    between atoms: C_2  and  C_17
REMARK    3  A    between atoms: N_9  and  C_10
REMARK    4  A    between atoms: C_10  and  C_11
REMARK    5  A    between atoms: C_20  and  N_21
REMARK    6  A    between atoms: C_22  and  C_24
REMARK                            x       y       z     vdW  Elec       q    Type
REMARK                         _______ _______ _______ _____ _____    ______ ____
ROOT
ATOM      1  O   UNL     1      -2.554   3.119  23.446  0.00  0.00    -0.216 OA
ATOM      2  C   UNL     1      -2.484   2.688  24.147  0.00  0.00    +0.195 C 
ENDROOT
BRANCH   2   3
ATOM      3  C   UNL     1      -2.324   3.078  24.857  0.00  0.00    +0.140 C 
ATOM      4  C   UNL     1      -1.629   2.915  25.269  0.00  0.00    +0.165 C 
ATOM      5  O   UNL     1      -1.470   3.306  25.979  0.00  0.00    -0.343 OA
ATOM      6  C   UNL     1      -2.005   3.858  26.276  0.00  0.00    +0.227 C 
ATOM      7  C   UNL     1      -2.701   4.021  25.863  0.00  0.00    +0.256 C 
ATOM      8  O   UNL     1      -3.237   4.573  26.160  0.00  0.00    -0.272 OA
ATOM      9  N   UNL     1      -2.861   3.631  25.153  0.00  0.00    -0.268 N 
BRANCH   9  10
ATOM     10  C   UNL     1      -3.556   3.793  24.741  0.00  0.00    +0.139 C 
BRANCH  10  11
ATOM     11  C   UNL     1      -4.285   3.725  25.118  0.00  0.00    +0.079 A 
ATOM     12  N   UNL     1      -4.443   3.070  25.597  0.00  0.00    -0.246 NA
ATOM     13  C   UNL     1      -5.173   3.001  25.974  0.00  0.00    +0.099 A 
ATOM     14  C   UNL     1      -5.746   3.586  25.875  0.00  0.00    +0.021 A 
ATOM     15  C   UNL     1      -5.589   4.241  25.397  0.00  0.00    +0.003 A 
ATOM     16  C   UNL     1      -4.859   4.309  25.019  0.00  0.00    +0.016 A 
ENDBRANCH  10  11
ENDBRANCH   9  10
ENDBRANCH   2   3
BRANCH   2  17
ATOM     17  C   UNL     1      -2.573   1.868  24.138  0.00  0.00    +0.010 A 
ATOM     18  C   UNL     1      -2.086   1.395  24.604  0.00  0.00    -0.000 A 
ATOM     19  C   UNL     1      -2.175   0.574  24.594  0.00  0.00    +0.016 A 
ATOM     20  C   UNL     1      -2.753   0.229  24.117  0.00  0.00    +0.074 A 
ATOM     31  C   UNL     1      -3.239   0.702  23.650  0.00  0.00    +0.016 A 
ATOM     32  C   UNL     1      -3.150   1.522  23.660  0.00  0.00    -0.000 A 
BRANCH  20  21
ATOM     21  N   UNL     1      -2.842  -0.592  24.106  0.00  0.00    -0.175 NA
ATOM     22  C   UNL     1      -3.368  -0.956  24.627  0.00  0.00    +0.269 C 
ATOM     23  O   UNL     1      -3.805  -0.499  25.158  0.00  0.00    -0.268 OA
BRANCH  22  24
ATOM     24  C   UNL     1      -3.458  -1.776  24.617  0.00  0.00    +0.059 A 
ATOM     25  C   UNL     1      -3.936  -2.132  24.045  0.00  0.00    +0.035 A 
ATOM     26  C   UNL     1      -4.024  -2.952  24.035  0.00  0.00    +0.138 A 
ATOM     27 CL   UNL     1      -4.502  -3.308  23.464  0.00  0.00    -0.061 Cl
ATOM     28  N   UNL     1      -3.637  -3.416  24.595  0.00  0.00    -0.232 NA
ATOM     29  C   UNL     1      -3.159  -3.060  25.167  0.00  0.00    +0.100 A 
ATOM     30  C   UNL     1      -3.070  -2.241  25.177  0.00  0.00    +0.025 A 
ENDBRANCH  22  24
ENDBRANCH  20  21
ENDBRANCH   2  17
TORSDOF 6
ENDMDL
MODEL 5
REMARK VINA RESULT:      -9.4      3.479      5.310
REMARK  Name = 
REMARK  6 active torsions:
REMARK  status: ('A' for Active; 'I' for Inactive)
REMARK    1  A    between atoms: C_2  and  C_3
REMARK    2  A    between atoms: C_2  and  C_17
REMARK    3  A    between atoms: N_9  and  C_10
REMARK    4  A    between atoms: C_10  and  C_11
REMARK    5  A    between atoms: C_20  and  N_21
REMARK    6  A    between atoms: C_22  and  C_24
REMARK                            x       y       z     vdW  Elec       q    Type
REMARK                         _______ _______ _______ _____ _____    ______ ____
ROOT
ATOM      1  O   UNL     1      -2.374  -0.642  26.076  0.00  0.00    -0.216 OA
ATOM      2  C   UNL     1      -2.285  -0.815  25.274  0.00  0.00    +0.195 C 
ENDROOT
BRANCH   2   3
ATOM      3  C   UNL     1      -2.934  -1.070  24.833  0.00  0.00    +0.140 C 
ATOM      4  C   UNL     1      -2.875  -1.749  24.369  0.00  0.00    +0.165 C 
ATOM      5  O   UNL     1      -3.524  -2.005  23.927  0.00  0.00    -0.343 OA
ATOM      6  C   UNL     1      -4.231  -1.582  23.950  0.00  0.00    +0.227 C 
ATOM      7  C   UNL     1      -4.291  -0.903  24.415  0.00  0.00    +0.256 C 
ATOM      8  O   UNL     1      -4.998  -0.479  24.438  0.00  0.00    -0.272 OA
ATOM      9  N   UNL     1      -3.641  -0.647  24.857  0.00  0.00    -0.268 N 
BRANCH   9  10
ATOM     10  C   UNL     1      -3.701   0.032  25.321  0.00  0.00    +0.139 C 
BRANCH  10  11
ATOM     11  C   UNL     1      -4.023   0.722  25.004  0.00  0.00    +0.079 A 
ATOM     12  N   UNL     1      -3.647   1.102  24.375  0.00  0.00    -0.246 NA
ATOM     13  C   UNL     1      -3.970   1.792  24.058  0.00  0.00    +0.099 A 
ATOM     14  C   UNL     1      -4.668   2.103  24.369  0.00  0.00    +0.021 A 
ATOM     15  C   UNL     1      -5.044   1.722  24.998  0.00  0.00    +0.003 A 
ATOM     16  C   UNL     1      -4.721   1.032  25.315  0.00  0.00    +0.016 A 
ENDBRANCH  10  11
ENDBRANCH   9  10
ENDBRANCH   2   3
BRANCH   2  17
ATOM     17  C   UNL     1      -1.548  -0.731  24.914  0.00  0.00    +0.010 A 
ATOM     18  C   UNL     1      -1.175  -1.386  24.580  0.00  0.00    -0.000 A 
ATOM     19  C   UNL     1      -0.437  -1.301  24.219  0.00  0.00    +0.016 A 
ATOM     20  C   UNL     1      -0.073  -0.562  24.194  0.00  0.00    +0.074 A 
ATOM     31  C   UNL     1      -0.446   0.093  24.528  0.00  0.00    +0.016 A 
ATOM     32  C   UNL     1      -1.183   0.009  24.888  0.00  0.00    -0.000 A 
BRANCH  20  21
ATOM     21  N   UNL     1       0.665  -0.477  23.834  0.00  0.00    -0.175 NA
ATOM     22  C   UNL     1       0.734  -0.052  23.130  0.00  0.00    +0.269 C 
ATOM     23  O   UNL     1       0.066   0.289  22.787  0.00  0.00    -0.268 OA
BRANCH  22  24
ATOM     24  C   UNL     1       1.471   0.032  22.770  0.00  0.00    +0.059 A 
ATOM     25  C   UNL     1       2.055   0.493  23.129  0.00  0.00    +0.035 A 
ATOM     26  C   UNL     1       2.793   0.577  22.769  0.00  0.00    +0.138 A 
ATOM     27 CL   UNL     1       3.376   1.038  23.126  0.00  0.00    -0.061 Cl
ATOM     28  N   UNL     1       2.947   0.200  22.052  0.00  0.00    -0.232 NA
ATOM     29  C   UNL     1       2.364  -0.261  21.693  0.00  0.00    +0.100 A 
ATOM     30  C   UNL     1       1.626  -0.345  22.053  0.00  0.00    +0.025 A 
ENDBRANCH  22  24
ENDBRANCH  20  21
ENDBRANCH   2  17
TORSDOF 6
ENDMDL
MODEL 6
REMARK VINA RESULT:      -9.3      3.299      4.521
REMARK  Name = 
REMARK  6 active torsions:
REMARK  status: ('A' for Active; 'I' for Inactive)
REMARK    1  A    between atoms: C_2  and  C_3
REMARK    2  A    between atoms: C_2  and  C_17
REMARK    3  A    between atoms: N_9  and  C_10
REMARK    4  A    between atoms: C_10  and  C_11
REMARK    5  A    between atoms: C_20  and  N_21
REMARK    6  A    between atoms: C_22  and  C_24
REMARK                            x       y       z     vdW  Elec       q    Type
REMARK                         _______ _______ _______ _____ _____    ______ ____
ROOT
ATOM      1  O   UNL     1      -2.703   1.286  25.515  0.00  0.00    -0.216 OA
ATOM      2  C   UNL     1      -2.269   1.903  25.178  0.00  0.00    +0.195 C 
ENDROOT
BRANCH   2   3
ATOM      3  C   UNL     1      -2.527   2.682  25.261  0.00  0.00    +0.140 C 
ATOM      4  C   UNL     1      -2.035   3.244  25.610  0.00  0.00    +0.165 C 
ATOM      5  O   UNL     1      -2.293   4.024  25.693  0.00  0.00    -0.343 OA
ATOM      6  C   UNL     1      -3.043   4.241  25.427  0.00  0.00    +0.227 C 
ATOM      7  C   UNL     1      -3.536   3.678  25.078  0.00  0.00    +0.256 C 
ATOM      8  O   UNL     1      -4.286   3.895  24.813  0.00  0.00    -0.272 OA
ATOM      9  N   UNL     1      -3.278   2.898  24.995  0.00  0.00    -0.268 N 
BRANCH   9  10
ATOM     10  C   UNL     1      -3.770   2.336  24.647  0.00  0.00    +0.139 C 
BRANCH  10  11
ATOM     11  C   UNL     1      -4.540   2.234  24.923  0.00  0.00    +0.079 A 
ATOM     12  N   UNL     1      -4.689   2.227  25.736  0.00  0.00    -0.246 NA
ATOM     13  C   UNL     1      -5.460   2.125  26.012  0.00  0.00    +0.099 A 
ATOM     14  C   UNL     1      -6.082   2.029  25.478  0.00  0.00    +0.021 A 
ATOM     15  C   UNL     1      -5.933   2.036  24.666  0.00  0.00    +0.003 A 
ATOM     16  C   UNL     1      -5.162   2.138  24.389  0.00  0.00    +0.016 A 
ENDBRANCH  10  11
ENDBRANCH   9  10
ENDBRANCH   2   3
BRANCH   2  17
ATOM     17  C   UNL     1      -1.579   1.739  24.758  0.00  0.00    +0.010 A 
ATOM     18  C   UNL     1      -0.863   1.653  25.158  0.00  0.00    -0.000 A 
ATOM     19  C   UNL     1      -0.172   1.489  24.738  0.00  0.00    +0.016 A 
ATOM     20  C   UNL     1      -0.198   1.411  23.917  0.00  0.00    +0.074 A 
ATOM     31  C   UNL     1      -0.914   1.497  23.517  0.00  0.00    +0.016 A 
ATOM     32  C   UNL     1      -1.604   1.661  23.937  0.00  0.00    -0.000 A 
BRANCH  20  21
ATOM     21  N   UNL     1       0.493   1.247  23.496  0.00  0.00    -0.175 NA
ATOM     22  C   UNL     1       0.718   0.465  23.362  0.00  0.00    +0.269 C 
ATOM     23  O   UNL     1       0.252  -0.153  23.648  0.00  0.00    -0.268 OA
BRANCH  22  24
ATOM     24  C   UNL     1       1.409   0.301  22.942  0.00  0.00    +0.059 A 
ATOM     25  C   UNL     1       2.123   0.646  23.172  0.00  0.00    +0.035 A 
ATOM     26  C   UNL     1       2.814   0.482  22.751  0.00  0.00    +0.138 A 
ATOM     27 CL   UNL     1       3.528   0.826  22.981  0.00  0.00    -0.061 Cl
ATOM     28  N   UNL     1       2.791  -0.025  22.102  0.00  0.00    -0.232 NA
ATOM     29  C   UNL     1       2.077  -0.370  21.871  0.00  0.00    +0.100 A 
ATOM     30  C   UNL     1       1.386  -0.206  22.291  0.00  0.00    +0.025 A 
ENDBRANCH  22  24
ENDBRANCH  20  21
ENDBRANCH   2  17
TORSDOF 6
ENDMDL
MODEL 7
REMARK VINA RESULT:      -9.3      2.243      5.555
REMARK  Name = 
REMARK  6 active torsions:
REMARK  status: ('A' for Active; 'I' for Inactive)
REMARK    1  A    between atoms: C_2  and  C_3
REMARK    2  A    between atoms: C_2  and  C_17
REMARK    3  A    between atoms: N_9  and  C_10
REMARK    4  A    between atoms: C_10  and  C_11
REMARK    5  A    between atoms: C_20  and  N_21
REMARK    6  A    between atoms: C_22  and  C_24
REMARK                            x       y       z     vdW  Elec       q    Type
REMARK                         _______ _______ _______ _____ _____    ______ ____
ROOT
ATOM      1  O   UNL     1      -3.697  -0.343  23.317  0.00  0.00    -0.216 OA
ATOM      2  C   UNL     1      -3.581  -0.004  24.061  0.00  0.00    +0.195 C 
ENDROOT
BRANCH   2   3
ATOM      3  C   UNL     1      -3.714  -0.449  24.743  0.00  0.00    +0.140 C 
ATOM      4  C   UNL     1      -4.213  -0.161  25.333  0.00  0.00    +0.165 C 
ATOM      5  O   UNL     1      -4.346  -0.607  26.015  0.00  0.00    -0.343 OA
ATOM      6  C   UNL     1      -3.980  -1.340  26.106  0.00  0.00    +0.227 C 
ATOM      7  C   UNL     1      -3.481  -1.629  25.516  0.00  0.00    +0.256 C 
ATOM      8  O   UNL     1      -3.115  -2.362  25.608  0.00  0.00    -0.272 OA
ATOM      9  N   UNL     1      -3.348  -1.183  24.834  0.00  0.00    -0.268 N 
BRANCH   9  10
ATOM     10  C   UNL     1      -2.849  -1.472  24.244  0.00  0.00    +0.139 C 
BRANCH  10  11
ATOM     11  C   UNL     1      -2.098  -1.750  24.439  0.00  0.00    +0.079 A 
ATOM     12  N   UNL     1      -1.567  -1.260  24.838  0.00  0.00    -0.246 NA
ATOM     13  C   UNL     1      -0.815  -1.539  25.033  0.00  0.00    +0.099 A 
ATOM     14  C   UNL     1      -0.593  -2.307  24.829  0.00  0.00    +0.021 A 
ATOM     15  C   UNL     1      -1.124  -2.797  24.429  0.00  0.00    +0.003 A 
ATOM     16  C   UNL     1      -1.876  -2.518  24.234  0.00  0.00    +0.016 A 
ENDBRANCH  10  11
ENDBRANCH   9  10
ENDBRANCH   2   3
BRANCH   2  17
ATOM     17  C   UNL     1      -3.332   0.780  24.122  0.00  0.00    +0.010 A 
ATOM     18  C   UNL     1      -2.597   1.004  23.825  0.00  0.00    -0.000 A 
ATOM     19  C   UNL     1      -2.348   1.789  23.886  0.00  0.00    +0.016 A 
ATOM     20  C   UNL     1      -2.837   2.348  24.244  0.00  0.00    +0.074 A 
ATOM     31  C   UNL     1      -3.573   2.125  24.541  0.00  0.00    +0.016 A 
ATOM     32  C   UNL     1      -3.821   1.341  24.480  0.00  0.00    -0.000 A 
BRANCH  20  21
ATOM     21  N   UNL     1      -2.589   3.134  24.306  0.00  0.00    -0.175 NA
ATOM     22  C   UNL     1      -2.136   3.374  24.952  0.00  0.00    +0.269 C 
ATOM     23  O   UNL     1      -1.933   2.830  25.538  0.00  0.00    -0.268 OA
BRANCH  22  24
ATOM     24  C   UNL     1      -1.889   4.158  25.013  0.00  0.00    +0.059 A 
ATOM     25  C   UNL     1      -1.134   4.374  24.754  0.00  0.00    +0.035 A 
ATOM     26  C   UNL     1      -0.887   5.158  24.815  0.00  0.00    +0.138 A 
ATOM     27 CL   UNL     1      -0.133   5.374  24.557  0.00  0.00    -0.061 Cl
ATOM     28  N   UNL     1      -1.391   5.727  25.134  0.00  0.00    -0.232 NA
ATOM     29  C   UNL     1      -2.145   5.512  25.393  0.00  0.00    +0.100 A 
ATOM     30  C   UNL     1      -2.393   4.728  25.332  0.00  0.00    +0.025 A 
ENDBRANCH  22  24
ENDBRANCH  20  21
ENDBRANCH   2  17
TORSDOF 6
ENDMDL
