MODEL 1
REMARK VINA RESULT:      -9.1      0.000      0.000
REMARK  Name = 
REMARK  6 active torsions:
REMARK  status: ('A' for Active; 'I' for Inactive)
REMARK    1  A    between atoms: O_2  and  C_3
REMARK    2  A    between atoms: C_6  and  N_7
REMARK    3  A    between atoms: C_8  and  O_10
REMARK    4  A    between atoms: O_10  and  C_11
REMARK    5  A    between atoms: C_15  and  N_19
REMARK    6  A    between atoms: C_20  and  C_22
REMARK                            x       y       z     vdW  Elec       q    Type
REMARK                         _______ _______ _______ _____ _____    ______ ____
ROOT
ATOM     11  C   UNL     1      -0.407   0.507  24.731  0.00  0.00    +0.229 C 
ATOM     12  C   UNL     1      -0.343   0.811  23.967  0.00  0.00    +0.188 C 
ATOM     13  O   UNL     1      -0.378   1.633  24.017  0.00  0.00    -0.348 OA
ATOM     14  C   UNL     1      -0.464   1.838  24.810  0.00  0.00    +0.168 C 
ATOM     15  C   UNL     1      -0.539   2.472  25.333  0.00  0.00    +0.155 C 
ATOM     16  C   UNL     1      -0.604   2.168  26.097  0.00  0.00    +0.166 C 
ATOM     17  O   UNL     1      -0.569   1.346  26.047  0.00  0.00    -0.348 OA
ATOM     18  C   UNL     1      -0.482   1.141  25.252  0.00  0.00    +0.186 C 
ENDROOT
BRANCH  15  19
ATOM     19  N   UNL     1      -0.548   3.271  25.126  0.00  0.00    -0.196 NA
ATOM     20  C   UNL     1      -1.167   3.755  25.378  0.00  0.00    +0.300 C 
ATOM     21  O   UNL     1      -1.776   3.441  25.837  0.00  0.00    -0.265 OA
BRANCH  20  22
ATOM     22  C   UNL     1      -1.176   4.554  25.172  0.00  0.00    +0.200 A 
ATOM     23  C   UNL     1      -1.805   5.076  25.282  0.00  0.00    +0.046 A 
ATOM     24  C   UNL     1      -1.575   5.816  24.997  0.00  0.00    +0.044 A 
ATOM     25  C   UNL     1      -0.804   5.751  24.712  0.00  0.00    +0.180 A 
ATOM     26  O   UNL     1      -0.557   4.971  24.820  0.00  0.00    -0.446 OA
ENDBRANCH  20  22
ENDBRANCH  15  19
BRANCH  11  10
ATOM     10  O   UNL     1      -0.398  -0.292  24.937  0.00  0.00    -0.432 OA
BRANCH  10   8
ATOM      7  N   UNL     1      -1.481  -1.167  25.259  0.00  0.00    -0.142 NA
ATOM      8  C   UNL     1      -1.013  -0.788  24.697  0.00  0.00    +0.425 C 
ATOM      9  O   UNL     1      -1.158  -0.904  23.892  0.00  0.00    -0.224 OA
BRANCH   7   6
ATOM      3  C   UNL     1      -3.325  -2.653  24.538  0.00  0.00    +0.139 A 
ATOM      4  C   UNL     1      -3.494  -1.935  24.910  0.00  0.00    +0.038 A 
ATOM      5  C   UNL     1      -2.879  -1.441  25.150  0.00  0.00    +0.020 A 
ATOM      6  C   UNL     1      -2.096  -1.662  25.019  0.00  0.00    +0.077 A 
ATOM     27  C   UNL     1      -1.927  -2.379  24.647  0.00  0.00    +0.020 A 
ATOM     28  C   UNL     1      -2.542  -2.874  24.407  0.00  0.00    +0.038 A 
BRANCH   3   2
ATOM      1  C   UNL     1      -4.447  -2.910  23.691  0.00  0.00    +0.252 C 
ATOM      2  O   UNL     1      -3.940  -3.147  24.298  0.00  0.00    -0.471 OA
ENDBRANCH   3   2
ENDBRANCH   7   6
ENDBRANCH  10   8
ENDBRANCH  11  10
TORSDOF 6
ENDMDL
MODEL 2
REMARK VINA RESULT:      -8.8      2.119      2.453
REMARK  Name = 
REMARK  6 active torsions:
REMARK  status: ('A' for Active; 'I' for Inactive)
REMARK    1  A    between atoms: O_2  and  C_3
REMARK    2  A    between atoms: C_6  and  N_7
REMARK    3  A    between atoms: C_8  and  O_10
REMARK    4  A    between atoms: O_10  and  C_11
REMARK    5  A    between atoms: C_15  and  N_19
REMARK    6  A    between atoms: C_20  and  C_22
REMARK                            x       y       z     vdW  Elec       q    Type
REMARK                         _______ _______ _______ _____ _____    ______ ____
ROOT
ATOM     11  C   UNL     1      -3.997   1.633  24.192  0.00  0.00    +0.229 C 
ATOM     12  C   UNL     1      -3.539   1.756  23.517  0.00  0.00    +0.188 C 
ATOM     13  O   UNL     1      -3.128   2.464  23.613  0.00  0.00    -0.348 OA
ATOM     14  C   UNL     1      -3.331   2.779  24.348  0.00  0.00    +0.168 C 
ATOM     15  C   UNL     1      -3.203   3.411  24.862  0.00  0.00    +0.155 C 
ATOM     16  C   UNL     1      -3.660   3.288  25.537  0.00  0.00    +0.166 C 
ATOM     17  O   UNL     1      -4.071   2.580  25.441  0.00  0.00    -0.348 OA
ATOM     18  C   UNL     1      -3.868   2.265  24.705  0.00  0.00    +0.186 C 
ENDROOT
BRANCH  15  19
ATOM     19  N   UNL     1      -2.703   4.054  24.725  0.00  0.00    -0.196 NA
ATOM     20  C   UNL     1      -2.080   4.210  25.242  0.00  0.00    +0.300 C 
ATOM     21  O   UNL     1      -1.954   3.723  25.896  0.00  0.00    -0.265 OA
BRANCH  20  22
ATOM     22  C   UNL     1      -1.581   4.853  25.104  0.00  0.00    +0.200 A 
ATOM     23  C   UNL     1      -0.802   4.813  24.836  0.00  0.00    +0.046 A 
ATOM     24  C   UNL     1      -0.512   5.584  24.777  0.00  0.00    +0.044 A 
ATOM     25  C   UNL     1      -1.113   6.099  25.008  0.00  0.00    +0.180 A 
ATOM     26  O   UNL     1      -1.773   5.647  25.210  0.00  0.00    -0.446 OA
ENDBRANCH  20  22
ENDBRANCH  15  19
BRANCH  11  10
ATOM     10  O   UNL     1      -4.496   0.990  24.329  0.00  0.00    -0.432 OA
BRANCH  10   8
ATOM      7  N   UNL     1      -4.409  -0.359  24.791  0.00  0.00    -0.142 NA
ATOM      8  C   UNL     1      -4.212   0.221  24.239  0.00  0.00    +0.425 C 
ATOM      9  O   UNL     1      -3.731   0.032  23.595  0.00  0.00    -0.224 OA
BRANCH   7   6
ATOM      3  C   UNL     1      -3.559  -2.668  24.520  0.00  0.00    +0.139 A 
ATOM      4  C   UNL     1      -4.111  -2.366  23.986  0.00  0.00    +0.038 A 
ATOM      5  C   UNL     1      -4.394  -1.596  24.077  0.00  0.00    +0.020 A 
ATOM      6  C   UNL     1      -4.125  -1.129  24.701  0.00  0.00    +0.077 A 
ATOM     27  C   UNL     1      -3.574  -1.431  25.234  0.00  0.00    +0.020 A 
ATOM     28  C   UNL     1      -3.290  -2.200  25.144  0.00  0.00    +0.038 A 
BRANCH   3   2
ATOM      1  C   UNL     1      -2.565  -3.571  24.030  0.00  0.00    +0.252 C 
ATOM      2  O   UNL     1      -3.276  -3.437  24.429  0.00  0.00    -0.471 OA
ENDBRANCH   3   2
ENDBRANCH   7   6
ENDBRANCH  10   8
ENDBRANCH  11  10
TORSDOF 6
ENDMDL
MODEL 3
REMARK VINA RESULT:      -8.6      3.022      4.713
REMARK  Name = 
REMARK  6 active torsions:
REMARK  status: ('A' for Active; 'I' for Inactive)
REMARK    1  A    between atoms: O_2  and  C_3
REMARK    2  A    between atoms: C_6  and  N_7
REMARK    3  A    between atoms: C_8  and  O_10
REMARK    4  A    between atoms: O_10  and  C_11
REMARK    5  A    between atoms: C_15  and  N_19
REMARK    6  A    between atoms: C_20  and  C_22
REMARK                            x       y       z     vdW  Elec       q    Type
REMARK                         _______ _______ _______ _____ _____    ______ ____
ROOT
ATOM     11  C   UNL     1      -0.944   0.590  24.094  0.00  0.00    +0.229 C 
ATOM     12  C   UNL     1      -0.632   1.244  24.488  0.00  0.00    +0.188 C 
ATOM     13  O   UNL     1       0.175   1.280  24.321  0.00  0.00    -0.348 OA
ATOM     14  C   UNL     1       0.361   0.650  23.823  0.00  0.00    +0.168 C 
ATOM     15  C   UNL     1       0.975   0.282  23.412  0.00  0.00    +0.155 C 
ATOM     16  C   UNL     1       0.662  -0.371  23.017  0.00  0.00    +0.166 C 
ATOM     17  O   UNL     1      -0.144  -0.407  23.185  0.00  0.00    -0.348 OA
ATOM     18  C   UNL     1      -0.330   0.224  23.683  0.00  0.00    +0.186 C 
ENDROOT
BRANCH  15  19
ATOM     19  N   UNL     1       1.763   0.526  23.398  0.00  0.00    -0.196 NA
ATOM     20  C   UNL     1       2.269   0.252  22.807  0.00  0.00    +0.300 C 
ATOM     21  O   UNL     1       1.988  -0.266  22.230  0.00  0.00    -0.265 OA
BRANCH  20  22
ATOM     22  C   UNL     1       3.058   0.496  22.793  0.00  0.00    +0.200 A 
ATOM     23  C   UNL     1       3.718   0.006  22.860  0.00  0.00    +0.046 A 
ATOM     24  C   UNL     1       4.392   0.480  22.818  0.00  0.00    +0.044 A 
ATOM     25  C   UNL     1       4.148   1.262  22.724  0.00  0.00    +0.180 A 
ATOM     26  O   UNL     1       3.324   1.272  22.709  0.00  0.00    -0.446 OA
ENDBRANCH  20  22
ENDBRANCH  15  19
BRANCH  11  10
ATOM     10  O   UNL     1      -1.732   0.346  24.108  0.00  0.00    -0.432 OA
BRANCH  10   8
ATOM      7  N   UNL     1      -3.007   0.966  23.924  0.00  0.00    -0.142 NA
ATOM      8  C   UNL     1      -2.320   0.864  24.368  0.00  0.00    +0.425 C 
ATOM      9  O   UNL     1      -2.220   1.279  25.075  0.00  0.00    -0.224 OA
BRANCH   7   6
ATOM      3  C   UNL     1      -4.770   2.517  24.706  0.00  0.00    +0.139 A 
ATOM      4  C   UNL     1      -4.764   1.734  24.966  0.00  0.00    +0.038 A 
ATOM      5  C   UNL     1      -4.176   1.218  24.705  0.00  0.00    +0.020 A 
ATOM      6  C   UNL     1      -3.594   1.483  24.184  0.00  0.00    +0.077 A 
ATOM     27  C   UNL     1      -3.600   2.266  23.924  0.00  0.00    +0.020 A 
ATOM     28  C   UNL     1      -4.188   2.783  24.185  0.00  0.00    +0.038 A 
BRANCH   3   2
ATOM      1  C   UNL     1      -5.294   3.390  25.709  0.00  0.00    +0.252 C 
ATOM      2  O   UNL     1      -5.358   3.034  24.967  0.00  0.00    -0.471 OA
ENDBRANCH   3   2
ENDBRANCH   7   6
ENDBRANCH  10   8
ENDBRANCH  11  10
TORSDOF 6
ENDMDL
MODEL 4
REMARK VINA RESULT:      -8.4      0.909      5.840
REMARK  Name = 
REMARK  6 active torsions:
REMARK  status: ('A' for Active; 'I' for Inactive)
REMARK    1  A    between atoms: O_2  and  C_3
REMARK    2  A    between atoms: C_6  and  N_7
REMARK    3  A    between atoms: C_8  and  O_10
REMARK    4  A    between atoms: O_10  and  C_11
REMARK    5  A    between atoms: C_15  and  N_19
REMARK    6  A    between atoms: C_20  and  C_22
REMARK                            x       y       z     vdW  Elec       q    Type
REMARK                         _______ _______ _______ _____ _____    ______ ____
ROOT
ATOM     11  C   UNL     1      -0.490   0.808  24.754  0.00  0.00    +0.229 C 
ATOM     12  C   UNL     1      -0.543   0.621  23.953  0.00  0.00    +0.188 C 
ATOM     13  O   UNL     1      -1.019  -0.049  23.880  0.00  0.00    -0.348 OA
ATOM     14  C   UNL     1      -1.259  -0.275  24.635  0.00  0.00    +0.168 C 
ATOM     15  C   UNL     1      -1.702  -0.829  25.058  0.00  0.00    +0.155 C 
ATOM     16  C   UNL     1      -1.649  -0.641  25.859  0.00  0.00    +0.166 C 
ATOM     17  O   UNL     1      -1.173   0.029  25.932  0.00  0.00    -0.348 OA
ATOM     18  C   UNL     1      -0.932   0.255  25.176  0.00  0.00    +0.186 C 
ENDROOT
BRANCH  15  19
ATOM     19  N   UNL     1      -2.124  -1.460  24.735  0.00  0.00    -0.196 NA
ATOM     20  C   UNL     1      -2.926  -1.550  24.905  0.00  0.00    +0.300 C 
ATOM     21  O   UNL     1      -3.307  -1.010  25.399  0.00  0.00    -0.265 OA
BRANCH  20  22
ATOM     22  C   UNL     1      -3.348  -2.182  24.582  0.00  0.00    +0.200 A 
ATOM     23  C   UNL     1      -3.995  -2.123  24.074  0.00  0.00    +0.046 A 
ATOM     24  C   UNL     1      -4.244  -2.888  23.888  0.00  0.00    +0.044 A 
ATOM     25  C   UNL     1      -3.751  -3.418  24.282  0.00  0.00    +0.180 A 
ATOM     26  O   UNL     1      -3.197  -2.982  24.711  0.00  0.00    -0.446 OA
ENDBRANCH  20  22
ENDBRANCH  15  19
BRANCH  11  10
ATOM     10  O   UNL     1      -0.068   1.440  25.077  0.00  0.00    -0.432 OA
BRANCH  10   8
ATOM      7  N   UNL     1      -0.517   2.710  25.553  0.00  0.00    -0.142 NA
ATOM      8  C   UNL     1      -0.307   2.216  24.928  0.00  0.00    +0.425 C 
ATOM      9  O   UNL     1      -0.334   2.496  24.152  0.00  0.00    -0.224 OA
BRANCH   7   6
ATOM      3  C   UNL     1      -1.234   5.037  25.106  0.00  0.00    +0.139 A 
ATOM      4  C   UNL     1      -1.763   4.499  25.444  0.00  0.00    +0.038 A 
ATOM      5  C   UNL     1      -1.523   3.724  25.592  0.00  0.00    +0.020 A 
ATOM      6  C   UNL     1      -0.756   3.486  25.404  0.00  0.00    +0.077 A 
ATOM     27  C   UNL     1      -0.229   4.022  25.067  0.00  0.00    +0.020 A 
ATOM     28  C   UNL     1      -0.467   4.798  24.918  0.00  0.00    +0.038 A 
BRANCH   3   2
ATOM      1  C   UNL     1      -2.266   6.024  25.053  0.00  0.00    +0.252 C 
ATOM      2  O   UNL     1      -1.474   5.812  24.957  0.00  0.00    -0.471 OA
ENDBRANCH   3   2
ENDBRANCH   7   6
ENDBRANCH  10   8
ENDBRANCH  11  10
TORSDOF 6
ENDMDL
MODEL 5
REMARK VINA RESULT:      -8.3      2.170      6.408
REMARK  Name = 
REMARK  6 active torsions:
REMARK  status: ('A' for Active; 'I' for Inactive)
REMARK    1  A    between atoms: O_2  and  C_3
REMARK    2  A    between atoms: C_6  and  N_7
REMARK    3  A    between atoms: C_8  and  O_10
REMARK    4  A    between atoms: O_10  and  C_11
REMARK    5  A    between atoms: C_15  and  N_19
REMARK    6  A    between atoms: C_20  and  C_22
REMARK                            x       y       z     vdW  Elec       q    Type
REMARK                         _______ _______ _______ _____ _____    ______ ____
ROOT
ATOM     11  C   UNL     1      -4.047   1.951  24.392  0.00  0.00    +0.229 C 
ATOM     12  C   UNL     1      -3.701   1.745  23.673  0.00  0.00    +0.188 C 
ATOM     13  O   UNL     1      -3.716   0.922  23.609  0.00  0.00    -0.348 OA
ATOM     14  C   UNL     1      -4.072   0.620  24.289  0.00  0.00    +0.168 C 
ATOM     15  C   UNL     1      -4.302  -0.074  24.671  0.00  0.00    +0.155 C 
ATOM     16  C   UNL     1      -4.648   0.132  25.390  0.00  0.00    +0.166 C 
ATOM     17  O   UNL     1      -4.633   0.954  25.453  0.00  0.00    -0.348 OA
ATOM     18  C   UNL     1      -4.277   1.256  24.773  0.00  0.00    +0.186 C 
ENDROOT
BRANCH  15  19
ATOM     19  N   UNL     1      -4.202  -0.841  24.383  0.00  0.00    -0.196 NA
ATOM     20  C   UNL     1      -3.876  -1.424  24.866  0.00  0.00    +0.300 C 
ATOM     21  O   UNL     1      -3.649  -1.241  25.638  0.00  0.00    -0.265 OA
BRANCH  20  22
ATOM     22  C   UNL     1      -3.776  -2.191  24.578  0.00  0.00    +0.200 A 
ATOM     23  C   UNL     1      -3.244  -2.751  24.866  0.00  0.00    +0.046 A 
ATOM     24  C   UNL     1      -3.330  -3.439  24.417  0.00  0.00    +0.044 A 
ATOM     25  C   UNL     1      -3.916  -3.303  23.853  0.00  0.00    +0.180 A 
ATOM     26  O   UNL     1      -4.191  -2.532  23.953  0.00  0.00    -0.446 OA
ENDBRANCH  20  22
ENDBRANCH  15  19
BRANCH  11  10
ATOM     10  O   UNL     1      -4.147   2.718  24.680  0.00  0.00    -0.432 OA
BRANCH  10   8
ATOM      7  N   UNL     1      -3.058   3.415  25.287  0.00  0.00    -0.142 NA
ATOM      8  C   UNL     1      -3.529   3.262  24.628  0.00  0.00    +0.425 C 
ATOM      9  O   UNL     1      -3.383   3.652  23.916  0.00  0.00    -0.224 OA
BRANCH   7   6
ATOM      3  C   UNL     1      -1.203   5.047  25.131  0.00  0.00    +0.139 A 
ATOM      4  C   UNL     1      -1.044   4.238  25.097  0.00  0.00    +0.038 A 
ATOM      5  C   UNL     1      -1.663   3.694  25.149  0.00  0.00    +0.020 A 
ATOM      6  C   UNL     1      -2.439   3.960  25.235  0.00  0.00    +0.077 A 
ATOM     27  C   UNL     1      -2.597   4.768  25.268  0.00  0.00    +0.020 A 
ATOM     28  C   UNL     1      -1.979   5.312  25.217  0.00  0.00    +0.038 A 
BRANCH   3   2
ATOM      1  C   UNL     1      -0.134   5.638  24.388  0.00  0.00    +0.252 C 
ATOM      2  O   UNL     1      -0.584   5.590  25.079  0.00  0.00    -0.471 OA
ENDBRANCH   3   2
ENDBRANCH   7   6
ENDBRANCH  10   8
ENDBRANCH  11  10
TORSDOF 6
ENDMDL
MODEL 6
REMARK VINA RESULT:      -7.5      3.038      4.789
REMARK  Name = 
REMARK  6 active torsions:
REMARK  status: ('A' for Active; 'I' for Inactive)
REMARK    1  A    between atoms: O_2  and  C_3
REMARK    2  A    between atoms: C_6  and  N_7
REMARK    3  A    between atoms: C_8  and  O_10
REMARK    4  A    between atoms: O_10  and  C_11
REMARK    5  A    between atoms: C_15  and  N_19
REMARK    6  A    between atoms: C_20  and  C_22
REMARK                            x       y       z     vdW  Elec       q    Type
REMARK                         _______ _______ _______ _____ _____    ______ ____
ROOT
ATOM     11  C   UNL     1      -0.265   0.643  23.711  0.00  0.00    +0.229 C 
ATOM     12  C   UNL     1      -0.199   0.655  24.533  0.00  0.00    +0.188 C 
ATOM     13  O   UNL     1      -0.834   1.088  24.833  0.00  0.00    -0.348 OA
ATOM     14  C   UNL     1      -1.292   1.344  24.197  0.00  0.00    +0.168 C 
ATOM     15  C   UNL     1      -1.967   1.770  23.987  0.00  0.00    +0.155 C 
ATOM     16  C   UNL     1      -2.032   1.758  23.165  0.00  0.00    +0.166 C 
ATOM     17  O   UNL     1      -1.398   1.325  22.866  0.00  0.00    -0.348 OA
ATOM     18  C   UNL     1      -0.940   1.069  23.503  0.00  0.00    +0.186 C 
ENDROOT
BRANCH  15  19
ATOM     19  N   UNL     1      -2.486   2.142  24.510  0.00  0.00    -0.196 NA
ATOM     20  C   UNL     1      -3.219   2.408  24.243  0.00  0.00    +0.300 C 
ATOM     21  O   UNL     1      -3.435   2.302  23.454  0.00  0.00    -0.265 OA
BRANCH  20  22
ATOM     22  C   UNL     1      -3.738   2.781  24.766  0.00  0.00    +0.200 A 
ATOM     23  C   UNL     1      -4.517   2.556  24.918  0.00  0.00    +0.046 A 
ATOM     24  C   UNL     1      -4.829   3.080  25.474  0.00  0.00    +0.044 A 
ATOM     25  C   UNL     1      -4.244   3.628  25.665  0.00  0.00    +0.180 A 
ATOM     26  O   UNL     1      -3.569   3.443  25.227  0.00  0.00    -0.446 OA
ENDBRANCH  20  22
ENDBRANCH  15  19
BRANCH  11  10
ATOM     10  O   UNL     1       0.254   0.270  23.188  0.00  0.00    -0.432 OA
BRANCH  10   8
ATOM      7  N   UNL     1       1.586   0.018  22.737  0.00  0.00    -0.142 NA
ATOM      8  C   UNL     1       1.067   0.396  23.254  0.00  0.00    +0.425 C 
ATOM      9  O   UNL     1       1.360   0.902  23.837  0.00  0.00    -0.224 OA
BRANCH   7   6
ATOM      3  C   UNL     1       4.024   0.395  22.933  0.00  0.00    +0.139 A 
ATOM      4  C   UNL     1       3.702  -0.336  23.140  0.00  0.00    +0.038 A 
ATOM      5  C   UNL     1       2.889  -0.461  23.075  0.00  0.00    +0.020 A 
ATOM      6  C   UNL     1       2.399   0.144  22.802  0.00  0.00    +0.077 A 
ATOM     27  C   UNL     1       2.721   0.874  22.595  0.00  0.00    +0.020 A 
ATOM     28  C   UNL     1       3.534   1.000  22.660  0.00  0.00    +0.038 A 
BRANCH   3   2
ATOM      1  C   UNL     1       5.282   0.071  23.529  0.00  0.00    +0.252 C 
ATOM      2  O   UNL     1       4.837   0.520  22.998  0.00  0.00    -0.471 OA
ENDBRANCH   3   2
ENDBRANCH   7   6
ENDBRANCH  10   8
ENDBRANCH  11  10
TORSDOF 6
ENDMDL
MODEL 7
REMARK VINA RESULT:      -7.2      2.824      4.594
REMARK  Name = 
REMARK  6 active torsions:
REMARK  status: ('A' for Active; 'I' for Inactive)
REMARK    1  A    between atoms: O_2  and  C_3
REMARK    2  A    between atoms: C_6  and  N_7
REMARK    3  A    between atoms: C_8  and  O_10
REMARK    4  A    between atoms: O_10  and  C_11
REMARK    5  A    between atoms: C_15  and  N_19
REMARK    6  A    between atoms: C_20  and  C_22
REMARK                            x       y       z     vdW  Elec       q    Type
REMARK                         _______ _______ _______ _____ _____    ______ ____
ROOT
ATOM     11  C   UNL     1      -1.200   3.140  24.933  0.00  0.00    +0.229 C 
ATOM     12  C   UNL     1      -0.937   3.544  24.265  0.00  0.00    +0.188 C 
ATOM     13  O   UNL     1      -0.343   3.093  23.913  0.00  0.00    -0.348 OA
ATOM     14  C   UNL     1      -0.239   2.411  24.363  0.00  0.00    +0.168 C 
ATOM     15  C   UNL     1       0.192   1.710  24.426  0.00  0.00    +0.155 C 
ATOM     16  C   UNL     1      -0.072   1.306  25.094  0.00  0.00    +0.166 C 
ATOM     17  O   UNL     1      -0.666   1.757  25.446  0.00  0.00    -0.348 OA
ATOM     18  C   UNL     1      -0.769   2.440  24.995  0.00  0.00    +0.186 C 
ENDROOT
BRANCH  15  19
ATOM     19  N   UNL     1       0.784   1.458  23.909  0.00  0.00    -0.196 NA
ATOM     20  C   UNL     1       0.798   0.675  23.648  0.00  0.00    +0.300 C 
ATOM     21  O   UNL     1       0.221   0.144  23.905  0.00  0.00    -0.265 OA
BRANCH  20  22
ATOM     22  C   UNL     1       1.390   0.423  23.131  0.00  0.00    +0.200 A 
ATOM     23  C   UNL     1       1.289  -0.088  22.492  0.00  0.00    +0.046 A 
ATOM     24  C   UNL     1       2.023  -0.190  22.128  0.00  0.00    +0.044 A 
ATOM     25  C   UNL     1       2.576   0.259  22.543  0.00  0.00    +0.180 A 
ATOM     26  O   UNL     1       2.185   0.638  23.163  0.00  0.00    -0.446 OA
ENDBRANCH  20  22
ENDBRANCH  15  19
BRANCH  11  10
ATOM     10  O   UNL     1      -1.792   3.393  25.450  0.00  0.00    -0.432 OA
BRANCH  10   8
ATOM      7  N   UNL     1      -3.098   2.898  25.752  0.00  0.00    -0.142 NA
ATOM      8  C   UNL     1      -2.586   3.300  25.246  0.00  0.00    +0.425 C 
ATOM      9  O   UNL     1      -2.867   3.610  24.535  0.00  0.00    -0.224 OA
BRANCH   7   6
ATOM      3  C   UNL     1      -5.480   2.619  25.139  0.00  0.00    +0.139 A 
ATOM      4  C   UNL     1      -4.935   2.026  24.959  0.00  0.00    +0.038 A 
ATOM      5  C   UNL     1      -4.142   2.119  25.164  0.00  0.00    +0.020 A 
ATOM      6  C   UNL     1      -3.892   2.805  25.548  0.00  0.00    +0.077 A 
ATOM     27  C   UNL     1      -4.437   3.398  25.727  0.00  0.00    +0.020 A 
ATOM     28  C   UNL     1      -5.231   3.305  25.523  0.00  0.00    +0.038 A 
BRANCH   3   2
ATOM      1  C   UNL     1      -6.620   1.777  24.957  0.00  0.00    +0.252 C 
ATOM      2  O   UNL     1      -6.274   2.526  24.934  0.00  0.00    -0.471 OA
ENDBRANCH   3   2
ENDBRANCH   7   6
ENDBRANCH  10   8
ENDBRANCH  11  10
TORSDOF 6
ENDMDL
MODEL 8
REMARK VINA RESULT:      -6.6     13.982     16.601
REMARK  Name = 
REMARK  6 active torsions:
REMARK  status: ('A' for Active; 'I' for Inactive)
REMARK    1  A    between atoms: O_2  and  C_3
REMARK    2  A    between atoms: C_6  and  N_7
REMARK    3  A    between atoms: C_8  and  O_10
REMARK    4  A    between atoms: O_10  and  C_11
REMARK    5  A    between atoms: C_15  and  N_19
REMARK    6  A    between atoms: C_20  and  C_22
REMARK                            x       y       z     vdW  Elec       q    Type
REMARK                         _______ _______ _______ _____ _____    ______ ____
ROOT
ATOM     11  C   UNL     1      -4.154 -10.687  13.848  0.00  0.00    +0.229 C 
ATOM     12  C   UNL     1      -4.971 -10.606  13.768  0.00  0.00    +0.188 C 
ATOM     13  O   UNL     1      -5.297 -10.557  14.525  0.00  0.00    -0.348 OA
ATOM     14  C   UNL     1      -4.683 -10.608  15.071  0.00  0.00    +0.168 C 
ATOM     15  C   UNL     1      -4.503 -10.610  15.877  0.00  0.00    +0.155 C 
ATOM     16  C   UNL     1      -3.686 -10.691  15.957  0.00  0.00    +0.166 C 
ATOM     17  O   UNL     1      -3.360 -10.740  15.201  0.00  0.00    -0.348 OA
ATOM     18  C   UNL     1      -3.976 -10.689  14.653  0.00  0.00    +0.186 C 
ENDROOT
BRANCH  15  19
ATOM     19  N   UNL     1      -5.046 -10.542  16.494  0.00  0.00    -0.196 NA
ATOM     20  C   UNL     1      -4.790 -10.594  17.277  0.00  0.00    +0.300 C 
ATOM     21  O   UNL     1      -3.991 -10.713  17.442  0.00  0.00    -0.265 OA
BRANCH  20  22
ATOM     22  C   UNL     1      -5.333 -10.526  17.894  0.00  0.00    +0.200 A 
ATOM     23  C   UNL     1      -6.140 -10.376  17.815  0.00  0.00    +0.046 A 
ATOM     24  C   UNL     1      -6.471 -10.353  18.572  0.00  0.00    +0.044 A 
ATOM     25  C   UNL     1      -5.868 -10.490  19.117  0.00  0.00    +0.180 A 
ATOM     26  O   UNL     1      -5.165 -10.597  18.698  0.00  0.00    -0.446 OA
ENDBRANCH  20  22
ENDBRANCH  15  19
BRANCH  11  10
ATOM     10  O   UNL     1      -3.611 -10.755  13.231  0.00  0.00    -0.432 OA
BRANCH  10   8
ATOM      7  N   UNL     1      -3.244 -10.501  11.873  0.00  0.00    -0.142 NA
ATOM      8  C   UNL     1      -3.798 -10.461  12.483  0.00  0.00    +0.425 C 
ATOM      9  O   UNL     1      -4.540 -10.127  12.345  0.00  0.00    -0.224 OA
BRANCH   7   6
ATOM      3  C   UNL     1      -3.803  -9.620   9.629  0.00  0.00    +0.139 A 
ATOM      4  C   UNL     1      -4.099 -10.352   9.871  0.00  0.00    +0.038 A 
ATOM      5  C   UNL     1      -3.912 -10.645  10.619  0.00  0.00    +0.020 A 
ATOM      6  C   UNL     1      -3.430 -10.207  11.125  0.00  0.00    +0.077 A 
ATOM     27  C   UNL     1      -3.135  -9.477  10.884  0.00  0.00    +0.020 A 
ATOM     28  C   UNL     1      -3.321  -9.183  10.135  0.00  0.00    +0.038 A 
BRANCH   3   2
ATOM      1  C   UNL     1      -4.648  -9.619   8.477  0.00  0.00    +0.252 C 
ATOM      2  O   UNL     1      -3.990  -9.327   8.881  0.00  0.00    -0.471 OA
ENDBRANCH   3   2
ENDBRANCH   7   6
ENDBRANCH  10   8
ENDBRANCH  11  10
TORSDOF 6
ENDMDL
