MODEL 1
REMARK VINA RESULT:      -8.5      0.000      0.000
REMARK  Name = 
REMARK  6 active torsions:
REMARK  status: ('A' for Active; 'I' for Inactive)
REMARK    1  A    between atoms: C_3  and  C_4
REMARK    2  A    between atoms: C_4  and  N_5
REMARK    3  A    between atoms: C_6  and  C_8
REMARK    4  A    between atoms: C_15  and  N_16
REMARK    5  A    between atoms: N_16  and  C_17
REMARK    6  A    between atoms: C_17  and  C_18
REMARK                            x       y       z     vdW  Elec       q    Type
REMARK                         _______ _______ _______ _____ _____    ______ ____
ROOT
ATOM      1  O   UNL     1      -1.154   0.271  25.003  0.00  0.00    -0.219 OA
ATOM      2  C   UNL     1      -1.877   0.667  24.967  0.00  0.00    +0.199 C 
ATOM      3  C   UNL     1      -1.994   1.475  25.078  0.00  0.00    +0.169 C 
ATOM     13  O   UNL     1      -2.799   1.631  24.993  0.00  0.00    -0.350 OA
ATOM     14  C   UNL     1      -3.180   0.919  24.828  0.00  0.00    +0.162 C 
ATOM     15  C   UNL     1      -2.611   0.322  24.812  0.00  0.00    +0.135 C 
ENDROOT
BRANCH   3   4
ATOM      4  C   UNL     1      -1.407   2.031  25.246  0.00  0.00    +0.148 C 
BRANCH   4   5
ATOM      5  N   UNL     1      -1.540   2.831  25.092  0.00  0.00    -0.199 NA
ATOM      6  C   UNL     1      -0.998   3.396  25.351  0.00  0.00    +0.271 C 
ATOM      7  O   UNL     1      -0.323   3.162  25.764  0.00  0.00    -0.268 OA
BRANCH   6   8
ATOM      8  C   UNL     1      -1.131   4.196  25.197  0.00  0.00    +0.084 A 
ATOM      9  C   UNL     1      -1.776   4.639  25.457  0.00  0.00    +0.012 A 
ATOM     10  C   UNL     1      -1.685   5.409  25.177  0.00  0.00    +0.008 A 
ATOM     11  C   UNL     1      -0.984   5.443  24.744  0.00  0.00    +0.036 A 
ATOM     12  S   UNL     1      -0.641   4.693  24.756  0.00  0.00    -0.082 S 
ENDBRANCH   6   8
ENDBRANCH   4   5
ENDBRANCH   3   4
BRANCH  15  16
ATOM     16  N   UNL     1      -2.750  -0.477  24.666  0.00  0.00    -0.209 NA
BRANCH  16  17
ATOM     17  C   UNL     1      -3.509  -0.787  24.761  0.00  0.00    +0.115 C 
BRANCH  17  18
ATOM     18  C   UNL     1      -3.663  -1.571  24.554  0.00  0.00    -0.002 A 
ATOM     19  C   UNL     1      -4.134  -1.740  23.898  0.00  0.00    +0.018 A 
ATOM     20  C   UNL     1      -4.288  -2.523  23.690  0.00  0.00    +0.099 A 
ATOM     21  N   UNL     1      -3.971  -3.138  24.139  0.00  0.00    -0.242 NA
ATOM     22  C   UNL     1      -3.500  -2.970  24.796  0.00  0.00    +0.099 A 
ATOM     23  C   UNL     1      -3.346  -2.186  25.003  0.00  0.00    +0.018 A 
ENDBRANCH  17  18
ENDBRANCH  16  17
ENDBRANCH  15  16
TORSDOF 6
ENDMDL
MODEL 2
REMARK VINA RESULT:      -8.3      1.977      5.953
REMARK  Name = 
REMARK  6 active torsions:
REMARK  status: ('A' for Active; 'I' for Inactive)
REMARK    1  A    between atoms: C_3  and  C_4
REMARK    2  A    between atoms: C_4  and  N_5
REMARK    3  A    between atoms: C_6  and  C_8
REMARK    4  A    between atoms: C_15  and  N_16
REMARK    5  A    between atoms: N_16  and  C_17
REMARK    6  A    between atoms: C_17  and  C_18
REMARK                            x       y       z     vdW  Elec       q    Type
REMARK                         _______ _______ _______ _____ _____    ______ ____
ROOT
ATOM      1  O   UNL     1      -3.747   2.093  24.039  0.00  0.00    -0.219 OA
ATOM      2  C   UNL     1      -3.137   1.726  24.456  0.00  0.00    +0.199 C 
ATOM      3  C   UNL     1      -3.086   0.922  24.633  0.00  0.00    +0.169 C 
ATOM     13  O   UNL     1      -2.389   0.799  25.056  0.00  0.00    -0.350 OA
ATOM     14  C   UNL     1      -2.009   1.526  25.140  0.00  0.00    +0.162 C 
ATOM     15  C   UNL     1      -2.471   2.099  24.769  0.00  0.00    +0.135 C 
ENDROOT
BRANCH   3   4
ATOM      4  C   UNL     1      -3.636   0.344  24.425  0.00  0.00    +0.148 C 
BRANCH   4   5
ATOM      5  N   UNL     1      -3.446  -0.455  24.505  0.00  0.00    -0.199 NA
ATOM      6  C   UNL     1      -4.017  -1.032  24.359  0.00  0.00    +0.271 C 
ATOM      7  O   UNL     1      -4.779  -0.811  24.133  0.00  0.00    -0.268 OA
BRANCH   6   8
ATOM      8  C   UNL     1      -3.826  -1.831  24.440  0.00  0.00    +0.084 A 
ATOM      9  C   UNL     1      -3.472  -2.181  25.098  0.00  0.00    +0.012 A 
ATOM     10  C   UNL     1      -3.384  -2.986  24.941  0.00  0.00    +0.008 A 
ATOM     11  C   UNL     1      -3.683  -3.133  24.187  0.00  0.00    +0.036 A 
ATOM     12  S   UNL     1      -3.956  -2.420  23.877  0.00  0.00    -0.082 S 
ENDBRANCH   6   8
ENDBRANCH   4   5
ENDBRANCH   3   4
BRANCH  15  16
ATOM     16  N   UNL     1      -2.298   2.904  24.720  0.00  0.00    -0.209 NA
BRANCH  16  17
ATOM     17  C   UNL     1      -1.745   3.239  25.232  0.00  0.00    +0.115 C 
BRANCH  17  18
ATOM     18  C   UNL     1      -1.523   4.029  25.141  0.00  0.00    -0.002 A 
ATOM     19  C   UNL     1      -2.036   4.631  25.375  0.00  0.00    +0.018 A 
ATOM     20  C   UNL     1      -1.815   5.421  25.283  0.00  0.00    +0.099 A 
ATOM     21  N   UNL     1      -1.080   5.607  24.958  0.00  0.00    -0.242 NA
ATOM     22  C   UNL     1      -0.567   5.005  24.724  0.00  0.00    +0.099 A 
ATOM     23  C   UNL     1      -0.789   4.215  24.815  0.00  0.00    +0.018 A 
ENDBRANCH  17  18
ENDBRANCH  16  17
ENDBRANCH  15  16
TORSDOF 6
ENDMDL
MODEL 3
REMARK VINA RESULT:      -7.2      2.985      4.452
REMARK  Name = 
REMARK  6 active torsions:
REMARK  status: ('A' for Active; 'I' for Inactive)
REMARK    1  A    between atoms: C_3  and  C_4
REMARK    2  A    between atoms: C_4  and  N_5
REMARK    3  A    between atoms: C_6  and  C_8
REMARK    4  A    between atoms: C_15  and  N_16
REMARK    5  A    between atoms: N_16  and  C_17
REMARK    6  A    between atoms: C_17  and  C_18
REMARK                            x       y       z     vdW  Elec       q    Type
REMARK                         _______ _______ _______ _____ _____    ______ ____
ROOT
ATOM      1  O   UNL     1      -2.078   0.415  25.280  0.00  0.00    -0.219 OA
ATOM      2  C   UNL     1      -1.978   0.893  24.615  0.00  0.00    +0.199 C 
ATOM      3  C   UNL     1      -1.364   0.840  24.067  0.00  0.00    +0.169 C 
ATOM     13  O   UNL     1      -1.481   1.423  23.495  0.00  0.00    -0.350 OA
ATOM     14  C   UNL     1      -2.168   1.836  23.690  0.00  0.00    +0.162 C 
ATOM     15  C   UNL     1      -2.475   1.509  24.381  0.00  0.00    +0.135 C 
ENDROOT
BRANCH   3   4
ATOM      4  C   UNL     1      -0.741   0.299  24.088  0.00  0.00    +0.148 C 
BRANCH   4   5
ATOM      5  N   UNL     1      -0.100   0.387  23.575  0.00  0.00    -0.199 NA
ATOM      6  C   UNL     1       0.473  -0.204  23.526  0.00  0.00    +0.271 C 
ATOM      7  O   UNL     1       0.405  -0.884  23.988  0.00  0.00    -0.268 OA
BRANCH   6   8
ATOM      8  C   UNL     1       1.114  -0.116  23.013  0.00  0.00    +0.084 A 
ATOM      9  C   UNL     1       1.145  -0.365  22.228  0.00  0.00    +0.012 A 
ATOM     10  C   UNL     1       1.886  -0.166  21.926  0.00  0.00    +0.008 A 
ATOM     11  C   UNL     1       2.313   0.207  22.525  0.00  0.00    +0.036 A 
ATOM     12  S   UNL     1       1.836   0.239  23.197  0.00  0.00    -0.082 S 
ENDBRANCH   6   8
ENDBRANCH   4   5
ENDBRANCH   3   4
BRANCH  15  16
ATOM     16  N   UNL     1      -3.159   1.754  24.772  0.00  0.00    -0.209 NA
BRANCH  16  17
ATOM     17  C   UNL     1      -3.709   2.229  24.381  0.00  0.00    +0.115 C 
BRANCH  17  18
ATOM     18  C   UNL     1      -4.396   2.470  24.769  0.00  0.00    -0.002 A 
ATOM     19  C   UNL     1      -4.412   3.191  25.170  0.00  0.00    +0.018 A 
ATOM     20  C   UNL     1      -5.099   3.433  25.558  0.00  0.00    +0.099 A 
ATOM     21  N   UNL     1      -5.769   2.953  25.546  0.00  0.00    -0.242 NA
ATOM     22  C   UNL     1      -5.754   2.232  25.146  0.00  0.00    +0.099 A 
ATOM     23  C   UNL     1      -5.067   1.990  24.757  0.00  0.00    +0.018 A 
ENDBRANCH  17  18
ENDBRANCH  16  17
ENDBRANCH  15  16
TORSDOF 6
ENDMDL
MODEL 4
REMARK VINA RESULT:      -6.6      3.018      4.337
REMARK  Name = 
REMARK  6 active torsions:
REMARK  status: ('A' for Active; 'I' for Inactive)
REMARK    1  A    between atoms: C_3  and  C_4
REMARK    2  A    between atoms: C_4  and  N_5
REMARK    3  A    between atoms: C_6  and  C_8
REMARK    4  A    between atoms: C_15  and  N_16
REMARK    5  A    between atoms: N_16  and  C_17
REMARK    6  A    between atoms: C_17  and  C_18
REMARK                            x       y       z     vdW  Elec       q    Type
REMARK                         _______ _______ _______ _____ _____    ______ ____
ROOT
ATOM      1  O   UNL     1      -1.402   2.637  23.502  0.00  0.00    -0.219 OA
ATOM      2  C   UNL     1      -1.509   2.021  24.040  0.00  0.00    +0.199 C 
ATOM      3  C   UNL     1      -2.117   1.962  24.595  0.00  0.00    +0.169 C 
ATOM     13  O   UNL     1      -2.010   1.261  25.015  0.00  0.00    -0.350 OA
ATOM     14  C   UNL     1      -1.337   0.886  24.721  0.00  0.00    +0.162 C 
ATOM     15  C   UNL     1      -1.027   1.356  24.118  0.00  0.00    +0.135 C 
ENDROOT
BRANCH   3   4
ATOM      4  C   UNL     1      -2.724   2.509  24.708  0.00  0.00    +0.148 C 
BRANCH   4   5
ATOM      5  N   UNL     1      -3.485   2.247  24.891  0.00  0.00    -0.199 NA
ATOM      6  C   UNL     1      -4.100   2.792  24.972  0.00  0.00    +0.271 C 
ATOM      7  O   UNL     1      -3.953   3.597  24.870  0.00  0.00    -0.268 OA
BRANCH   6   8
ATOM      8  C   UNL     1      -4.861   2.531  25.155  0.00  0.00    +0.084 A 
ATOM      9  C   UNL     1      -5.290   1.958  24.743  0.00  0.00    +0.012 A 
ATOM     10  C   UNL     1      -6.020   1.870  25.115  0.00  0.00    +0.008 A 
ATOM     11  C   UNL     1      -6.043   2.388  25.757  0.00  0.00    +0.036 A 
ATOM     12  S   UNL     1      -5.328   2.796  25.782  0.00  0.00    -0.082 S 
ENDBRANCH   6   8
ENDBRANCH   4   5
ENDBRANCH   3   4
BRANCH  15  16
ATOM     16  N   UNL     1      -0.353   1.190  23.672  0.00  0.00    -0.209 NA
BRANCH  16  17
ATOM     17  C   UNL     1       0.129   0.552  23.875  0.00  0.00    +0.115 C 
BRANCH  17  18
ATOM     18  C   UNL     1       0.791   0.374  23.416  0.00  0.00    -0.002 A 
ATOM     19  C   UNL     1       1.497   0.784  23.535  0.00  0.00    +0.018 A 
ATOM     20  C   UNL     1       2.160   0.605  23.076  0.00  0.00    +0.099 A 
ATOM     21  N   UNL     1       2.116   0.017  22.500  0.00  0.00    -0.242 NA
ATOM     22  C   UNL     1       1.410  -0.393  22.381  0.00  0.00    +0.099 A 
ATOM     23  C   UNL     1       0.747  -0.215  22.840  0.00  0.00    +0.018 A 
ENDBRANCH  17  18
ENDBRANCH  16  17
ENDBRANCH  15  16
TORSDOF 6
ENDMDL
MODEL 5
REMARK VINA RESULT:      -6.5     17.593     19.231
REMARK  Name = 
REMARK  6 active torsions:
REMARK  status: ('A' for Active; 'I' for Inactive)
REMARK    1  A    between atoms: C_3  and  C_4
REMARK    2  A    between atoms: C_4  and  N_5
REMARK    3  A    between atoms: C_6  and  C_8
REMARK    4  A    between atoms: C_15  and  N_16
REMARK    5  A    between atoms: N_16  and  C_17
REMARK    6  A    between atoms: C_17  and  C_18
REMARK                            x       y       z     vdW  Elec       q    Type
REMARK                         _______ _______ _______ _____ _____    ______ ____
ROOT
ATOM      1  O   UNL     1      14.128   7.010  17.136  0.00  0.00    -0.219 OA
ATOM      2  C   UNL     1      14.047   7.570  17.736  0.00  0.00    +0.199 C 
ATOM      3  C   UNL     1      14.488   7.602  18.432  0.00  0.00    +0.169 C 
ATOM     13  O   UNL     1      14.224   8.248  18.871  0.00  0.00    -0.350 OA
ATOM     14  C   UNL     1      13.620   8.616  18.446  0.00  0.00    +0.162 C 
ATOM     15  C   UNL     1      13.511   8.197  17.745  0.00  0.00    +0.135 C 
ENDROOT
BRANCH   3   4
ATOM      4  C   UNL     1      15.088   7.079  18.651  0.00  0.00    +0.148 C 
BRANCH   4   5
ATOM      5  N   UNL     1      15.519   7.211  19.342  0.00  0.00    -0.199 NA
ATOM      6  C   UNL     1      16.070   6.652  19.598  0.00  0.00    +0.271 C 
ATOM      7  O   UNL     1      16.188   5.961  19.164  0.00  0.00    -0.268 OA
BRANCH   6   8
ATOM      8  C   UNL     1      16.501   6.785  20.288  0.00  0.00    +0.084 A 
ATOM      9  C   UNL     1      16.368   6.429  21.020  0.00  0.00    +0.012 A 
ATOM     10  C   UNL     1      16.926   6.721  21.552  0.00  0.00    +0.008 A 
ATOM     11  C   UNL     1      17.405   7.259  21.149  0.00  0.00    +0.036 A 
ATOM     12  S   UNL     1      17.143   7.298  20.369  0.00  0.00    -0.082 S 
ENDBRANCH   6   8
ENDBRANCH   4   5
ENDBRANCH   3   4
BRANCH  15  16
ATOM     16  N   UNL     1      12.962   8.373  17.155  0.00  0.00    -0.209 NA
BRANCH  16  17
ATOM     17  C   UNL     1      12.261   8.764  17.348  0.00  0.00    +0.115 C 
BRANCH  17  18
ATOM     18  C   UNL     1      11.633   8.773  16.812  0.00  0.00    -0.002 A 
ATOM     19  C   UNL     1      10.896   8.478  17.035  0.00  0.00    +0.018 A 
ATOM     20  C   UNL     1      10.268   8.488  16.500  0.00  0.00    +0.099 A 
ATOM     21  N   UNL     1      10.379   8.793  15.741  0.00  0.00    -0.242 NA
ATOM     22  C   UNL     1      11.116   9.088  15.518  0.00  0.00    +0.099 A 
ATOM     23  C   UNL     1      11.744   9.079  16.054  0.00  0.00    +0.018 A 
ENDBRANCH  17  18
ENDBRANCH  16  17
ENDBRANCH  15  16
TORSDOF 6
ENDMDL
MODEL 6
REMARK VINA RESULT:      -5.8     14.246     14.965
REMARK  Name = 
REMARK  6 active torsions:
REMARK  status: ('A' for Active; 'I' for Inactive)
REMARK    1  A    between atoms: C_3  and  C_4
REMARK    2  A    between atoms: C_4  and  N_5
REMARK    3  A    between atoms: C_6  and  C_8
REMARK    4  A    between atoms: C_15  and  N_16
REMARK    5  A    between atoms: N_16  and  C_17
REMARK    6  A    between atoms: C_17  and  C_18
REMARK                            x       y       z     vdW  Elec       q    Type
REMARK                         _______ _______ _______ _____ _____    ______ ____
ROOT
ATOM      1  O   UNL     1      -5.011 -10.274  17.748  0.00  0.00    -0.219 OA
ATOM      2  C   UNL     1      -5.265 -10.218  16.965  0.00  0.00    +0.199 C 
ATOM      3  C   UNL     1      -6.040 -10.090  16.715  0.00  0.00    +0.169 C 
ATOM     13  O   UNL     1      -6.042 -10.073  15.890  0.00  0.00    -0.350 OA
ATOM     14  C   UNL     1      -5.268 -10.191  15.631  0.00  0.00    +0.162 C 
ATOM     15  C   UNL     1      -4.787 -10.280  16.295  0.00  0.00    +0.135 C 
ENDROOT
BRANCH   3   4
ATOM      4  C   UNL     1      -6.698  -9.996  17.204  0.00  0.00    +0.148 C 
BRANCH   4   5
ATOM      5  N   UNL     1      -7.365  -9.597  16.926  0.00  0.00    -0.199 NA
ATOM      6  C   UNL     1      -8.049  -9.565  17.386  0.00  0.00    +0.271 C 
ATOM      7  O   UNL     1      -8.066  -9.933  18.124  0.00  0.00    -0.268 OA
BRANCH   6   8
ATOM      8  C   UNL     1      -8.715  -9.166  17.109  0.00  0.00    +0.084 A 
ATOM      9  C   UNL     1      -8.833  -8.350  17.124  0.00  0.00    +0.012 A 
ATOM     10  C   UNL     1      -9.571  -8.193  16.792  0.00  0.00    +0.008 A 
ATOM     11  C   UNL     1      -9.910  -8.912  16.571  0.00  0.00    +0.036 A 
ATOM     12  S   UNL     1      -9.381  -9.513  16.766  0.00  0.00    -0.082 S 
ENDBRANCH   6   8
ENDBRANCH   4   5
ENDBRANCH   3   4
BRANCH  15  16
ATOM     16  N   UNL     1      -3.973 -10.409  16.290  0.00  0.00    -0.209 NA
BRANCH  16  17
ATOM     17  C   UNL     1      -3.601 -10.670  15.601  0.00  0.00    +0.115 C 
BRANCH  17  18
ATOM     18  C   UNL     1      -2.777 -10.657  15.547  0.00  0.00    -0.002 A 
ATOM     19  C   UNL     1      -2.415 -10.528  14.817  0.00  0.00    +0.018 A 
ATOM     20  C   UNL     1      -1.591 -10.514  14.763  0.00  0.00    +0.099 A 
ATOM     21  N   UNL     1      -1.131 -10.630  15.438  0.00  0.00    -0.242 NA
ATOM     22  C   UNL     1      -1.494 -10.759  16.167  0.00  0.00    +0.099 A 
ATOM     23  C   UNL     1      -2.318 -10.772  16.222  0.00  0.00    +0.018 A 
ENDBRANCH  17  18
ENDBRANCH  16  17
ENDBRANCH  15  16
TORSDOF 6
ENDMDL
MODEL 7
REMARK VINA RESULT:      -5.6     14.845     16.711
REMARK  Name = 
REMARK  6 active torsions:
REMARK  status: ('A' for Active; 'I' for Inactive)
REMARK    1  A    between atoms: C_3  and  C_4
REMARK    2  A    between atoms: C_4  and  N_5
REMARK    3  A    between atoms: C_6  and  C_8
REMARK    4  A    between atoms: C_15  and  N_16
REMARK    5  A    between atoms: N_16  and  C_17
REMARK    6  A    between atoms: C_17  and  C_18
REMARK                            x       y       z     vdW  Elec       q    Type
REMARK                         _______ _______ _______ _____ _____    ______ ____
ROOT
ATOM      1  O   UNL     1      -2.942 -10.659  14.043  0.00  0.00    -0.219 OA
ATOM      2  C   UNL     1      -3.727 -10.562  13.808  0.00  0.00    +0.199 C 
ATOM      3  C   UNL     1      -3.994 -10.468  13.034  0.00  0.00    +0.169 C 
ATOM     13  O   UNL     1      -4.815 -10.390  13.054  0.00  0.00    -0.350 OA
ATOM     14  C   UNL     1      -5.056 -10.436  13.842  0.00  0.00    +0.162 C 
ATOM     15  C   UNL     1      -4.384 -10.542  14.308  0.00  0.00    +0.135 C 
ENDROOT
BRANCH   3   4
ATOM      4  C   UNL     1      -3.522 -10.455  12.357  0.00  0.00    +0.148 C 
BRANCH   4   5
ATOM      5  N   UNL     1      -3.825 -10.158  11.649  0.00  0.00    -0.199 NA
ATOM      6  C   UNL     1      -3.350 -10.137  10.974  0.00  0.00    +0.271 C 
ATOM      7  O   UNL     1      -2.573 -10.412  11.008  0.00  0.00    -0.268 OA
BRANCH   6   8
ATOM      8  C   UNL     1      -3.653  -9.840  10.266  0.00  0.00    +0.084 A 
ATOM      9  C   UNL     1      -3.586  -9.063   9.997  0.00  0.00    +0.012 A 
ATOM     10  C   UNL     1      -3.967  -9.012   9.268  0.00  0.00    +0.008 A 
ATOM     11  C   UNL     1      -4.270  -9.757   9.086  0.00  0.00    +0.036 A 
ATOM     12  S   UNL     1      -4.076 -10.269   9.702  0.00  0.00    -0.082 S 
ENDBRANCH   6   8
ENDBRANCH   4   5
ENDBRANCH   3   4
BRANCH  15  16
ATOM     16  N   UNL     1      -4.370 -10.615  15.129  0.00  0.00    -0.209 NA
BRANCH  16  17
ATOM     17  C   UNL     1      -5.034 -10.408  15.573  0.00  0.00    +0.115 C 
BRANCH  17  18
ATOM     18  C   UNL     1      -5.028 -10.500  16.393  0.00  0.00    -0.002 A 
ATOM     19  C   UNL     1      -5.724 -10.401  16.825  0.00  0.00    +0.018 A 
ATOM     20  C   UNL     1      -5.717 -10.493  17.645  0.00  0.00    +0.099 A 
ATOM     21  N   UNL     1      -5.014 -10.683  18.033  0.00  0.00    -0.242 NA
ATOM     22  C   UNL     1      -4.318 -10.781  17.601  0.00  0.00    +0.099 A 
ATOM     23  C   UNL     1      -4.325 -10.690  16.781  0.00  0.00    +0.018 A 
ENDBRANCH  17  18
ENDBRANCH  16  17
ENDBRANCH  15  16
TORSDOF 6
ENDMDL
MODEL 8
REMARK VINA RESULT:      -5.5     14.294     14.850
REMARK  Name = 
REMARK  6 active torsions:
REMARK  status: ('A' for Active; 'I' for Inactive)
REMARK    1  A    between atoms: C_3  and  C_4
REMARK    2  A    between atoms: C_4  and  N_5
REMARK    3  A    between atoms: C_6  and  C_8
REMARK    4  A    between atoms: C_15  and  N_16
REMARK    5  A    between atoms: N_16  and  C_17
REMARK    6  A    between atoms: C_17  and  C_18
REMARK                            x       y       z     vdW  Elec       q    Type
REMARK                         _______ _______ _______ _____ _____    ______ ____
ROOT
ATOM      1  O   UNL     1      -5.739 -10.297  17.784  0.00  0.00    -0.219 OA
ATOM      2  C   UNL     1      -5.737 -10.152  16.972  0.00  0.00    +0.199 C 
ATOM      3  C   UNL     1      -5.086 -10.212  16.470  0.00  0.00    +0.169 C 
ATOM     13  O   UNL     1      -5.332 -10.018  15.707  0.00  0.00    -0.350 OA
ATOM     14  C   UNL     1      -6.137  -9.838  15.738  0.00  0.00    +0.162 C 
ATOM     15  C   UNL     1      -6.387  -9.920  16.519  0.00  0.00    +0.135 C 
ENDROOT
BRANCH   3   4
ATOM      4  C   UNL     1      -4.321 -10.429  16.692  0.00  0.00    +0.148 C 
BRANCH   4   5
ATOM      5  N   UNL     1      -3.713 -10.426  16.134  0.00  0.00    -0.199 NA
ATOM      6  C   UNL     1      -2.940 -10.603  16.365  0.00  0.00    +0.271 C 
ATOM      7  O   UNL     1      -2.776 -10.781  17.154  0.00  0.00    -0.268 OA
BRANCH   6   8
ATOM      8  C   UNL     1      -2.332 -10.600  15.807  0.00  0.00    +0.084 A 
ATOM      9  C   UNL     1      -2.417 -10.466  14.998  0.00  0.00    +0.012 A 
ATOM     10  C   UNL     1      -1.671 -10.514  14.652  0.00  0.00    +0.008 A 
ATOM     11  C   UNL     1      -1.123 -10.677  15.247  0.00  0.00    +0.036 A 
ATOM     12  S   UNL     1      -1.532 -10.730  15.961  0.00  0.00    -0.082 S 
ENDBRANCH   6   8
ENDBRANCH   4   5
ENDBRANCH   3   4
BRANCH  15  16
ATOM     16  N   UNL     1      -7.152  -9.793  16.799  0.00  0.00    -0.209 NA
BRANCH  16  17
ATOM     17  C   UNL     1      -7.681  -9.335  16.361  0.00  0.00    +0.115 C 
BRANCH  17  18
ATOM     18  C   UNL     1      -8.453  -9.225  16.631  0.00  0.00    -0.002 A 
ATOM     19  C   UNL     1      -9.067  -9.678  16.318  0.00  0.00    +0.018 A 
ATOM     20  C   UNL     1      -9.840  -9.568  16.588  0.00  0.00    +0.099 A 
ATOM     21  N   UNL     1      -9.997  -9.005  17.170  0.00  0.00    -0.242 NA
ATOM     22  C   UNL     1      -9.382  -8.552  17.483  0.00  0.00    +0.099 A 
ATOM     23  C   UNL     1      -8.610  -8.662  17.213  0.00  0.00    +0.018 A 
ENDBRANCH  17  18
ENDBRANCH  16  17
ENDBRANCH  15  16
TORSDOF 6
ENDMDL
MODEL 9
REMARK VINA RESULT:      -5.4     14.491     16.861
REMARK  Name = 
REMARK  6 active torsions:
REMARK  status: ('A' for Active; 'I' for Inactive)
REMARK    1  A    between atoms: C_3  and  C_4
REMARK    2  A    between atoms: C_4  and  N_5
REMARK    3  A    between atoms: C_6  and  C_8
REMARK    4  A    between atoms: C_15  and  N_16
REMARK    5  A    between atoms: N_16  and  C_17
REMARK    6  A    between atoms: C_17  and  C_18
REMARK                            x       y       z     vdW  Elec       q    Type
REMARK                         _______ _______ _______ _____ _____    ______ ____
ROOT
ATOM      1  O   UNL     1      -6.275  -9.254  12.743  0.00  0.00    -0.219 OA
ATOM      2  C   UNL     1      -5.634  -9.740  12.926  0.00  0.00    +0.199 C 
ATOM      3  C   UNL     1      -5.451 -10.042  13.672  0.00  0.00    +0.169 C 
ATOM     13  O   UNL     1      -4.768 -10.498  13.602  0.00  0.00    -0.350 OA
ATOM     14  C   UNL     1      -4.527 -10.478  12.813  0.00  0.00    +0.162 C 
ATOM     15  C   UNL     1      -5.062 -10.010  12.395  0.00  0.00    +0.135 C 
ENDROOT
BRANCH   3   4
ATOM      4  C   UNL     1      -5.878  -9.911  14.366  0.00  0.00    +0.148 C 
BRANCH   4   5
ATOM      5  N   UNL     1      -5.564 -10.141  15.093  0.00  0.00    -0.199 NA
ATOM      6  C   UNL     1      -5.967  -9.965  15.791  0.00  0.00    +0.271 C 
ATOM      7  O   UNL     1      -6.684  -9.558  15.761  0.00  0.00    -0.268 OA
BRANCH   6   8
ATOM      8  C   UNL     1      -5.653 -10.195  16.518  0.00  0.00    +0.084 A 
ATOM      9  C   UNL     1      -4.921  -9.970  16.824  0.00  0.00    +0.012 A 
ATOM     10  C   UNL     1      -4.832 -10.327  17.562  0.00  0.00    +0.008 A 
ATOM     11  C   UNL     1      -5.508 -10.773  17.713  0.00  0.00    +0.036 A 
ATOM     12  S   UNL     1      -6.016 -10.693  17.068  0.00  0.00    -0.082 S 
ENDBRANCH   6   8
ENDBRANCH   4   5
ENDBRANCH   3   4
BRANCH  15  16
ATOM     16  N   UNL     1      -5.032  -9.840  11.589  0.00  0.00    -0.209 NA
BRANCH  16  17
ATOM     17  C   UNL     1      -4.329  -9.950  11.171  0.00  0.00    +0.115 C 
BRANCH  17  18
ATOM     18  C   UNL     1      -4.297  -9.776  10.365  0.00  0.00    -0.002 A 
ATOM     19  C   UNL     1      -4.449 -10.367   9.809  0.00  0.00    +0.018 A 
ATOM     20  C   UNL     1      -4.417 -10.193   9.003  0.00  0.00    +0.099 A 
ATOM     21  N   UNL     1      -4.233  -9.429   8.753  0.00  0.00    -0.242 NA
ATOM     22  C   UNL     1      -4.081  -8.838   9.309  0.00  0.00    +0.099 A 
ATOM     23  C   UNL     1      -4.113  -9.012  10.115  0.00  0.00    +0.018 A 
ENDBRANCH  17  18
ENDBRANCH  16  17
ENDBRANCH  15  16
TORSDOF 6
ENDMDL
MODEL 10
REMARK VINA RESULT:      -5.3     14.123     15.659
REMARK  Name = 
REMARK  6 active torsions:
REMARK  status: ('A' for Active; 'I' for Inactive)
REMARK    1  A    between atoms: C_3  and  C_4
REMARK    2  A    between atoms: C_4  and  N_5
REMARK    3  A    between atoms: C_6  and  C_8
REMARK    4  A    between atoms: C_15  and  N_16
REMARK    5  A    between atoms: N_16  and  C_17
REMARK    6  A    between atoms: C_17  and  C_18
REMARK                            x       y       z     vdW  Elec       q    Type
REMARK                         _______ _______ _______ _____ _____    ______ ____
ROOT
ATOM      1  O   UNL     1      -3.065 -10.665  16.343  0.00  0.00    -0.219 OA
ATOM      2  C   UNL     1      -3.746 -10.677  15.878  0.00  0.00    +0.199 C 
ATOM      3  C   UNL     1      -3.773 -10.637  15.055  0.00  0.00    +0.169 C 
ATOM     13  O   UNL     1      -4.564 -10.665  14.824  0.00  0.00    -0.350 OA
ATOM     14  C   UNL     1      -5.027 -10.723  15.505  0.00  0.00    +0.162 C 
ATOM     15  C   UNL     1      -4.522 -10.730  16.156  0.00  0.00    +0.135 C 
ENDROOT
BRANCH   3   4
ATOM      4  C   UNL     1      -3.122 -10.578  14.551  0.00  0.00    +0.148 C 
BRANCH   4   5
ATOM      5  N   UNL     1      -3.235 -10.531  13.735  0.00  0.00    -0.199 NA
ATOM      6  C   UNL     1      -2.584 -10.473  13.231  0.00  0.00    +0.271 C 
ATOM      7  O   UNL     1      -1.821 -10.462  13.544  0.00  0.00    -0.268 OA
BRANCH   6   8
ATOM      8  C   UNL     1      -2.697 -10.426  12.415  0.00  0.00    +0.084 A 
ATOM      9  C   UNL     1      -3.418 -10.498  12.020  0.00  0.00    +0.012 A 
ATOM     10  C   UNL     1      -3.275 -10.415  11.212  0.00  0.00    +0.008 A 
ATOM     11  C   UNL     1      -2.466 -10.292  11.108  0.00  0.00    +0.036 A 
ATOM     12  S   UNL     1      -2.109 -10.299  11.850  0.00  0.00    -0.082 S 
ENDBRANCH   6   8
ENDBRANCH   4   5
ENDBRANCH   3   4
BRANCH  15  16
ATOM     16  N   UNL     1      -4.751 -10.781  16.947  0.00  0.00    -0.209 NA
BRANCH  16  17
ATOM     17  C   UNL     1      -5.416 -10.371  17.210  0.00  0.00    +0.115 C 
BRANCH  17  18
ATOM     18  C   UNL     1      -5.711 -10.507  17.969  0.00  0.00    -0.002 A 
ATOM     19  C   UNL     1      -6.525 -10.505  18.103  0.00  0.00    +0.018 A 
ATOM     20  C   UNL     1      -6.819 -10.641  18.862  0.00  0.00    +0.099 A 
ATOM     21  N   UNL     1      -6.299 -10.779  19.487  0.00  0.00    -0.242 NA
ATOM     22  C   UNL     1      -5.485 -10.781  19.354  0.00  0.00    +0.099 A 
ATOM     23  C   UNL     1      -5.190 -10.645  18.594  0.00  0.00    +0.018 A 
ENDBRANCH  17  18
ENDBRANCH  16  17
ENDBRANCH  15  16
TORSDOF 6
ENDMDL
