MODEL 1
REMARK VINA RESULT:     -10.0      0.000      0.000
REMARK  Name = 
REMARK  9 active torsions:
REMARK  status: ('A' for Active; 'I' for Inactive)
REMARK    1  A    between atoms: O_2  and  C_3
REMARK    2  A    between atoms: C_3  and  C_4
REMARK    3  A    between atoms: C_4  and  N_5
REMARK    4  A    between atoms: C_6  and  C_8
REMARK    5  A    between atoms: C_8  and  C_9
REMARK    6  A    between atoms: C_11  and  C_12
REMARK    7  A    between atoms: C_15  and  C_16
REMARK    8  A    between atoms: C_16  and  N_17
REMARK    9  A    between atoms: C_18  and  C_20
REMARK                            x       y       z     vdW  Elec       q    Type
REMARK                         _______ _______ _______ _____ _____    ______ ____
ROOT
ATOM      9  C   UNL     1      -4.258   2.103  24.806  0.00  0.00    +0.027 C 
ATOM     10  C   UNL     1      -3.574   1.934  24.377  0.00  0.00    +0.005 C 
ATOM     11  C   UNL     1      -3.388   1.152  24.189  0.00  0.00    +0.006 C 
ATOM     15  C   UNL     1      -3.886   0.540  24.432  0.00  0.00    +0.043 C 
ATOM     26  C   UNL     1      -4.570   0.710  24.862  0.00  0.00    -0.033 C 
ATOM     27  C   UNL     1      -4.755   1.492  25.049  0.00  0.00    -0.048 C 
ATOM     28  C   UNL     1      -5.439   1.661  25.478  0.00  0.00    +0.026 C 
ENDROOT
BRANCH  11  12
ATOM     12  C   UNL     1      -2.704   0.981  23.759  0.00  0.00    +0.000 C 
ATOM     13  C   UNL     1      -1.985   0.882  24.152  0.00  0.00    +0.000 C 
ATOM     14  C   UNL     1      -2.740   0.911  22.938  0.00  0.00    +0.000 C 
ENDBRANCH  11  12
BRANCH   9   8
ATOM      8  C   UNL     1      -4.443   2.885  24.993  0.00  0.00    +0.091 C 
BRANCH   8   6
ATOM      5  N   UNL     1      -3.380   3.790  25.301  0.00  0.00    -0.203 NA
ATOM      6  C   UNL     1      -3.934   3.495  24.766  0.00  0.00    +0.242 C 
ATOM      7  O   UNL     1      -3.980   3.808  24.004  0.00  0.00    -0.273 OA
BRANCH   5   4
ATOM      4  C   UNL     1      -2.872   4.399  25.074  0.00  0.00    +0.147 C 
BRANCH   4   3
ATOM      3  C   UNL     1      -2.195   4.558  25.518  0.00  0.00    +0.166 C 
BRANCH   3   2
ATOM      1  C   UNL     1      -0.915   4.977  25.039  0.00  0.00    +0.174 C 
ATOM      2  O   UNL     1      -1.681   5.161  25.285  0.00  0.00    -0.349 OA
ENDBRANCH   3   2
ENDBRANCH   4   3
ENDBRANCH   5   4
ENDBRANCH   8   6
ENDBRANCH   9   8
BRANCH  15  16
ATOM     16  C   UNL     1      -3.700  -0.243  24.244  0.00  0.00    +0.120 C 
BRANCH  16  17
ATOM     17  N   UNL     1      -4.279  -0.741  23.932  0.00  0.00    -0.201 NA
ATOM     18  C   UNL     1      -4.217  -1.557  24.030  0.00  0.00    +0.265 C 
ATOM     19  O   UNL     1      -4.796  -2.055  23.718  0.00  0.00    -0.268 OA
BRANCH  18  20
ATOM     20  C   UNL     1      -3.577  -1.875  24.440  0.00  0.00    +0.058 A 
ATOM     21  C   UNL     1      -2.919  -2.153  24.026  0.00  0.00    +0.025 A 
ATOM     22  C   UNL     1      -2.277  -2.472  24.436  0.00  0.00    +0.099 A 
ATOM     23  N   UNL     1      -2.295  -2.513  25.260  0.00  0.00    -0.242 NA
ATOM     24  C   UNL     1      -2.952  -2.236  25.674  0.00  0.00    +0.099 A 
ATOM     25  C   UNL     1      -3.593  -1.917  25.264  0.00  0.00    +0.025 A 
ENDBRANCH  18  20
ENDBRANCH  16  17
ENDBRANCH  15  16
TORSDOF 9
ENDMDL
MODEL 2
REMARK VINA RESULT:      -9.4      2.386      4.575
REMARK  Name = 
REMARK  9 active torsions:
REMARK  status: ('A' for Active; 'I' for Inactive)
REMARK    1  A    between atoms: O_2  and  C_3
REMARK    2  A    between atoms: C_3  and  C_4
REMARK    3  A    between atoms: C_4  and  N_5
REMARK    4  A    between atoms: C_6  and  C_8
REMARK    5  A    between atoms: C_8  and  C_9
REMARK    6  A    between atoms: C_11  and  C_12
REMARK    7  A    between atoms: C_15  and  C_16
REMARK    8  A    between atoms: C_16  and  N_17
REMARK    9  A    between atoms: C_18  and  C_20
REMARK                            x       y       z     vdW  Elec       q    Type
REMARK                         _______ _______ _______ _____ _____    ______ ____
ROOT
ATOM      9  C   UNL     1      -1.489   0.542  25.055  0.00  0.00    +0.027 C 
ATOM     10  C   UNL     1      -2.120   0.050  24.851  0.00  0.00    +0.005 C 
ATOM     11  C   UNL     1      -2.868   0.374  24.717  0.00  0.00    +0.006 C 
ATOM     15  C   UNL     1      -2.984   1.188  24.787  0.00  0.00    +0.043 C 
ATOM     26  C   UNL     1      -2.352   1.679  24.990  0.00  0.00    -0.033 C 
ATOM     27  C   UNL     1      -1.605   1.356  25.124  0.00  0.00    -0.048 C 
ATOM     28  C   UNL     1      -0.975   1.847  25.328  0.00  0.00    +0.026 C 
ENDROOT
BRANCH  11  12
ATOM     12  C   UNL     1      -3.499  -0.117  24.513  0.00  0.00    +0.000 C 
ATOM     13  C   UNL     1      -3.693  -0.231  23.720  0.00  0.00    +0.000 C 
ATOM     14  C   UNL     1      -3.936  -0.494  25.103  0.00  0.00    +0.000 C 
ENDBRANCH  11  12
BRANCH   9   8
ATOM      8  C   UNL     1      -0.743   0.218  25.189  0.00  0.00    +0.091 C 
BRANCH   8   6
ATOM      5  N   UNL     1       0.129   0.121  24.061  0.00  0.00    -0.203 NA
ATOM      6  C   UNL     1      -0.379  -0.237  24.603  0.00  0.00    +0.242 C 
ATOM      7  O   UNL     1      -0.525  -1.048  24.561  0.00  0.00    -0.273 OA
BRANCH   5   4
ATOM      4  C   UNL     1       0.493  -0.334  23.475  0.00  0.00    +0.147 C 
BRANCH   4   3
ATOM      3  C   UNL     1       1.002   0.023  22.934  0.00  0.00    +0.166 C 
BRANCH   3   2
ATOM      1  C   UNL     1       2.306   0.017  22.349  0.00  0.00    +0.174 C 
ATOM      2  O   UNL     1       1.654  -0.393  22.645  0.00  0.00    -0.349 OA
ENDBRANCH   3   2
ENDBRANCH   4   3
ENDBRANCH   5   4
ENDBRANCH   8   6
ENDBRANCH   9   8
BRANCH  15  16
ATOM     16  C   UNL     1      -3.732   1.511  24.652  0.00  0.00    +0.120 C 
BRANCH  16  17
ATOM     17  N   UNL     1      -3.827   2.114  24.097  0.00  0.00    -0.201 NA
ATOM     18  C   UNL     1      -4.435   2.664  24.186  0.00  0.00    +0.265 C 
ATOM     19  O   UNL     1      -4.530   3.267  23.632  0.00  0.00    -0.268 OA
BRANCH  18  20
ATOM     20  C   UNL     1      -4.948   2.611  24.829  0.00  0.00    +0.058 A 
ATOM     21  C   UNL     1      -5.630   2.150  24.776  0.00  0.00    +0.025 A 
ATOM     22  C   UNL     1      -6.144   2.097  25.420  0.00  0.00    +0.099 A 
ATOM     23  N   UNL     1      -5.975   2.505  26.116  0.00  0.00    -0.242 NA
ATOM     24  C   UNL     1      -5.293   2.966  26.170  0.00  0.00    +0.099 A 
ATOM     25  C   UNL     1      -4.780   3.019  25.527  0.00  0.00    +0.025 A 
ENDBRANCH  18  20
ENDBRANCH  16  17
ENDBRANCH  15  16
TORSDOF 9
ENDMDL
MODEL 3
REMARK VINA RESULT:      -9.2      1.039      4.855
REMARK  Name = 
REMARK  9 active torsions:
REMARK  status: ('A' for Active; 'I' for Inactive)
REMARK    1  A    between atoms: O_2  and  C_3
REMARK    2  A    between atoms: C_3  and  C_4
REMARK    3  A    between atoms: C_4  and  N_5
REMARK    4  A    between atoms: C_6  and  C_8
REMARK    5  A    between atoms: C_8  and  C_9
REMARK    6  A    between atoms: C_11  and  C_12
REMARK    7  A    between atoms: C_15  and  C_16
REMARK    8  A    between atoms: C_16  and  N_17
REMARK    9  A    between atoms: C_18  and  C_20
REMARK                            x       y       z     vdW  Elec       q    Type
REMARK                         _______ _______ _______ _____ _____    ______ ____
ROOT
ATOM      9  C   UNL     1      -4.198   0.254  24.379  0.00  0.00    +0.027 C 
ATOM     10  C   UNL     1      -3.571   0.452  23.881  0.00  0.00    +0.005 C 
ATOM     11  C   UNL     1      -3.276   1.223  23.878  0.00  0.00    +0.006 C 
ATOM     15  C   UNL     1      -3.608   1.795  24.371  0.00  0.00    +0.043 C 
ATOM     26  C   UNL     1      -4.237   1.596  24.869  0.00  0.00    -0.033 C 
ATOM     27  C   UNL     1      -4.531   0.825  24.872  0.00  0.00    -0.048 C 
ATOM     28  C   UNL     1      -5.158   0.627  25.369  0.00  0.00    +0.026 C 
ENDROOT
BRANCH  11  12
ATOM     12  C   UNL     1      -2.648   1.422  23.380  0.00  0.00    +0.000 C 
ATOM     13  C   UNL     1      -2.798   1.756  22.641  0.00  0.00    +0.000 C 
ATOM     14  C   UNL     1      -1.871   1.287  23.622  0.00  0.00    +0.000 C 
ENDBRANCH  11  12
BRANCH   9   8
ATOM      8  C   UNL     1      -4.493  -0.517  24.382  0.00  0.00    +0.091 C 
BRANCH   8   6
ATOM      5  N   UNL     1      -3.533  -1.544  24.638  0.00  0.00    -0.203 NA
ATOM      6  C   UNL     1      -4.022  -1.139  24.111  0.00  0.00    +0.242 C 
ATOM      7  O   UNL     1      -4.041  -1.355  23.315  0.00  0.00    -0.273 OA
BRANCH   5   4
ATOM      4  C   UNL     1      -3.063  -2.166  24.367  0.00  0.00    +0.147 C 
BRANCH   4   3
ATOM      3  C   UNL     1      -2.456  -2.461  24.842  0.00  0.00    +0.166 C 
BRANCH   3   2
ATOM      1  C   UNL     1      -1.031  -2.381  24.911  0.00  0.00    +0.174 C 
ATOM      2  O   UNL     1      -1.715  -2.618  24.515  0.00  0.00    -0.349 OA
ENDBRANCH   3   2
ENDBRANCH   4   3
ENDBRANCH   5   4
ENDBRANCH   8   6
ENDBRANCH   9   8
BRANCH  15  16
ATOM     16  C   UNL     1      -3.313   2.566  24.367  0.00  0.00    +0.120 C 
BRANCH  16  17
ATOM     17  N   UNL     1      -3.831   3.205  24.302  0.00  0.00    -0.201 NA
ATOM     18  C   UNL     1      -3.625   3.936  24.625  0.00  0.00    +0.265 C 
ATOM     19  O   UNL     1      -4.142   4.575  24.560  0.00  0.00    -0.268 OA
BRANCH  18  20
ATOM     20  C   UNL     1      -2.903   4.027  25.012  0.00  0.00    +0.058 A 
ATOM     21  C   UNL     1      -2.253   4.330  24.605  0.00  0.00    +0.025 A 
ATOM     22  C   UNL     1      -1.529   4.422  24.992  0.00  0.00    +0.099 A 
ATOM     23  N   UNL     1      -1.458   4.211  25.786  0.00  0.00    -0.242 NA
ATOM     24  C   UNL     1      -2.108   3.908  26.193  0.00  0.00    +0.099 A 
ATOM     25  C   UNL     1      -2.830   3.816  25.806  0.00  0.00    +0.025 A 
ENDBRANCH  18  20
ENDBRANCH  16  17
ENDBRANCH  15  16
TORSDOF 9
ENDMDL
MODEL 4
REMARK VINA RESULT:      -8.6      1.538      5.282
REMARK  Name = 
REMARK  9 active torsions:
REMARK  status: ('A' for Active; 'I' for Inactive)
REMARK    1  A    between atoms: O_2  and  C_3
REMARK    2  A    between atoms: C_3  and  C_4
REMARK    3  A    between atoms: C_4  and  N_5
REMARK    4  A    between atoms: C_6  and  C_8
REMARK    5  A    between atoms: C_8  and  C_9
REMARK    6  A    between atoms: C_11  and  C_12
REMARK    7  A    between atoms: C_15  and  C_16
REMARK    8  A    between atoms: C_16  and  N_17
REMARK    9  A    between atoms: C_18  and  C_20
REMARK                            x       y       z     vdW  Elec       q    Type
REMARK                         _______ _______ _______ _____ _____    ______ ____
ROOT
ATOM      9  C   UNL     1      -1.010   0.636  24.822  0.00  0.00    +0.027 C 
ATOM     10  C   UNL     1      -1.517   0.722  24.177  0.00  0.00    +0.005 C 
ATOM     11  C   UNL     1      -1.977   1.404  24.103  0.00  0.00    +0.006 C 
ATOM     15  C   UNL     1      -1.930   1.997  24.674  0.00  0.00    +0.043 C 
ATOM     26  C   UNL     1      -1.423   1.910  25.320  0.00  0.00    -0.033 C 
ATOM     27  C   UNL     1      -0.963   1.229  25.393  0.00  0.00    -0.048 C 
ATOM     28  C   UNL     1      -0.456   1.143  26.038  0.00  0.00    +0.026 C 
ENDROOT
BRANCH  11  12
ATOM     12  C   UNL     1      -2.485   1.491  23.458  0.00  0.00    +0.000 C 
ATOM     13  C   UNL     1      -3.242   1.165  23.483  0.00  0.00    +0.000 C 
ATOM     14  C   UNL     1      -2.234   1.903  22.789  0.00  0.00    +0.000 C 
ENDBRANCH  11  12
BRANCH   9   8
ATOM      8  C   UNL     1      -0.551  -0.045  24.896  0.00  0.00    +0.091 C 
BRANCH   8   6
ATOM      5  N   UNL     1      -1.294  -1.265  24.889  0.00  0.00    -0.203 NA
ATOM      6  C   UNL     1      -0.780  -0.741  24.514  0.00  0.00    +0.242 C 
ATOM      7  O   UNL     1      -0.495  -0.910  23.759  0.00  0.00    -0.273 OA
BRANCH   5   4
ATOM      4  C   UNL     1      -1.524  -1.961  24.507  0.00  0.00    +0.147 C 
BRANCH   4   3
ATOM      3  C   UNL     1      -2.148  -2.409  24.807  0.00  0.00    +0.166 C 
BRANCH   3   2
ATOM      1  C   UNL     1      -3.476  -2.872  24.553  0.00  0.00    +0.174 C 
ATOM      2  O   UNL     1      -2.704  -2.737  24.293  0.00  0.00    -0.349 OA
ENDBRANCH   3   2
ENDBRANCH   4   3
ENDBRANCH   5   4
ENDBRANCH   8   6
ENDBRANCH   9   8
BRANCH  15  16
ATOM     16  C   UNL     1      -2.391   2.679  24.600  0.00  0.00    +0.120 C 
BRANCH  16  17
ATOM     17  N   UNL     1      -2.051   3.421  24.718  0.00  0.00    -0.201 NA
ATOM     18  C   UNL     1      -2.513   4.048  24.986  0.00  0.00    +0.265 C 
ATOM     19  O   UNL     1      -2.173   4.791  25.104  0.00  0.00    -0.268 OA
BRANCH  18  20
ATOM     20  C   UNL     1      -3.316   3.934  25.137  0.00  0.00    +0.058 A 
ATOM     21  C   UNL     1      -3.870   4.059  24.539  0.00  0.00    +0.025 A 
ATOM     22  C   UNL     1      -4.673   3.945  24.690  0.00  0.00    +0.099 A 
ATOM     23  N   UNL     1      -4.922   3.705  25.439  0.00  0.00    -0.242 NA
ATOM     24  C   UNL     1      -4.368   3.580  26.038  0.00  0.00    +0.099 A 
ATOM     25  C   UNL     1      -3.565   3.695  25.887  0.00  0.00    +0.025 A 
ENDBRANCH  18  20
ENDBRANCH  16  17
ENDBRANCH  15  16
TORSDOF 9
ENDMDL
MODEL 5
REMARK VINA RESULT:      -8.4      1.887      2.942
REMARK  Name = 
REMARK  9 active torsions:
REMARK  status: ('A' for Active; 'I' for Inactive)
REMARK    1  A    between atoms: O_2  and  C_3
REMARK    2  A    between atoms: C_3  and  C_4
REMARK    3  A    between atoms: C_4  and  N_5
REMARK    4  A    between atoms: C_6  and  C_8
REMARK    5  A    between atoms: C_8  and  C_9
REMARK    6  A    between atoms: C_11  and  C_12
REMARK    7  A    between atoms: C_15  and  C_16
REMARK    8  A    between atoms: C_16  and  N_17
REMARK    9  A    between atoms: C_18  and  C_20
REMARK                            x       y       z     vdW  Elec       q    Type
REMARK                         _______ _______ _______ _____ _____    ______ ____
ROOT
ATOM      9  C   UNL     1      -2.333   2.878  24.893  0.00  0.00    +0.027 C 
ATOM     10  C   UNL     1      -2.729   2.422  24.331  0.00  0.00    +0.005 C 
ATOM     11  C   UNL     1      -2.421   1.691  24.103  0.00  0.00    +0.006 C 
ATOM     15  C   UNL     1      -1.718   1.417  24.438  0.00  0.00    +0.043 C 
ATOM     26  C   UNL     1      -1.323   1.874  25.000  0.00  0.00    -0.033 C 
ATOM     27  C   UNL     1      -1.631   2.604  25.228  0.00  0.00    -0.048 C 
ATOM     28  C   UNL     1      -1.235   3.061  25.790  0.00  0.00    +0.026 C 
ENDROOT
BRANCH  11  12
ATOM     12  C   UNL     1      -2.816   1.234  23.541  0.00  0.00    +0.000 C 
ATOM     13  C   UNL     1      -3.396   0.698  23.779  0.00  0.00    +0.000 C 
ATOM     14  C   UNL     1      -2.631   1.313  22.741  0.00  0.00    +0.000 C 
ENDBRANCH  11  12
BRANCH   9   8
ATOM      8  C   UNL     1      -2.641   3.609  25.120  0.00  0.00    +0.091 C 
BRANCH   8   6
ATOM      5  N   UNL     1      -3.996   3.561  25.575  0.00  0.00    -0.203 NA
ATOM      6  C   UNL     1      -3.442   3.774  25.002  0.00  0.00    +0.242 C 
ATOM      7  O   UNL     1      -3.687   4.151  24.310  0.00  0.00    -0.273 OA
BRANCH   5   4
ATOM      4  C   UNL     1      -4.796   3.726  25.456  0.00  0.00    +0.147 C 
BRANCH   4   3
ATOM      3  C   UNL     1      -5.367   3.349  25.916  0.00  0.00    +0.166 C 
BRANCH   3   2
ATOM      1  C   UNL     1      -6.236   2.214  25.925  0.00  0.00    +0.174 C 
ATOM      2  O   UNL     1      -5.955   2.896  25.555  0.00  0.00    -0.349 OA
ENDBRANCH   3   2
ENDBRANCH   4   3
ENDBRANCH   5   4
ENDBRANCH   8   6
ENDBRANCH   9   8
BRANCH  15  16
ATOM     16  C   UNL     1      -1.410   0.685  24.210  0.00  0.00    +0.120 C 
BRANCH  16  17
ATOM     17  N   UNL     1      -0.628   0.629  23.953  0.00  0.00    -0.201 NA
ATOM     18  C   UNL     1      -0.216  -0.080  24.040  0.00  0.00    +0.265 C 
ATOM     19  O   UNL     1       0.566  -0.137  23.784  0.00  0.00    -0.268 OA
BRANCH  18  20
ATOM     20  C   UNL     1      -0.585  -0.732  24.384  0.00  0.00    +0.058 A 
ATOM     21  C   UNL     1      -0.941  -1.304  23.907  0.00  0.00    +0.025 A 
ATOM     22  C   UNL     1      -1.310  -1.957  24.250  0.00  0.00    +0.099 A 
ATOM     23  N   UNL     1      -1.324  -2.038  25.071  0.00  0.00    -0.242 NA
ATOM     24  C   UNL     1      -0.969  -1.466  25.548  0.00  0.00    +0.099 A 
ATOM     25  C   UNL     1      -0.600  -0.814  25.205  0.00  0.00    +0.025 A 
ENDBRANCH  18  20
ENDBRANCH  16  17
ENDBRANCH  15  16
TORSDOF 9
ENDMDL
