MODEL 1
REMARK VINA RESULT:     -13.6      0.000      0.000
REMARK  Name = 
REMARK  6 active torsions:
REMARK  status: ('A' for Active; 'I' for Inactive)
REMARK    1  A    between atoms: C_4  and  C_5
REMARK    2  A    between atoms: C_5  and  C_6
REMARK    3  A    between atoms: C_9  and  C_10
REMARK    4  A    between atoms: C_10  and  C_11
REMARK    5  A    between atoms: C_19  and  N_20
REMARK    6  A    between atoms: C_21  and  C_23
REMARK                            x       y       z     vdW  Elec       q    Type
REMARK                         _______ _______ _______ _____ _____    ______ ____
ROOT
ATOM      1  C   UNL     1      -5.952   1.990  25.396  0.00  0.00    +0.002 C 
ATOM      2  C   UNL     1      -5.347   1.477  25.168  0.00  0.00    +0.019 C 
ATOM      3  C   UNL     1      -5.846   0.833  25.300  0.00  0.00    +0.002 C 
ATOM      4  C   UNL     1      -4.849   2.121  25.038  0.00  0.00    +0.009 C 
ATOM     18  C   UNL     1      -4.245   1.607  24.810  0.00  0.00    +0.022 C 
ATOM     19  C   UNL     1      -4.743   0.964  24.941  0.00  0.00    +0.095 C 
ENDROOT
BRANCH  19  20
ATOM     20  N   UNL     1      -4.669   0.145  24.872  0.00  0.00    -0.207 NA
ATOM     21  C   UNL     1      -3.962  -0.184  24.600  0.00  0.00    +0.241 C 
ATOM     22  O   UNL     1      -3.331   0.306  24.396  0.00  0.00    -0.273 OA
BRANCH  21  23
ATOM     23  C   UNL     1      -3.888  -1.003  24.531  0.00  0.00    +0.078 C 
ATOM     24  C   UNL     1      -4.144  -1.462  23.896  0.00  0.00    +0.009 C 
ATOM     25  C   UNL     1      -3.959  -2.249  24.058  0.00  0.00    +0.001 C 
ATOM     26  C   UNL     1      -3.587  -2.276  24.794  0.00  0.00    +0.001 C 
ATOM     27  C   UNL     1      -3.543  -1.507  25.087  0.00  0.00    +0.009 C 
ENDBRANCH  21  23
ENDBRANCH  19  20
BRANCH   4   5
ATOM      5  C   UNL     1      -4.923   2.939  25.106  0.00  0.00    +0.049 C 
BRANCH   5   6
ATOM      6  C   UNL     1      -4.259   3.423  25.022  0.00  0.00    +0.100 A 
ATOM      7  N   UNL     1      -4.001   3.775  24.322  0.00  0.00    -0.082 NA
ATOM      8  O   UNL     1      -3.320   4.208  24.491  0.00  0.00    -0.358 OA
ATOM      9  C   UNL     1      -3.158   4.124  25.296  0.00  0.00    +0.154 A 
ATOM     17  C   UNL     1      -3.739   3.639  25.624  0.00  0.00    +0.054 A 
BRANCH   9  10
ATOM     10  C   UNL     1      -2.525   4.466  25.701  0.00  0.00    +0.067 C 
BRANCH  10  11
ATOM     11  C   UNL     1      -1.751   4.319  25.457  0.00  0.00    +0.008 C 
ATOM     12  C   UNL     1      -1.387   3.604  25.650  0.00  0.00    +0.000 C 
ATOM     13  C   UNL     1      -0.612   3.456  25.406  0.00  0.00    +0.000 C 
ATOM     14  C   UNL     1      -0.202   4.024  24.968  0.00  0.00    +0.000 C 
ATOM     15  C   UNL     1      -0.567   4.738  24.776  0.00  0.00    +0.000 C 
ATOM     16  C   UNL     1      -1.342   4.886  25.020  0.00  0.00    +0.000 C 
ENDBRANCH  10  11
ENDBRANCH   9  10
ENDBRANCH   5   6
ENDBRANCH   4   5
TORSDOF 6
ENDMDL
MODEL 2
REMARK VINA RESULT:     -12.8      1.045      4.911
REMARK  Name = 
REMARK  6 active torsions:
REMARK  status: ('A' for Active; 'I' for Inactive)
REMARK    1  A    between atoms: C_4  and  C_5
REMARK    2  A    between atoms: C_5  and  C_6
REMARK    3  A    between atoms: C_9  and  C_10
REMARK    4  A    between atoms: C_10  and  C_11
REMARK    5  A    between atoms: C_19  and  N_20
REMARK    6  A    between atoms: C_21  and  C_23
REMARK                            x       y       z     vdW  Elec       q    Type
REMARK                         _______ _______ _______ _____ _____    ______ ____
ROOT
ATOM      1  C   UNL     1      -5.255   2.539  25.219  0.00  0.00    +0.002 C 
ATOM      2  C   UNL     1      -4.446   2.669  25.121  0.00  0.00    +0.019 C 
ATOM      3  C   UNL     1      -4.560   3.475  25.256  0.00  0.00    +0.002 C 
ATOM      4  C   UNL     1      -4.332   1.864  24.986  0.00  0.00    +0.009 C 
ATOM     18  C   UNL     1      -3.524   1.994  24.888  0.00  0.00    +0.022 C 
ATOM     19  C   UNL     1      -3.638   2.800  25.023  0.00  0.00    +0.095 C 
ENDROOT
BRANCH  19  20
ATOM     20  N   UNL     1      -3.146   3.462  25.049  0.00  0.00    -0.207 NA
ATOM     21  C   UNL     1      -2.328   3.371  24.989  0.00  0.00    +0.241 C 
ATOM     22  O   UNL     1      -2.002   2.618  24.901  0.00  0.00    -0.273 OA
BRANCH  21  23
ATOM     23  C   UNL     1      -1.836   4.033  25.015  0.00  0.00    +0.078 C 
ATOM     24  C   UNL     1      -2.070   4.804  25.193  0.00  0.00    +0.009 C 
ATOM     25  C   UNL     1      -1.403   5.287  25.156  0.00  0.00    +0.001 C 
ATOM     26  C   UNL     1      -0.757   4.816  24.955  0.00  0.00    +0.001 C 
ATOM     27  C   UNL     1      -1.024   4.041  24.868  0.00  0.00    +0.009 C 
ENDBRANCH  21  23
ENDBRANCH  19  20
BRANCH   4   5
ATOM      5  C   UNL     1      -4.824   1.202  24.960  0.00  0.00    +0.049 C 
BRANCH   5   6
ATOM      6  C   UNL     1      -4.507   0.458  24.789  0.00  0.00    +0.100 A 
ATOM      7  N   UNL     1      -4.397   0.139  24.037  0.00  0.00    -0.082 NA
ATOM      8  O   UNL     1      -4.067  -0.612  24.125  0.00  0.00    -0.358 OA
ATOM      9  C   UNL     1      -3.972  -0.755  24.932  0.00  0.00    +0.154 A 
ATOM     17  C   UNL     1      -4.244  -0.094  25.343  0.00  0.00    +0.054 A 
BRANCH   9  10
ATOM     10  C   UNL     1      -3.660  -1.441  25.269  0.00  0.00    +0.067 C 
BRANCH  10  11
ATOM     11  C   UNL     1      -2.897  -1.688  25.071  0.00  0.00    +0.008 C 
ATOM     12  C   UNL     1      -2.243  -1.305  25.396  0.00  0.00    +0.000 C 
ATOM     13  C   UNL     1      -1.481  -1.552  25.198  0.00  0.00    +0.000 C 
ATOM     14  C   UNL     1      -1.373  -2.182  24.675  0.00  0.00    +0.000 C 
ATOM     15  C   UNL     1      -2.028  -2.564  24.351  0.00  0.00    +0.000 C 
ATOM     16  C   UNL     1      -2.791  -2.317  24.549  0.00  0.00    +0.000 C 
ENDBRANCH  10  11
ENDBRANCH   9  10
ENDBRANCH   5   6
ENDBRANCH   4   5
TORSDOF 6
ENDMDL
MODEL 3
REMARK VINA RESULT:     -12.1      2.018      3.258
REMARK  Name = 
REMARK  6 active torsions:
REMARK  status: ('A' for Active; 'I' for Inactive)
REMARK    1  A    between atoms: C_4  and  C_5
REMARK    2  A    between atoms: C_5  and  C_6
REMARK    3  A    between atoms: C_9  and  C_10
REMARK    4  A    between atoms: C_10  and  C_11
REMARK    5  A    between atoms: C_19  and  N_20
REMARK    6  A    between atoms: C_21  and  C_23
REMARK                            x       y       z     vdW  Elec       q    Type
REMARK                         _______ _______ _______ _____ _____    ______ ____
ROOT
ATOM      1  C   UNL     1       0.178   0.218  24.178  0.00  0.00    +0.002 C 
ATOM      2  C   UNL     1      -0.584  -0.010  24.398  0.00  0.00    +0.019 C 
ATOM      3  C   UNL     1      -0.492  -0.715  23.979  0.00  0.00    +0.002 C 
ATOM      4  C   UNL     1      -0.675   0.695  24.816  0.00  0.00    +0.009 C 
ATOM     18  C   UNL     1      -1.436   0.466  25.036  0.00  0.00    +0.022 C 
ATOM     19  C   UNL     1      -1.345  -0.239  24.618  0.00  0.00    +0.095 C 
ENDROOT
BRANCH  19  20
ATOM     20  N   UNL     1      -1.819  -0.899  24.477  0.00  0.00    -0.207 NA
ATOM     21  C   UNL     1      -2.600  -0.912  24.747  0.00  0.00    +0.241 C 
ATOM     22  O   UNL     1      -2.905  -0.265  25.156  0.00  0.00    -0.273 OA
BRANCH  21  23
ATOM     23  C   UNL     1      -3.074  -1.573  24.606  0.00  0.00    +0.078 C 
ATOM     24  C   UNL     1      -3.694  -1.618  24.065  0.00  0.00    +0.009 C 
ATOM     25  C   UNL     1      -4.014  -2.377  24.107  0.00  0.00    +0.001 C 
ATOM     26  C   UNL     1      -3.591  -2.801  24.674  0.00  0.00    +0.001 C 
ATOM     27  C   UNL     1      -3.010  -2.305  24.983  0.00  0.00    +0.009 C 
ENDBRANCH  21  23
ENDBRANCH  19  20
BRANCH   4   5
ATOM      5  C   UNL     1      -0.201   1.355  24.956  0.00  0.00    +0.049 C 
BRANCH   5   6
ATOM      6  C   UNL     1      -0.518   2.018  25.333  0.00  0.00    +0.100 A 
ATOM      7  N   UNL     1      -0.501   2.171  26.143  0.00  0.00    -0.082 NA
ATOM      8  O   UNL     1      -0.879   2.892  26.275  0.00  0.00    -0.358 OA
ATOM      9  C   UNL     1      -1.131   3.184  25.545  0.00  0.00    +0.154 A 
ATOM     17  C   UNL     1      -0.907   2.645  24.963  0.00  0.00    +0.054 A 
BRANCH   9  10
ATOM     10  C   UNL     1      -1.535   3.893  25.421  0.00  0.00    +0.067 C 
BRANCH  10  11
ATOM     11  C   UNL     1      -2.360   3.906  25.437  0.00  0.00    +0.008 C 
ATOM     12  C   UNL     1      -2.787   3.794  24.741  0.00  0.00    +0.000 C 
ATOM     13  C   UNL     1      -3.612   3.807  24.756  0.00  0.00    +0.000 C 
ATOM     14  C   UNL     1      -4.009   3.933  25.469  0.00  0.00    +0.000 C 
ATOM     15  C   UNL     1      -3.581   4.045  26.165  0.00  0.00    +0.000 C 
ATOM     16  C   UNL     1      -2.756   4.032  26.149  0.00  0.00    +0.000 C 
ENDBRANCH  10  11
ENDBRANCH   9  10
ENDBRANCH   5   6
ENDBRANCH   4   5
TORSDOF 6
ENDMDL
MODEL 4
REMARK VINA RESULT:     -11.8      2.182      5.895
REMARK  Name = 
REMARK  6 active torsions:
REMARK  status: ('A' for Active; 'I' for Inactive)
REMARK    1  A    between atoms: C_4  and  C_5
REMARK    2  A    between atoms: C_5  and  C_6
REMARK    3  A    between atoms: C_9  and  C_10
REMARK    4  A    between atoms: C_10  and  C_11
REMARK    5  A    between atoms: C_19  and  N_20
REMARK    6  A    between atoms: C_21  and  C_23
REMARK                            x       y       z     vdW  Elec       q    Type
REMARK                         _______ _______ _______ _____ _____    ______ ____
ROOT
ATOM      1  C   UNL     1       0.132   0.852  24.092  0.00  0.00    +0.002 C 
ATOM      2  C   UNL     1      -0.311   1.454  24.442  0.00  0.00    +0.019 C 
ATOM      3  C   UNL     1       0.126   2.016  24.024  0.00  0.00    +0.002 C 
ATOM      4  C   UNL     1      -0.747   0.892  24.859  0.00  0.00    +0.009 C 
ATOM     18  C   UNL     1      -1.189   1.493  25.208  0.00  0.00    +0.022 C 
ATOM     19  C   UNL     1      -0.753   2.056  24.791  0.00  0.00    +0.095 C 
ENDROOT
BRANCH  19  20
ATOM     20  N   UNL     1      -0.758   2.879  24.743  0.00  0.00    -0.207 NA
ATOM     21  C   UNL     1      -1.305   3.315  25.181  0.00  0.00    +0.241 C 
ATOM     22  O   UNL     1      -1.847   2.927  25.667  0.00  0.00    -0.273 OA
BRANCH  21  23
ATOM     23  C   UNL     1      -1.310   4.139  25.134  0.00  0.00    +0.078 C 
ATOM     24  C   UNL     1      -0.679   4.615  24.898  0.00  0.00    +0.009 C 
ATOM     25  C   UNL     1      -0.926   5.401  24.932  0.00  0.00    +0.001 C 
ATOM     26  C   UNL     1      -1.710   5.411  25.188  0.00  0.00    +0.001 C 
ATOM     27  C   UNL     1      -1.947   4.632  25.313  0.00  0.00    +0.009 C 
ENDBRANCH  21  23
ENDBRANCH  19  20
BRANCH   4   5
ATOM      5  C   UNL     1      -0.742   0.068  24.906  0.00  0.00    +0.049 C 
BRANCH   5   6
ATOM      6  C   UNL     1      -1.336  -0.325  25.324  0.00  0.00    +0.100 A 
ATOM      7  N   UNL     1      -1.256  -0.675  26.066  0.00  0.00    -0.082 NA
ATOM      8  O   UNL     1      -1.985  -1.003  26.274  0.00  0.00    -0.358 OA
ATOM      9  C   UNL     1      -2.514  -0.854  25.659  0.00  0.00    +0.154 A 
ATOM     17  C   UNL     1      -2.113  -0.435  25.072  0.00  0.00    +0.054 A 
BRANCH   9  10
ATOM     10  C   UNL     1      -3.307  -1.085  25.635  0.00  0.00    +0.067 C 
BRANCH  10  11
ATOM     11  C   UNL     1      -3.570  -1.596  25.044  0.00  0.00    +0.008 C 
ATOM     12  C   UNL     1      -3.403  -2.402  25.091  0.00  0.00    +0.000 C 
ATOM     13  C   UNL     1      -3.666  -2.914  24.500  0.00  0.00    +0.000 C 
ATOM     14  C   UNL     1      -4.097  -2.619  23.860  0.00  0.00    +0.000 C 
ATOM     15  C   UNL     1      -4.264  -1.812  23.814  0.00  0.00    +0.000 C 
ATOM     16  C   UNL     1      -4.001  -1.300  24.406  0.00  0.00    +0.000 C 
ENDBRANCH  10  11
ENDBRANCH   9  10
ENDBRANCH   5   6
ENDBRANCH   4   5
TORSDOF 6
ENDMDL
MODEL 5
REMARK VINA RESULT:     -11.5      1.885      5.340
REMARK  Name = 
REMARK  6 active torsions:
REMARK  status: ('A' for Active; 'I' for Inactive)
REMARK    1  A    between atoms: C_4  and  C_5
REMARK    2  A    between atoms: C_5  and  C_6
REMARK    3  A    between atoms: C_9  and  C_10
REMARK    4  A    between atoms: C_10  and  C_11
REMARK    5  A    between atoms: C_19  and  N_20
REMARK    6  A    between atoms: C_21  and  C_23
REMARK                            x       y       z     vdW  Elec       q    Type
REMARK                         _______ _______ _______ _____ _____    ______ ____
ROOT
ATOM      1  C   UNL     1      -0.394   2.271  25.699  0.00  0.00    +0.002 C 
ATOM      2  C   UNL     1      -1.187   2.273  25.472  0.00  0.00    +0.019 C 
ATOM      3  C   UNL     1      -1.263   3.047  25.749  0.00  0.00    +0.002 C 
ATOM      4  C   UNL     1      -1.112   1.500  25.197  0.00  0.00    +0.009 C 
ATOM     18  C   UNL     1      -1.904   1.503  24.971  0.00  0.00    +0.022 C 
ATOM     19  C   UNL     1      -1.980   2.276  25.246  0.00  0.00    +0.095 C 
ENDROOT
BRANCH  19  20
ATOM     20  N   UNL     1      -2.595   2.825  25.282  0.00  0.00    -0.207 NA
ATOM     21  C   UNL     1      -3.362   2.600  25.076  0.00  0.00    +0.241 C 
ATOM     22  O   UNL     1      -3.514   1.825  24.836  0.00  0.00    -0.273 OA
BRANCH  21  23
ATOM     23  C   UNL     1      -3.977   3.149  25.111  0.00  0.00    +0.078 C 
ATOM     24  C   UNL     1      -4.580   3.167  25.674  0.00  0.00    +0.009 C 
ATOM     25  C   UNL     1      -5.072   3.805  25.500  0.00  0.00    +0.001 C 
ATOM     26  C   UNL     1      -4.773   4.182  24.830  0.00  0.00    +0.001 C 
ATOM     27  C   UNL     1      -4.097   3.777  24.589  0.00  0.00    +0.009 C 
ENDBRANCH  21  23
ENDBRANCH  19  20
BRANCH   4   5
ATOM      5  C   UNL     1      -0.497   0.951  25.162  0.00  0.00    +0.049 C 
BRANCH   5   6
ATOM      6  C   UNL     1      -0.646   0.180  24.904  0.00  0.00    +0.100 A 
ATOM      7  N   UNL     1      -0.517  -0.110  24.143  0.00  0.00    -0.082 NA
ATOM      8  O   UNL     1      -0.741  -0.904  24.132  0.00  0.00    -0.358 OA
ATOM      9  C   UNL     1      -1.007  -1.104  24.887  0.00  0.00    +0.154 A 
ATOM     17  C   UNL     1      -0.948  -0.433  25.364  0.00  0.00    +0.054 A 
BRANCH   9  10
ATOM     10  C   UNL     1      -1.284  -1.845  25.123  0.00  0.00    +0.067 C 
BRANCH  10  11
ATOM     11  C   UNL     1      -2.065  -2.063  24.965  0.00  0.00    +0.008 C 
ATOM     12  C   UNL     1      -2.669  -1.826  25.474  0.00  0.00    +0.000 C 
ATOM     13  C   UNL     1      -3.450  -2.044  25.316  0.00  0.00    +0.000 C 
ATOM     14  C   UNL     1      -3.625  -2.499  24.650  0.00  0.00    +0.000 C 
ATOM     15  C   UNL     1      -3.019  -2.736  24.142  0.00  0.00    +0.000 C 
ATOM     16  C   UNL     1      -2.239  -2.518  24.300  0.00  0.00    +0.000 C 
ENDBRANCH  10  11
ENDBRANCH   9  10
ENDBRANCH   5   6
ENDBRANCH   4   5
TORSDOF 6
ENDMDL
