MODEL 1
REMARK VINA RESULT:     -11.9      0.000      0.000
REMARK  Name = 
REMARK  8 active torsions:
REMARK  status: ('A' for Active; 'I' for Inactive)
REMARK    1  A    between atoms: O_2  and  C_3
REMARK    2  A    between atoms: C_3  and  C_5
REMARK    3  A    between atoms: C_5  and  C_6
REMARK    4  A    between atoms: C_5  and  N_13
REMARK    5  A    between atoms: C_6  and  C_7
REMARK    6  A    between atoms: C_14  and  C_16
REMARK    7  A    between atoms: N_24  and  C_25
REMARK    8  A    between atoms: C_28  and  C_30
REMARK                            x       y       z     vdW  Elec       q    Type
REMARK                         _______ _______ _______ _____ _____    ______ ____
ROOT
ATOM     16  C   UNL     1      -2.239   1.134  24.401  0.00  0.00    +0.175 C 
ATOM     17  C   UNL     1      -2.918   0.714  24.609  0.00  0.00    +0.123 C 
ATOM     18  N   UNL     1      -2.901  -0.111  24.637  0.00  0.00    -0.272 N 
ATOM     19  C   UNL     1      -2.204  -0.514  24.457  0.00  0.00    +0.115 C 
ATOM     20  C   UNL     1      -1.525  -0.095  24.249  0.00  0.00    +0.117 C 
ATOM     21  N   UNL     1      -1.543   0.730  24.221  0.00  0.00    -0.253 N 
ATOM     22  C   UNL     1      -0.865   1.150  24.013  0.00  0.00    +0.324 C 
ATOM     23  O   UNL     1      -0.882   1.975  23.985  0.00  0.00    -0.251 OA
ATOM     24  N   UNL     1      -0.168   0.746  23.832  0.00  0.00    -0.190 NA
ATOM     28  C   UNL     1      -3.579  -0.530  24.845  0.00  0.00    +0.249 C 
ATOM     29  O   UNL     1      -4.276  -0.127  25.026  0.00  0.00    -0.270 OA
ENDROOT
BRANCH  28  30
ATOM     30  C   UNL     1      -3.561  -1.355  24.873  0.00  0.00    +0.056 A 
ATOM     31  C   UNL     1      -3.292  -1.739  25.552  0.00  0.00    +0.005 A 
ATOM     32  C   UNL     1      -3.275  -2.564  25.580  0.00  0.00    +0.002 A 
ATOM     33  C   UNL     1      -3.526  -3.003  24.929  0.00  0.00    +0.030 A 
ATOM     34  C   UNL     1      -3.795  -2.620  24.251  0.00  0.00    +0.140 A 
ATOM     35  F   UNL     1      -4.046  -3.060  23.599  0.00  0.00    -0.204 F 
ATOM     36  C   UNL     1      -3.812  -1.795  24.223  0.00  0.00    +0.034 A 
ENDBRANCH  28  30
BRANCH  16  14
ATOM     13  N   UNL     1      -2.551   2.386  25.013  0.00  0.00    -0.194 NA
ATOM     14  C   UNL     1      -2.256   1.959  24.373  0.00  0.00    +0.262 C 
ATOM     15  O   UNL     1      -1.979   2.354  23.704  0.00  0.00    -0.271 OA
BRANCH  13   5
ATOM      5  C   UNL     1      -2.569   3.211  24.985  0.00  0.00    +0.198 C 
BRANCH   5   3
ATOM      3  C   UNL     1      -1.951   3.648  25.313  0.00  0.00    +0.337 C 
ATOM      4  O   UNL     1      -1.656   3.450  26.058  0.00  0.00    -0.248 OA
BRANCH   3   2
ATOM      1  C   UNL     1      -1.056   4.760  25.252  0.00  0.00    +0.256 C 
ATOM      2  O   UNL     1      -1.629   4.284  24.897  0.00  0.00    -0.443 OA
ENDBRANCH   3   2
ENDBRANCH   5   3
BRANCH   5   6
ATOM      6  C   UNL     1      -3.204   3.599  24.629  0.00  0.00    +0.061 C 
BRANCH   6   7
ATOM      7  C   UNL     1      -3.948   3.584  24.985  0.00  0.00    -0.001 A 
ATOM      8  C   UNL     1      -4.609   3.351  24.548  0.00  0.00    -0.001 A 
ATOM      9  C   UNL     1      -5.353   3.337  24.904  0.00  0.00    +0.020 A 
ATOM     10  C   UNL     1      -5.437   3.556  25.696  0.00  0.00    +0.099 A 
ATOM     11  N   UNL     1      -4.776   3.789  26.131  0.00  0.00    -0.243 NA
ATOM     12  C   UNL     1      -4.032   3.803  25.775  0.00  0.00    +0.095 A 
ENDBRANCH   6   7
ENDBRANCH   5   6
ENDBRANCH  13   5
ENDBRANCH  16  14
BRANCH  24  25
ATOM     25  C   UNL     1      -0.150  -0.078  23.860  0.00  0.00    +0.097 C 
ATOM     26  C   UNL     1      -0.033  -0.464  24.580  0.00  0.00    +0.023 C 
ATOM     27  C   UNL     1      -0.251  -0.516  23.169  0.00  0.00    +0.023 C 
ENDBRANCH  24  25
TORSDOF 8
ENDMDL
MODEL 2
REMARK VINA RESULT:     -10.7      1.931      4.719
REMARK  Name = 
REMARK  8 active torsions:
REMARK  status: ('A' for Active; 'I' for Inactive)
REMARK    1  A    between atoms: O_2  and  C_3
REMARK    2  A    between atoms: C_3  and  C_5
REMARK    3  A    between atoms: C_5  and  C_6
REMARK    4  A    between atoms: C_5  and  N_13
REMARK    5  A    between atoms: C_6  and  C_7
REMARK    6  A    between atoms: C_14  and  C_16
REMARK    7  A    between atoms: N_24  and  C_25
REMARK    8  A    between atoms: C_28  and  C_30
REMARK                            x       y       z     vdW  Elec       q    Type
REMARK                         _______ _______ _______ _____ _____    ______ ____
ROOT
ATOM     16  C   UNL     1      -1.813   1.165  25.223  0.00  0.00    +0.175 C 
ATOM     17  C   UNL     1      -2.607   1.189  24.996  0.00  0.00    +0.123 C 
ATOM     18  N   UNL     1      -2.998   1.913  24.939  0.00  0.00    -0.272 N 
ATOM     19  C   UNL     1      -2.596   2.613  25.109  0.00  0.00    +0.115 C 
ATOM     20  C   UNL     1      -1.804   2.590  25.336  0.00  0.00    +0.117 C 
ATOM     21  N   UNL     1      -1.412   1.866  25.392  0.00  0.00    -0.253 N 
ATOM     22  C   UNL     1      -0.620   1.841  25.619  0.00  0.00    +0.324 C 
ATOM     23  O   UNL     1      -0.228   1.117  25.676  0.00  0.00    -0.251 OA
ATOM     24  N   UNL     1      -0.218   2.542  25.789  0.00  0.00    -0.190 NA
ATOM     28  C   UNL     1      -3.791   1.936  24.713  0.00  0.00    +0.249 C 
ATOM     29  O   UNL     1      -4.193   1.236  24.543  0.00  0.00    -0.270 OA
ENDROOT
BRANCH  28  30
ATOM     30  C   UNL     1      -4.182   2.661  24.656  0.00  0.00    +0.056 A 
ATOM     31  C   UNL     1      -4.077   3.135  23.989  0.00  0.00    +0.005 A 
ATOM     32  C   UNL     1      -4.469   3.859  23.932  0.00  0.00    +0.002 A 
ATOM     33  C   UNL     1      -4.965   4.109  24.542  0.00  0.00    +0.030 A 
ATOM     34  C   UNL     1      -5.069   3.635  25.209  0.00  0.00    +0.140 A 
ATOM     35  F   UNL     1      -5.565   3.884  25.819  0.00  0.00    -0.204 F 
ATOM     36  C   UNL     1      -4.678   2.911  25.266  0.00  0.00    +0.034 A 
ENDBRANCH  28  30
BRANCH  16  14
ATOM     13  N   UNL     1      -1.517  -0.126  24.689  0.00  0.00    -0.194 NA
ATOM     14  C   UNL     1      -1.422   0.441  25.279  0.00  0.00    +0.262 C 
ATOM     15  O   UNL     1      -0.935   0.286  25.927  0.00  0.00    -0.271 OA
BRANCH  13   5
ATOM      5  C   UNL     1      -1.126  -0.850  24.746  0.00  0.00    +0.198 C 
BRANCH   5   3
ATOM      3  C   UNL     1      -0.428  -0.976  24.325  0.00  0.00    +0.337 C 
ATOM      4  O   UNL     1       0.198  -1.384  24.678  0.00  0.00    -0.248 OA
BRANCH   3   2
ATOM      1  C   UNL     1       0.385  -0.686  23.187  0.00  0.00    +0.256 C 
ATOM      2  O   UNL     1      -0.354  -0.696  23.553  0.00  0.00    -0.443 OA
ENDBRANCH   3   2
ENDBRANCH   5   3
BRANCH   5   6
ATOM      6  C   UNL     1      -1.433  -1.449  25.223  0.00  0.00    +0.061 C 
BRANCH   6   7
ATOM      7  C   UNL     1      -2.080  -1.892  24.966  0.00  0.00    -0.001 A 
ATOM      8  C   UNL     1      -2.809  -1.814  25.345  0.00  0.00    -0.001 A 
ATOM      9  C   UNL     1      -3.456  -2.257  25.088  0.00  0.00    +0.020 A 
ATOM     10  C   UNL     1      -3.374  -2.777  24.452  0.00  0.00    +0.099 A 
ATOM     11  N   UNL     1      -2.644  -2.854  24.074  0.00  0.00    -0.243 NA
ATOM     12  C   UNL     1      -1.997  -2.411  24.331  0.00  0.00    +0.095 A 
ENDBRANCH   6   7
ENDBRANCH   5   6
ENDBRANCH  13   5
ENDBRANCH  16  14
BRANCH  24  25
ATOM     25  C   UNL     1      -0.609   3.267  25.732  0.00  0.00    +0.097 C 
ATOM     26  C   UNL     1      -0.554   3.711  25.039  0.00  0.00    +0.023 C 
ATOM     27  C   UNL     1      -1.055   3.545  26.368  0.00  0.00    +0.023 C 
ENDBRANCH  24  25
TORSDOF 8
ENDMDL
MODEL 3
REMARK VINA RESULT:     -10.3      1.455      3.293
REMARK  Name = 
REMARK  8 active torsions:
REMARK  status: ('A' for Active; 'I' for Inactive)
REMARK    1  A    between atoms: O_2  and  C_3
REMARK    2  A    between atoms: C_3  and  C_5
REMARK    3  A    between atoms: C_5  and  C_6
REMARK    4  A    between atoms: C_5  and  N_13
REMARK    5  A    between atoms: C_6  and  C_7
REMARK    6  A    between atoms: C_14  and  C_16
REMARK    7  A    between atoms: N_24  and  C_25
REMARK    8  A    between atoms: C_28  and  C_30
REMARK                            x       y       z     vdW  Elec       q    Type
REMARK                         _______ _______ _______ _____ _____    ______ ____
ROOT
ATOM     16  C   UNL     1      -3.374   1.773  24.641  0.00  0.00    +0.175 C 
ATOM     17  C   UNL     1      -2.975   1.064  24.503  0.00  0.00    +0.123 C 
ATOM     18  N   UNL     1      -3.385   0.348  24.529  0.00  0.00    -0.272 N 
ATOM     19  C   UNL     1      -4.194   0.343  24.692  0.00  0.00    +0.115 C 
ATOM     20  C   UNL     1      -4.593   1.051  24.830  0.00  0.00    +0.117 C 
ATOM     21  N   UNL     1      -4.183   1.766  24.804  0.00  0.00    -0.253 N 
ATOM     22  C   UNL     1      -4.580   2.476  24.942  0.00  0.00    +0.324 C 
ATOM     23  O   UNL     1      -4.170   3.191  24.916  0.00  0.00    -0.251 OA
ATOM     24  N   UNL     1      -5.390   2.469  25.105  0.00  0.00    -0.190 NA
ATOM     28  C   UNL     1      -2.987  -0.360  24.391  0.00  0.00    +0.249 C 
ATOM     29  O   UNL     1      -2.178  -0.355  24.228  0.00  0.00    -0.270 OA
ENDROOT
BRANCH  28  30
ATOM     30  C   UNL     1      -3.397  -1.076  24.417  0.00  0.00    +0.056 A 
ATOM     31  C   UNL     1      -3.881  -1.297  23.786  0.00  0.00    +0.005 A 
ATOM     32  C   UNL     1      -4.291  -2.013  23.811  0.00  0.00    +0.002 A 
ATOM     33  C   UNL     1      -4.217  -2.506  24.468  0.00  0.00    +0.030 A 
ATOM     34  C   UNL     1      -3.734  -2.285  25.099  0.00  0.00    +0.140 A 
ATOM     35  F   UNL     1      -3.661  -2.779  25.756  0.00  0.00    -0.204 F 
ATOM     36  C   UNL     1      -3.324  -1.570  25.073  0.00  0.00    +0.034 A 
ENDBRANCH  28  30
BRANCH  16  14
ATOM     13  N   UNL     1      -2.309   2.606  25.103  0.00  0.00    -0.194 NA
ATOM     14  C   UNL     1      -2.964   2.489  24.616  0.00  0.00    +0.262 C 
ATOM     15  O   UNL     1      -3.210   3.086  24.102  0.00  0.00    -0.271 OA
BRANCH  13   5
ATOM      5  C   UNL     1      -1.899   3.322  25.077  0.00  0.00    +0.198 C 
BRANCH   5   3
ATOM      3  C   UNL     1      -2.122   3.943  25.571  0.00  0.00    +0.337 C 
ATOM      4  O   UNL     1      -2.278   3.800  26.369  0.00  0.00    -0.248 OA
BRANCH   3   2
ATOM      1  C   UNL     1      -2.282   5.347  25.782  0.00  0.00    +0.256 C 
ATOM      2  O   UNL     1      -2.189   4.708  25.269  0.00  0.00    -0.443 OA
ENDBRANCH   3   2
ENDBRANCH   5   3
BRANCH   5   6
ATOM      6  C   UNL     1      -1.266   3.416  24.557  0.00  0.00    +0.061 C 
BRANCH   6   7
ATOM      7  C   UNL     1      -0.588   2.954  24.643  0.00  0.00    -0.001 A 
ATOM      8  C   UNL     1      -0.243   2.601  23.982  0.00  0.00    -0.001 A 
ATOM      9  C   UNL     1       0.434   2.138  24.068  0.00  0.00    +0.020 A 
ATOM     10  C   UNL     1       0.767   2.028  24.815  0.00  0.00    +0.099 A 
ATOM     11  N   UNL     1       0.421   2.381  25.476  0.00  0.00    -0.243 NA
ATOM     12  C   UNL     1      -0.256   2.844  25.390  0.00  0.00    +0.095 A 
ENDBRANCH   6   7
ENDBRANCH   5   6
ENDBRANCH  13   5
ENDBRANCH  16  14
BRANCH  24  25
ATOM     25  C   UNL     1      -5.800   1.754  25.131  0.00  0.00    +0.097 C 
ATOM     26  C   UNL     1      -5.828   1.320  25.832  0.00  0.00    +0.023 C 
ATOM     27  C   UNL     1      -6.181   1.473  24.456  0.00  0.00    +0.023 C 
ENDBRANCH  24  25
TORSDOF 8
ENDMDL
MODEL 4
REMARK VINA RESULT:     -10.2      1.854      3.901
REMARK  Name = 
REMARK  8 active torsions:
REMARK  status: ('A' for Active; 'I' for Inactive)
REMARK    1  A    between atoms: O_2  and  C_3
REMARK    2  A    between atoms: C_3  and  C_5
REMARK    3  A    between atoms: C_5  and  C_6
REMARK    4  A    between atoms: C_5  and  N_13
REMARK    5  A    between atoms: C_6  and  C_7
REMARK    6  A    between atoms: C_14  and  C_16
REMARK    7  A    between atoms: N_24  and  C_25
REMARK    8  A    between atoms: C_28  and  C_30
REMARK                            x       y       z     vdW  Elec       q    Type
REMARK                         _______ _______ _______ _____ _____    ______ ____
ROOT
ATOM     16  C   UNL     1      -2.427   0.429  24.787  0.00  0.00    +0.175 C 
ATOM     17  C   UNL     1      -2.860   1.127  24.867  0.00  0.00    +0.123 C 
ATOM     18  N   UNL     1      -3.681   1.097  24.947  0.00  0.00    -0.272 N 
ATOM     19  C   UNL     1      -4.068   0.368  24.946  0.00  0.00    +0.115 C 
ATOM     20  C   UNL     1      -3.636  -0.329  24.866  0.00  0.00    +0.117 C 
ATOM     21  N   UNL     1      -2.815  -0.299  24.787  0.00  0.00    -0.253 N 
ATOM     22  C   UNL     1      -2.382  -0.996  24.707  0.00  0.00    +0.324 C 
ATOM     23  O   UNL     1      -1.561  -0.965  24.627  0.00  0.00    -0.251 OA
ATOM     24  N   UNL     1      -2.770  -1.725  24.706  0.00  0.00    -0.190 NA
ATOM     28  C   UNL     1      -4.113   1.794  25.027  0.00  0.00    +0.249 C 
ATOM     29  O   UNL     1      -3.726   2.523  25.027  0.00  0.00    -0.270 OA
ENDROOT
BRANCH  28  30
ATOM     30  C   UNL     1      -4.934   1.763  25.106  0.00  0.00    +0.056 A 
ATOM     31  C   UNL     1      -5.414   1.743  24.434  0.00  0.00    +0.005 A 
ATOM     32  C   UNL     1      -6.234   1.712  24.514  0.00  0.00    +0.002 A 
ATOM     33  C   UNL     1      -6.575   1.702  25.265  0.00  0.00    +0.030 A 
ATOM     34  C   UNL     1      -6.097   1.723  25.936  0.00  0.00    +0.140 A 
ATOM     35  F   UNL     1      -6.438   1.713  26.688  0.00  0.00    -0.204 F 
ATOM     36  C   UNL     1      -5.276   1.753  25.857  0.00  0.00    +0.034 A 
ENDBRANCH  28  30
BRANCH  16  14
ATOM     13  N   UNL     1      -1.259   1.046  24.244  0.00  0.00    -0.194 NA
ATOM     14  C   UNL     1      -1.606   0.460  24.707  0.00  0.00    +0.262 C 
ATOM     15  O   UNL     1      -1.134  -0.097  25.092  0.00  0.00    -0.271 OA
BRANCH  13   5
ATOM      5  C   UNL     1      -0.438   1.077  24.164  0.00  0.00    +0.198 C 
BRANCH   5   3
ATOM      3  C   UNL     1      -0.073   0.725  23.514  0.00  0.00    +0.337 C 
ATOM      4  O   UNL     1      -0.405   0.803  22.762  0.00  0.00    -0.248 OA
BRANCH   3   2
ATOM      1  C   UNL     1       1.009  -0.024  22.958  0.00  0.00    +0.256 C 
ATOM      2  O   UNL     1       0.623   0.294  23.614  0.00  0.00    -0.443 OA
ENDBRANCH   3   2
ENDBRANCH   5   3
BRANCH   5   6
ATOM      6  C   UNL     1       0.018   1.460  24.735  0.00  0.00    +0.061 C 
BRANCH   6   7
ATOM      7  C   UNL     1      -0.069   2.271  24.857  0.00  0.00    -0.001 A 
ATOM      8  C   UNL     1      -0.106   2.570  25.625  0.00  0.00    -0.001 A 
ATOM      9  C   UNL     1      -0.192   3.382  25.747  0.00  0.00    +0.020 A 
ATOM     10  C   UNL     1      -0.241   3.894  25.101  0.00  0.00    +0.099 A 
ATOM     11  N   UNL     1      -0.204   3.593  24.334  0.00  0.00    -0.243 NA
ATOM     12  C   UNL     1      -0.117   2.782  24.212  0.00  0.00    +0.095 A 
ENDBRANCH   6   7
ENDBRANCH   5   6
ENDBRANCH  13   5
ENDBRANCH  16  14
BRANCH  24  25
ATOM     25  C   UNL     1      -3.590  -1.755  24.786  0.00  0.00    +0.097 C 
ATOM     26  C   UNL     1      -3.931  -1.779  25.537  0.00  0.00    +0.023 C 
ATOM     27  C   UNL     1      -4.069  -1.762  24.115  0.00  0.00    +0.023 C 
ENDBRANCH  24  25
TORSDOF 8
ENDMDL
MODEL 5
REMARK VINA RESULT:     -10.2      1.990      5.535
REMARK  Name = 
REMARK  8 active torsions:
REMARK  status: ('A' for Active; 'I' for Inactive)
REMARK    1  A    between atoms: O_2  and  C_3
REMARK    2  A    between atoms: C_3  and  C_5
REMARK    3  A    between atoms: C_5  and  C_6
REMARK    4  A    between atoms: C_5  and  N_13
REMARK    5  A    between atoms: C_6  and  C_7
REMARK    6  A    between atoms: C_14  and  C_16
REMARK    7  A    between atoms: N_24  and  C_25
REMARK    8  A    between atoms: C_28  and  C_30
REMARK                            x       y       z     vdW  Elec       q    Type
REMARK                         _______ _______ _______ _____ _____    ______ ____
ROOT
ATOM     16  C   UNL     1      -3.297   1.239  25.034  0.00  0.00    +0.175 C 
ATOM     17  C   UNL     1      -2.516   1.506  25.067  0.00  0.00    +0.123 C 
ATOM     18  N   UNL     1      -2.356   2.315  25.052  0.00  0.00    -0.272 N 
ATOM     19  C   UNL     1      -2.976   2.858  25.002  0.00  0.00    +0.115 C 
ATOM     20  C   UNL     1      -3.755   2.591  24.969  0.00  0.00    +0.117 C 
ATOM     21  N   UNL     1      -3.916   1.782  24.985  0.00  0.00    -0.253 N 
ATOM     22  C   UNL     1      -4.696   1.515  24.951  0.00  0.00    +0.324 C 
ATOM     23  O   UNL     1      -4.856   0.706  24.967  0.00  0.00    -0.251 OA
ATOM     24  N   UNL     1      -5.316   2.059  24.902  0.00  0.00    -0.190 NA
ATOM     28  C   UNL     1      -1.576   2.581  25.085  0.00  0.00    +0.249 C 
ATOM     29  O   UNL     1      -0.956   2.039  25.134  0.00  0.00    -0.270 OA
ENDROOT
BRANCH  28  30
ATOM     30  C   UNL     1      -1.416   3.390  25.069  0.00  0.00    +0.056 A 
ATOM     31  C   UNL     1      -1.697   3.879  25.672  0.00  0.00    +0.005 A 
ATOM     32  C   UNL     1      -1.537   4.688  25.656  0.00  0.00    +0.002 A 
ATOM     33  C   UNL     1      -1.094   5.009  25.037  0.00  0.00    +0.030 A 
ATOM     34  C   UNL     1      -0.813   4.521  24.435  0.00  0.00    +0.140 A 
ATOM     35  F   UNL     1      -0.371   4.841  23.817  0.00  0.00    -0.204 F 
ATOM     36  C   UNL     1      -0.974   3.712  24.451  0.00  0.00    +0.034 A 
ENDBRANCH  28  30
BRANCH  16  14
ATOM     13  N   UNL     1      -3.017  -0.086  24.583  0.00  0.00    -0.194 NA
ATOM     14  C   UNL     1      -3.458   0.430  25.050  0.00  0.00    +0.262 C 
ATOM     15  O   UNL     1      -4.060   0.139  25.533  0.00  0.00    -0.271 OA
BRANCH  13   5
ATOM      5  C   UNL     1      -3.177  -0.896  24.599  0.00  0.00    +0.198 C 
BRANCH   5   3
ATOM      3  C   UNL     1      -3.669  -1.230  24.028  0.00  0.00    +0.337 C 
ATOM      4  O   UNL     1      -3.619  -0.980  23.242  0.00  0.00    -0.248 OA
BRANCH   3   2
ATOM      1  C   UNL     1      -4.594  -2.254  23.656  0.00  0.00    +0.256 C 
ATOM      2  O   UNL     1      -4.211  -1.814  24.240  0.00  0.00    -0.443 OA
ENDBRANCH   3   2
ENDBRANCH   5   3
BRANCH   5   6
ATOM      6  C   UNL     1      -2.846  -1.371  25.186  0.00  0.00    +0.061 C 
BRANCH   6   7
ATOM      7  C   UNL     1      -2.049  -1.582  25.146  0.00  0.00    -0.001 A 
ATOM      8  C   UNL     1      -1.509  -1.255  25.677  0.00  0.00    -0.001 A 
ATOM      9  C   UNL     1      -0.713  -1.467  25.637  0.00  0.00    +0.020 A 
ATOM     10  C   UNL     1      -0.456  -2.004  25.065  0.00  0.00    +0.099 A 
ATOM     11  N   UNL     1      -0.997  -2.330  24.534  0.00  0.00    -0.243 NA
ATOM     12  C   UNL     1      -1.794  -2.119  24.575  0.00  0.00    +0.095 A 
ENDBRANCH   6   7
ENDBRANCH   5   6
ENDBRANCH  13   5
ENDBRANCH  16  14
BRANCH  24  25
ATOM     25  C   UNL     1      -5.155   2.868  24.886  0.00  0.00    +0.097 C 
ATOM     26  C   UNL     1      -5.224   3.315  25.576  0.00  0.00    +0.023 C 
ATOM     27  C   UNL     1      -4.926   3.229  24.181  0.00  0.00    +0.023 C 
ENDBRANCH  24  25
TORSDOF 8
ENDMDL
