MODEL 1
REMARK VINA RESULT:     -10.5      0.000      0.000
REMARK  Name = 
REMARK  4 active torsions:
REMARK  status: ('A' for Active; 'I' for Inactive)
REMARK    1  A    between atoms: N_5  and  C_8
REMARK    2  A    between atoms: C_14  and  N_15
REMARK    3  A    between atoms: N_15  and  C_16
REMARK    4  A    between atoms: C_16  and  C_17
REMARK                            x       y       z     vdW  Elec       q    Type
REMARK                         _______ _______ _______ _____ _____    ______ ____
ROOT
ATOM      8  C   UNL     1      -4.402   1.353  24.854  0.00  0.00    +0.147 C 
ATOM      9  C   UNL     1      -5.178   1.936  24.871  0.00  0.00    +0.253 C 
ATOM     10  O   UNL     1      -5.169   2.816  24.805  0.00  0.00    -0.327 OA
ATOM     11  C   UNL     1      -4.898   2.144  24.834  0.00  0.00    +0.176 C 
ATOM     12  C   UNL     1      -5.064   1.387  24.902  0.00  0.00    +0.166 C 
ATOM     13  O   UNL     1      -5.774   1.373  24.957  0.00  0.00    -0.328 OA
ATOM     14  C   UNL     1      -4.331   0.817  24.888  0.00  0.00    +0.135 C 
ATOM     23  C   UNL     1      -3.733   1.385  24.801  0.00  0.00    +0.190 C 
ATOM     24  O   UNL     1      -2.978   1.707  24.720  0.00  0.00    -0.220 OA
ENDROOT
BRANCH   8   5
ATOM      1  C   UNL     1      -3.447   4.498  24.550  0.00  0.00    +0.090 C 
ATOM      2  N   UNL     1      -3.686   3.711  24.627  0.00  0.00    -0.269 NA
ATOM      3  C   UNL     1      -3.845   3.262  23.954  0.00  0.00    +0.090 C 
ATOM      4  C   UNL     1      -4.084   2.476  24.030  0.00  0.00    +0.090 C 
ATOM      5  N   UNL     1      -4.163   2.139  24.778  0.00  0.00    -0.265 NA
ATOM      6  C   UNL     1      -4.003   2.589  25.452  0.00  0.00    +0.090 C 
ATOM      7  C   UNL     1      -3.764   3.375  25.376  0.00  0.00    +0.090 C 
ENDBRANCH   8   5
BRANCH  14  15
ATOM     15  N   UNL     1      -4.287  -0.005  24.945  0.00  0.00    -0.209 NA
BRANCH  15  16
ATOM     16  C   UNL     1      -3.838  -0.433  24.401  0.00  0.00    +0.115 C 
BRANCH  16  17
ATOM     17  C   UNL     1      -3.814  -1.256  24.443  0.00  0.00    -0.002 A 
ATOM     18  C   UNL     1      -4.189  -1.710  23.864  0.00  0.00    +0.018 A 
ATOM     19  C   UNL     1      -4.165  -2.534  23.906  0.00  0.00    +0.099 A 
ATOM     20  N   UNL     1      -3.767  -2.903  24.526  0.00  0.00    -0.242 NA
ATOM     21  C   UNL     1      -3.392  -2.450  25.105  0.00  0.00    +0.099 A 
ATOM     22  C   UNL     1      -3.416  -1.627  25.063  0.00  0.00    +0.018 A 
ENDBRANCH  16  17
ENDBRANCH  15  16
ENDBRANCH  14  15
TORSDOF 4
ENDMDL
MODEL 2
REMARK VINA RESULT:      -9.6      1.425      4.251
REMARK  Name = 
REMARK  4 active torsions:
REMARK  status: ('A' for Active; 'I' for Inactive)
REMARK    1  A    between atoms: N_5  and  C_8
REMARK    2  A    between atoms: C_14  and  N_15
REMARK    3  A    between atoms: N_15  and  C_16
REMARK    4  A    between atoms: C_16  and  C_17
REMARK                            x       y       z     vdW  Elec       q    Type
REMARK                         _______ _______ _______ _____ _____    ______ ____
ROOT
ATOM      8  C   UNL     1      -3.477   1.303  24.639  0.00  0.00    +0.147 C 
ATOM      9  C   UNL     1      -4.418   1.081  24.726  0.00  0.00    +0.253 C 
ATOM     10  O   UNL     1      -4.762   0.268  24.738  0.00  0.00    -0.327 OA
ATOM     11  C   UNL     1      -4.246   0.777  24.700  0.00  0.00    +0.176 C 
ATOM     12  C   UNL     1      -4.095   1.540  24.707  0.00  0.00    +0.166 C 
ATOM     13  O   UNL     1      -4.737   1.840  24.779  0.00  0.00    -0.328 OA
ATOM     14  C   UNL     1      -3.198   1.766  24.624  0.00  0.00    +0.135 C 
ATOM     23  C   UNL     1      -2.880   1.003  24.571  0.00  0.00    +0.190 C 
ATOM     24  O   UNL     1      -2.320   0.401  24.499  0.00  0.00    -0.220 OA
ENDROOT
BRANCH   8   5
ATOM      1  C   UNL     1      -3.865  -1.974  24.585  0.00  0.00    +0.090 C 
ATOM      2  N   UNL     1      -3.768  -1.155  24.599  0.00  0.00    -0.269 NA
ATOM      3  C   UNL     1      -3.790  -0.726  23.895  0.00  0.00    +0.090 C 
ATOM      4  C   UNL     1      -3.693   0.093  23.908  0.00  0.00    +0.090 C 
ATOM      5  N   UNL     1      -3.574   0.483  24.625  0.00  0.00    -0.265 NA
ATOM      6  C   UNL     1      -3.552   0.053  25.330  0.00  0.00    +0.090 C 
ATOM      7  C   UNL     1      -3.649  -0.766  25.316  0.00  0.00    +0.090 C 
ENDBRANCH   8   5
BRANCH  14  15
ATOM     15  N   UNL     1      -2.828   2.505  24.608  0.00  0.00    -0.209 NA
BRANCH  15  16
ATOM     16  C   UNL     1      -2.330   2.730  25.226  0.00  0.00    +0.115 C 
BRANCH  16  17
ATOM     17  C   UNL     1      -1.931   3.451  25.191  0.00  0.00    -0.002 A 
ATOM     18  C   UNL     1      -2.315   4.147  25.412  0.00  0.00    +0.018 A 
ATOM     19  C   UNL     1      -1.916   4.868  25.377  0.00  0.00    +0.099 A 
ATOM     20  N   UNL     1      -1.132   4.892  25.122  0.00  0.00    -0.242 NA
ATOM     21  C   UNL     1      -0.747   4.196  24.902  0.00  0.00    +0.099 A 
ATOM     22  C   UNL     1      -1.147   3.476  24.937  0.00  0.00    +0.018 A 
ENDBRANCH  16  17
ENDBRANCH  15  16
ENDBRANCH  14  15
TORSDOF 4
ENDMDL
