MODEL 1
REMARK VINA RESULT:      -9.6      0.000      0.000
REMARK  Name = 
REMARK  5 active torsions:
REMARK  status: ('A' for Active; 'I' for Inactive)
REMARK    1  A    between atoms: O_2  and  C_3
REMARK    2  A    between atoms: C_6  and  C_11
REMARK    3  A    between atoms: C_8  and  O_9
REMARK    4  A    between atoms: C_16  and  C_18
REMARK    5  A    between atoms: C_21  and  C_23
REMARK                            x       y       z     vdW  Elec       q    Type
REMARK                         _______ _______ _______ _____ _____    ______ ____
ROOT
ATOM     11  C   UNL     1      -1.015   2.308  25.724  0.00  0.00    +0.249 C 
ATOM     12  O   UNL     1      -0.537   2.076  26.356  0.00  0.00    -0.270 OA
ATOM     13  N   UNL     1      -1.384   1.739  25.254  0.00  0.00    -0.276 N 
ATOM     14  C   UNL     1      -1.874   1.889  24.608  0.00  0.00    +0.094 C 
ATOM     15  C   UNL     1      -2.120   1.162  24.303  0.00  0.00    +0.033 C 
ATOM     16  C   UNL     1      -1.781   0.565  24.760  0.00  0.00    +0.100 C 
ATOM     17  C   UNL     1      -1.326   0.922  25.348  0.00  0.00    +0.103 C 
ENDROOT
BRANCH  11   6
ATOM      3  C   UNL     1      -1.343   4.714  25.241  0.00  0.00    +0.172 A 
ATOM      4  C   UNL     1      -0.684   4.319  24.940  0.00  0.00    +0.040 A 
ATOM      5  C   UNL     1      -0.575   3.516  25.101  0.00  0.00    +0.008 A 
ATOM      6  C   UNL     1      -1.124   3.111  25.563  0.00  0.00    +0.057 A 
ATOM      7  C   UNL     1      -1.783   3.506  25.865  0.00  0.00    +0.045 A 
ATOM      8  C   UNL     1      -1.892   4.307  25.704  0.00  0.00    +0.173 A 
BRANCH   3   2
ATOM      1  C   UNL     1      -0.914   5.916  24.598  0.00  0.00    +0.253 C 
ATOM      2  O   UNL     1      -1.451   5.515  25.080  0.00  0.00    -0.468 OA
ENDBRANCH   3   2
BRANCH   8   9
ATOM      9  O   UNL     1      -2.551   4.703  26.006  0.00  0.00    -0.468 OA
ATOM     10  C   UNL     1      -3.188   4.273  26.305  0.00  0.00    +0.253 C 
ENDBRANCH   8   9
ENDBRANCH  11   6
BRANCH  16  18
ATOM     18  C   UNL     1      -1.880  -0.246  24.649  0.00  0.00    +0.228 A 
ATOM     19  N   UNL     1      -1.275  -0.804  24.586  0.00  0.00    -0.111 NA
ATOM     20  N   UNL     1      -1.621  -1.545  24.479  0.00  0.00    -0.107 NA
ATOM     21  C   UNL     1      -2.440  -1.445  24.476  0.00  0.00    +0.251 A 
ATOM     22  O   UNL     1      -2.600  -0.642  24.581  0.00  0.00    -0.419 OA
BRANCH  21  23
ATOM     23  C   UNL     1      -3.002  -2.043  24.384  0.00  0.00    +0.074 A 
ATOM     24  C   UNL     1      -2.862  -2.792  24.701  0.00  0.00    +0.104 A 
ATOM     25  N   UNL     1      -3.423  -3.390  24.610  0.00  0.00    -0.242 NA
ATOM     26  C   UNL     1      -4.123  -3.239  24.200  0.00  0.00    +0.099 A 
ATOM     27  C   UNL     1      -4.262  -2.490  23.883  0.00  0.00    +0.021 A 
ATOM     28  C   UNL     1      -3.702  -1.893  23.975  0.00  0.00    +0.008 A 
ENDBRANCH  21  23
ENDBRANCH  16  18
TORSDOF 5
ENDMDL
MODEL 2
REMARK VINA RESULT:      -9.4      2.712      4.085
REMARK  Name = 
REMARK  5 active torsions:
REMARK  status: ('A' for Active; 'I' for Inactive)
REMARK    1  A    between atoms: O_2  and  C_3
REMARK    2  A    between atoms: C_6  and  C_11
REMARK    3  A    between atoms: C_8  and  O_9
REMARK    4  A    between atoms: C_16  and  C_18
REMARK    5  A    between atoms: C_21  and  C_23
REMARK                            x       y       z     vdW  Elec       q    Type
REMARK                         _______ _______ _______ _____ _____    ______ ____
ROOT
ATOM     11  C   UNL     1      -3.036   1.972  23.891  0.00  0.00    +0.249 C 
ATOM     12  O   UNL     1      -2.987   2.299  23.135  0.00  0.00    -0.270 OA
ATOM     13  N   UNL     1      -2.464   1.437  24.148  0.00  0.00    -0.276 N 
ATOM     14  C   UNL     1      -2.443   1.068  24.885  0.00  0.00    +0.094 C 
ATOM     15  C   UNL     1      -1.778   0.579  24.906  0.00  0.00    +0.033 C 
ATOM     16  C   UNL     1      -1.389   0.646  24.181  0.00  0.00    +0.100 C 
ATOM     17  C   UNL     1      -1.814   1.177  23.713  0.00  0.00    +0.103 C 
ENDROOT
BRANCH  11   6
ATOM      3  C   UNL     1      -4.905   2.601  25.388  0.00  0.00    +0.172 A 
ATOM      4  C   UNL     1      -4.956   1.917  24.929  0.00  0.00    +0.040 A 
ATOM      5  C   UNL     1      -4.333   1.707  24.430  0.00  0.00    +0.008 A 
ATOM      6  C   UNL     1      -3.659   2.182  24.390  0.00  0.00    +0.057 A 
ATOM      7  C   UNL     1      -3.609   2.866  24.848  0.00  0.00    +0.045 A 
ATOM      8  C   UNL     1      -4.231   3.075  25.347  0.00  0.00    +0.173 A 
BRANCH   3   2
ATOM      1  C   UNL     1      -6.170   2.300  25.981  0.00  0.00    +0.253 C 
ATOM      2  O   UNL     1      -5.527   2.811  25.886  0.00  0.00    -0.468 OA
ENDBRANCH   3   2
BRANCH   8   9
ATOM      9  O   UNL     1      -4.180   3.760  25.806  0.00  0.00    -0.468 OA
ATOM     10  C   UNL     1      -3.442   4.085  25.980  0.00  0.00    +0.253 C 
ENDBRANCH   8   9
ENDBRANCH  11   6
BRANCH  16  18
ATOM     18  C   UNL     1      -0.698   0.253  23.963  0.00  0.00    +0.228 A 
ATOM     19  N   UNL     1      -0.514  -0.534  24.133  0.00  0.00    -0.111 NA
ATOM     20  N   UNL     1       0.228  -0.697  23.812  0.00  0.00    -0.107 NA
ATOM     21  C   UNL     1       0.503  -0.011  23.444  0.00  0.00    +0.251 A 
ATOM     22  O   UNL     1      -0.070   0.576  23.537  0.00  0.00    -0.419 OA
BRANCH  21  23
ATOM     23  C   UNL     1       1.224   0.073  23.051  0.00  0.00    +0.074 A 
ATOM     24  C   UNL     1       1.339  -0.289  22.318  0.00  0.00    +0.104 A 
ATOM     25  N   UNL     1       2.060  -0.204  21.926  0.00  0.00    -0.242 NA
ATOM     26  C   UNL     1       2.665   0.242  22.265  0.00  0.00    +0.099 A 
ATOM     27  C   UNL     1       2.549   0.604  22.997  0.00  0.00    +0.021 A 
ATOM     28  C   UNL     1       1.829   0.520  23.390  0.00  0.00    +0.008 A 
ENDBRANCH  21  23
ENDBRANCH  16  18
TORSDOF 5
ENDMDL
MODEL 3
REMARK VINA RESULT:      -9.3      1.768      6.203
REMARK  Name = 
REMARK  5 active torsions:
REMARK  status: ('A' for Active; 'I' for Inactive)
REMARK    1  A    between atoms: O_2  and  C_3
REMARK    2  A    between atoms: C_6  and  C_11
REMARK    3  A    between atoms: C_8  and  O_9
REMARK    4  A    between atoms: C_16  and  C_18
REMARK    5  A    between atoms: C_21  and  C_23
REMARK                            x       y       z     vdW  Elec       q    Type
REMARK                         _______ _______ _______ _____ _____    ______ ____
ROOT
ATOM     11  C   UNL     1      -3.774  -0.317  25.192  0.00  0.00    +0.249 C 
ATOM     12  O   UNL     1      -4.044  -0.252  25.969  0.00  0.00    -0.270 OA
ATOM     13  N   UNL     1      -3.518   0.353  24.786  0.00  0.00    -0.276 N 
ATOM     14  C   UNL     1      -3.235   0.371  24.011  0.00  0.00    +0.094 C 
ATOM     15  C   UNL     1      -3.042   1.153  23.830  0.00  0.00    +0.033 C 
ATOM     16  C   UNL     1      -3.206   1.617  24.492  0.00  0.00    +0.100 C 
ATOM     17  C   UNL     1      -3.500   1.122  25.083  0.00  0.00    +0.103 C 
ENDROOT
BRANCH  11   6
ATOM      3  C   UNL     1      -3.734  -2.529  24.081  0.00  0.00    +0.172 A 
ATOM      4  C   UNL     1      -4.371  -2.019  23.961  0.00  0.00    +0.040 A 
ATOM      5  C   UNL     1      -4.384  -1.281  24.331  0.00  0.00    +0.008 A 
ATOM      6  C   UNL     1      -3.761  -1.055  24.822  0.00  0.00    +0.057 A 
ATOM      7  C   UNL     1      -3.124  -1.566  24.942  0.00  0.00    +0.045 A 
ATOM      8  C   UNL     1      -3.111  -2.302  24.572  0.00  0.00    +0.173 A 
BRANCH   3   2
ATOM      1  C   UNL     1      -4.391  -3.539  23.312  0.00  0.00    +0.253 C 
ATOM      2  O   UNL     1      -3.721  -3.266  23.711  0.00  0.00    -0.468 OA
ENDBRANCH   3   2
BRANCH   8   9
ATOM      9  O   UNL     1      -2.473  -2.813  24.692  0.00  0.00    -0.468 OA
ATOM     10  C   UNL     1      -1.711  -2.508  24.780  0.00  0.00    +0.253 C 
ENDBRANCH   8   9
ENDBRANCH  11   6
BRANCH  16  18
ATOM     18  C   UNL     1      -3.095   2.432  24.553  0.00  0.00    +0.228 A 
ATOM     19  N   UNL     1      -3.682   3.008  24.484  0.00  0.00    -0.111 NA
ATOM     20  N   UNL     1      -3.328   3.746  24.582  0.00  0.00    -0.107 NA
ATOM     21  C   UNL     1      -2.522   3.627  24.711  0.00  0.00    +0.251 A 
ATOM     22  O   UNL     1      -2.378   2.815  24.693  0.00  0.00    -0.419 OA
BRANCH  21  23
ATOM     23  C   UNL     1      -1.958   4.217  24.836  0.00  0.00    +0.074 A 
ATOM     24  C   UNL     1      -2.195   4.966  25.087  0.00  0.00    +0.104 A 
ATOM     25  N   UNL     1      -1.631   5.556  25.212  0.00  0.00    -0.242 NA
ATOM     26  C   UNL     1      -0.832   5.396  25.086  0.00  0.00    +0.099 A 
ATOM     27  C   UNL     1      -0.596   4.647  24.834  0.00  0.00    +0.021 A 
ATOM     28  C   UNL     1      -1.159   4.057  24.709  0.00  0.00    +0.008 A 
ENDBRANCH  21  23
ENDBRANCH  16  18
TORSDOF 5
ENDMDL
MODEL 4
REMARK VINA RESULT:      -8.3      3.467      5.703
REMARK  Name = 
REMARK  5 active torsions:
REMARK  status: ('A' for Active; 'I' for Inactive)
REMARK    1  A    between atoms: O_2  and  C_3
REMARK    2  A    between atoms: C_6  and  C_11
REMARK    3  A    between atoms: C_8  and  O_9
REMARK    4  A    between atoms: C_16  and  C_18
REMARK    5  A    between atoms: C_21  and  C_23
REMARK                            x       y       z     vdW  Elec       q    Type
REMARK                         _______ _______ _______ _____ _____    ______ ____
ROOT
ATOM     11  C   UNL     1      -0.950  -0.998  24.778  0.00  0.00    +0.249 C 
ATOM     12  O   UNL     1      -0.561  -1.559  25.240  0.00  0.00    -0.270 OA
ATOM     13  N   UNL     1      -0.543  -0.598  24.183  0.00  0.00    -0.276 N 
ATOM     14  C   UNL     1      -0.859  -0.026  23.680  0.00  0.00    +0.094 C 
ATOM     15  C   UNL     1      -0.259   0.225  23.172  0.00  0.00    +0.033 C 
ATOM     16  C   UNL     1       0.427  -0.192  23.361  0.00  0.00    +0.100 C 
ATOM     17  C   UNL     1       0.251  -0.702  23.986  0.00  0.00    +0.103 C 
ENDROOT
BRANCH  11   6
ATOM      3  C   UNL     1      -3.344  -0.512  25.181  0.00  0.00    +0.172 A 
ATOM      4  C   UNL     1      -2.768   0.027  25.421  0.00  0.00    +0.040 A 
ATOM      5  C   UNL     1      -1.970  -0.135  25.287  0.00  0.00    +0.008 A 
ATOM      6  C   UNL     1      -1.749  -0.836  24.913  0.00  0.00    +0.057 A 
ATOM      7  C   UNL     1      -2.325  -1.375  24.673  0.00  0.00    +0.045 A 
ATOM      8  C   UNL     1      -3.122  -1.213  24.807  0.00  0.00    +0.173 A 
BRANCH   3   2
ATOM      1  C   UNL     1      -4.410   0.431  25.316  0.00  0.00    +0.253 C 
ATOM      2  O   UNL     1      -4.141  -0.350  25.315  0.00  0.00    -0.468 OA
ENDBRANCH   3   2
BRANCH   8   9
ATOM      9  O   UNL     1      -3.699  -1.753  24.567  0.00  0.00    -0.468 OA
ATOM     10  C   UNL     1      -3.502  -2.548  24.462  0.00  0.00    +0.253 C 
ENDBRANCH   8   9
ENDBRANCH  11   6
BRANCH  16  18
ATOM     18  C   UNL     1       1.159  -0.115  22.990  0.00  0.00    +0.228 A 
ATOM     19  N   UNL     1       1.309  -0.220  22.186  0.00  0.00    -0.111 NA
ATOM     20  N   UNL     1       2.113  -0.089  22.057  0.00  0.00    -0.107 NA
ATOM     21  C   UNL     1       2.461   0.098  22.782  0.00  0.00    +0.251 A 
ATOM     22  O   UNL     1       1.871   0.081  23.359  0.00  0.00    -0.419 OA
BRANCH  21  23
ATOM     23  C   UNL     1       3.258   0.270  22.908  0.00  0.00    +0.074 A 
ATOM     24  C   UNL     1       3.535   1.040  22.804  0.00  0.00    +0.104 A 
ATOM     25  N   UNL     1       4.332   1.212  22.931  0.00  0.00    -0.242 NA
ATOM     26  C   UNL     1       4.852   0.614  23.160  0.00  0.00    +0.099 A 
ATOM     27  C   UNL     1       4.574  -0.156  23.264  0.00  0.00    +0.021 A 
ATOM     28  C   UNL     1       3.778  -0.328  23.138  0.00  0.00    +0.008 A 
ENDBRANCH  21  23
ENDBRANCH  16  18
TORSDOF 5
ENDMDL
MODEL 5
REMARK VINA RESULT:      -7.9      2.877      4.666
REMARK  Name = 
REMARK  5 active torsions:
REMARK  status: ('A' for Active; 'I' for Inactive)
REMARK    1  A    between atoms: O_2  and  C_3
REMARK    2  A    between atoms: C_6  and  C_11
REMARK    3  A    between atoms: C_8  and  O_9
REMARK    4  A    between atoms: C_16  and  C_18
REMARK    5  A    between atoms: C_21  and  C_23
REMARK                            x       y       z     vdW  Elec       q    Type
REMARK                         _______ _______ _______ _____ _____    ______ ____
ROOT
ATOM     11  C   UNL     1      -0.414   1.477  24.627  0.00  0.00    +0.249 C 
ATOM     12  O   UNL     1      -0.229   1.676  25.406  0.00  0.00    -0.270 OA
ATOM     13  N   UNL     1      -1.152   1.674  24.315  0.00  0.00    -0.276 N 
ATOM     14  C   UNL     1      -1.412   1.512  23.549  0.00  0.00    +0.094 C 
ATOM     15  C   UNL     1      -2.180   1.806  23.474  0.00  0.00    +0.033 C 
ATOM     16  C   UNL     1      -2.393   2.149  24.193  0.00  0.00    +0.100 C 
ATOM     17  C   UNL     1      -1.757   2.068  24.713  0.00  0.00    +0.103 C 
ENDROOT
BRANCH  11   6
ATOM      3  C   UNL     1       1.247   0.290  23.228  0.00  0.00    +0.172 A 
ATOM      4  C   UNL     1       1.314   1.103  23.346  0.00  0.00    +0.040 A 
ATOM      5  C   UNL     1       0.760   1.499  23.813  0.00  0.00    +0.008 A 
ATOM      6  C   UNL     1       0.140   1.081  24.161  0.00  0.00    +0.057 A 
ATOM      7  C   UNL     1       0.073   0.267  24.042  0.00  0.00    +0.045 A 
ATOM      8  C   UNL     1       0.626  -0.128  23.576  0.00  0.00    +0.173 A 
BRANCH   3   2
ATOM      1  C   UNL     1       2.491   0.280  22.524  0.00  0.00    +0.253 C 
ATOM      2  O   UNL     1       1.800  -0.106  22.761  0.00  0.00    -0.468 OA
ENDBRANCH   3   2
BRANCH   8   9
ATOM      9  O   UNL     1       0.559  -0.943  23.457  0.00  0.00    -0.468 OA
ATOM     10  C   UNL     1       0.046  -1.387  23.927  0.00  0.00    +0.253 C 
ENDBRANCH   8   9
ENDBRANCH  11   6
BRANCH  16  18
ATOM     18  C   UNL     1      -3.114   2.510  24.363  0.00  0.00    +0.228 A 
ATOM     19  N   UNL     1      -3.334   3.277  24.152  0.00  0.00    -0.111 NA
ATOM     20  N   UNL     1      -4.099   3.410  24.432  0.00  0.00    -0.107 NA
ATOM     21  C   UNL     1      -4.352   2.725  24.817  0.00  0.00    +0.251 A 
ATOM     22  O   UNL     1      -3.743   2.169  24.774  0.00  0.00    -0.419 OA
BRANCH  21  23
ATOM     23  C   UNL     1      -5.084   2.614  25.180  0.00  0.00    +0.074 A 
ATOM     24  C   UNL     1      -5.329   3.128  25.778  0.00  0.00    +0.104 A 
ATOM     25  N   UNL     1      -6.062   3.017  26.141  0.00  0.00    -0.242 NA
ATOM     26  C   UNL     1      -6.549   2.394  25.907  0.00  0.00    +0.099 A 
ATOM     27  C   UNL     1      -6.304   1.881  25.309  0.00  0.00    +0.021 A 
ATOM     28  C   UNL     1      -5.572   1.991  24.946  0.00  0.00    +0.008 A 
ENDBRANCH  21  23
ENDBRANCH  16  18
TORSDOF 5
ENDMDL
MODEL 6
REMARK VINA RESULT:      -6.0     14.506     16.959
REMARK  Name = 
REMARK  5 active torsions:
REMARK  status: ('A' for Active; 'I' for Inactive)
REMARK    1  A    between atoms: O_2  and  C_3
REMARK    2  A    between atoms: C_6  and  C_11
REMARK    3  A    between atoms: C_8  and  O_9
REMARK    4  A    between atoms: C_16  and  C_18
REMARK    5  A    between atoms: C_21  and  C_23
REMARK                            x       y       z     vdW  Elec       q    Type
REMARK                         _______ _______ _______ _____ _____    ______ ____
ROOT
ATOM     11  C   UNL     1      -4.388 -10.215  12.219  0.00  0.00    +0.249 C 
ATOM     12  O   UNL     1      -3.567 -10.233  12.149  0.00  0.00    -0.270 OA
ATOM     13  N   UNL     1      -4.742 -10.289  12.960  0.00  0.00    -0.276 N 
ATOM     14  C   UNL     1      -5.553 -10.281  13.113  0.00  0.00    +0.094 C 
ATOM     15  C   UNL     1      -5.659 -10.370  13.926  0.00  0.00    +0.033 C 
ATOM     16  C   UNL     1      -4.915 -10.434  14.275  0.00  0.00    +0.100 C 
ATOM     17  C   UNL     1      -4.348 -10.383  13.677  0.00  0.00    +0.103 C 
ENDROOT
BRANCH  11   6
ATOM      3  C   UNL     1      -5.793  -9.941  10.198  0.00  0.00    +0.172 A 
ATOM      4  C   UNL     1      -5.686 -10.690  10.528  0.00  0.00    +0.040 A 
ATOM      5  C   UNL     1      -5.217 -10.781  11.201  0.00  0.00    +0.008 A 
ATOM      6  C   UNL     1      -4.857 -10.124  11.545  0.00  0.00    +0.057 A 
ATOM      7  C   UNL     1      -4.964  -9.375  11.215  0.00  0.00    +0.045 A 
ATOM      8  C   UNL     1      -5.431  -9.284  10.543  0.00  0.00    +0.173 A 
BRANCH   3   2
ATOM      1  C   UNL     1      -6.657 -10.500   9.207  0.00  0.00    +0.253 C 
ATOM      2  O   UNL     1      -6.260  -9.850   9.525  0.00  0.00    -0.468 OA
ENDBRANCH   3   2
BRANCH   8   9
ATOM      9  O   UNL     1      -5.539  -8.534  10.213  0.00  0.00    -0.468 OA
ATOM     10  C   UNL     1      -5.015  -7.924  10.399  0.00  0.00    +0.253 C 
ENDBRANCH   8   9
ENDBRANCH  11   6
BRANCH  16  18
ATOM     18  C   UNL     1      -4.763 -10.530  15.080  0.00  0.00    +0.228 A 
ATOM     19  N   UNL     1      -4.032 -10.714  15.417  0.00  0.00    -0.111 NA
ATOM     20  N   UNL     1      -4.132 -10.757  16.235  0.00  0.00    -0.107 NA
ATOM     21  C   UNL     1      -4.925 -10.601  16.403  0.00  0.00    +0.251 A 
ATOM     22  O   UNL     1      -5.314 -10.461  15.690  0.00  0.00    -0.419 OA
BRANCH  21  23
ATOM     23  C   UNL     1      -5.268 -10.588  17.154  0.00  0.00    +0.074 A 
ATOM     24  C   UNL     1      -6.070 -10.415  17.237  0.00  0.00    +0.104 A 
ATOM     25  N   UNL     1      -6.413 -10.402  17.988  0.00  0.00    -0.242 NA
ATOM     26  C   UNL     1      -5.953 -10.561  18.654  0.00  0.00    +0.099 A 
ATOM     27  C   UNL     1      -5.151 -10.734  18.570  0.00  0.00    +0.021 A 
ATOM     28  C   UNL     1      -4.808 -10.747  17.820  0.00  0.00    +0.008 A 
ENDBRANCH  21  23
ENDBRANCH  16  18
TORSDOF 5
ENDMDL
MODEL 7
REMARK VINA RESULT:      -5.7     17.958     19.577
REMARK  Name = 
REMARK  5 active torsions:
REMARK  status: ('A' for Active; 'I' for Inactive)
REMARK    1  A    between atoms: O_2  and  C_3
REMARK    2  A    between atoms: C_6  and  C_11
REMARK    3  A    between atoms: C_8  and  O_9
REMARK    4  A    between atoms: C_16  and  C_18
REMARK    5  A    between atoms: C_21  and  C_23
REMARK                            x       y       z     vdW  Elec       q    Type
REMARK                         _______ _______ _______ _____ _____    ______ ____
ROOT
ATOM     11  C   UNL     1      13.700  -6.455  30.217  0.00  0.00    +0.249 C 
ATOM     12  O   UNL     1      13.909  -6.639  29.441  0.00  0.00    -0.270 OA
ATOM     13  N   UNL     1      14.083  -5.842  30.614  0.00  0.00    -0.276 N 
ATOM     14  C   UNL     1      13.933  -5.597  31.388  0.00  0.00    +0.094 C 
ATOM     15  C   UNL     1      14.441  -4.970  31.559  0.00  0.00    +0.033 C 
ATOM     16  C   UNL     1      14.904  -4.827  30.891  0.00  0.00    +0.100 C 
ATOM     17  C   UNL     1      14.682  -5.366  30.307  0.00  0.00    +0.103 C 
ENDROOT
BRANCH  11   6
ATOM      3  C   UNL     1      11.922  -7.747  31.357  0.00  0.00    +0.172 A 
ATOM      4  C   UNL     1      11.748  -7.015  31.020  0.00  0.00    +0.040 A 
ATOM      5  C   UNL     1      12.341  -6.584  30.640  0.00  0.00    +0.008 A 
ATOM      6  C   UNL     1      13.107  -6.886  30.598  0.00  0.00    +0.057 A 
ATOM      7  C   UNL     1      13.281  -7.619  30.935  0.00  0.00    +0.045 A 
ATOM      8  C   UNL     1      12.689  -8.049  31.314  0.00  0.00    +0.173 A 
BRANCH   3   2
ATOM      1  C   UNL     1      10.625  -7.806  31.954  0.00  0.00    +0.253 C 
ATOM      2  O   UNL     1      11.330  -8.177  31.737  0.00  0.00    -0.468 OA
ENDBRANCH   3   2
BRANCH   8   9
ATOM      9  O   UNL     1      12.864  -8.782  31.652  0.00  0.00    -0.468 OA
ATOM     10  C   UNL     1      13.486  -9.235  31.355  0.00  0.00    +0.253 C 
ENDBRANCH   8   9
ENDBRANCH  11   6
BRANCH  16  18
ATOM     18  C   UNL     1      15.485  -4.247  30.819  0.00  0.00    +0.228 A 
ATOM     19  N   UNL     1      16.162  -4.294  30.348  0.00  0.00    -0.111 NA
ATOM     20  N   UNL     1      16.588  -3.594  30.443  0.00  0.00    -0.107 NA
ATOM     21  C   UNL     1      16.175  -3.114  30.972  0.00  0.00    +0.251 A 
ATOM     22  O   UNL     1      15.493  -3.517  31.204  0.00  0.00    -0.419 OA
BRANCH  21  23
ATOM     23  C   UNL     1      16.403  -2.362  31.224  0.00  0.00    +0.074 A 
ATOM     24  C   UNL     1      16.438  -2.191  32.030  0.00  0.00    +0.104 A 
ATOM     25  N   UNL     1      16.667  -1.439  32.283  0.00  0.00    -0.242 NA
ATOM     26  C   UNL     1      16.860  -0.859  31.729  0.00  0.00    +0.099 A 
ATOM     27  C   UNL     1      16.824  -1.031  30.922  0.00  0.00    +0.021 A 
ATOM     28  C   UNL     1      16.596  -1.782  30.670  0.00  0.00    +0.008 A 
ENDBRANCH  21  23
ENDBRANCH  16  18
TORSDOF 5
ENDMDL
MODEL 8
REMARK VINA RESULT:      -5.7     16.226     18.385
REMARK  Name = 
REMARK  5 active torsions:
REMARK  status: ('A' for Active; 'I' for Inactive)
REMARK    1  A    between atoms: O_2  and  C_3
REMARK    2  A    between atoms: C_6  and  C_11
REMARK    3  A    between atoms: C_8  and  O_9
REMARK    4  A    between atoms: C_16  and  C_18
REMARK    5  A    between atoms: C_21  and  C_23
REMARK                            x       y       z     vdW  Elec       q    Type
REMARK                         _______ _______ _______ _____ _____    ______ ____
ROOT
ATOM     11  C   UNL     1      -5.797  -9.530   9.711  0.00  0.00    +0.249 C 
ATOM     12  O   UNL     1      -5.301 -10.020   9.270  0.00  0.00    -0.270 OA
ATOM     13  N   UNL     1      -5.743  -9.521  10.534  0.00  0.00    -0.276 N 
ATOM     14  C   UNL     1      -6.200  -9.061  11.044  0.00  0.00    +0.094 C 
ATOM     15  C   UNL     1      -5.962  -9.226  11.817  0.00  0.00    +0.033 C 
ATOM     16  C   UNL     1      -5.358  -9.787  11.783  0.00  0.00    +0.100 C 
ATOM     17  C   UNL     1      -5.223  -9.969  10.990  0.00  0.00    +0.103 C 
ENDROOT
BRANCH  11   6
ATOM      3  C   UNL     1      -7.446  -8.084   8.562  0.00  0.00    +0.172 A 
ATOM      4  C   UNL     1      -6.752  -7.757   8.866  0.00  0.00    +0.040 A 
ATOM      5  C   UNL     1      -6.202  -8.239   9.249  0.00  0.00    +0.008 A 
ATOM      6  C   UNL     1      -6.347  -9.048   9.327  0.00  0.00    +0.057 A 
ATOM      7  C   UNL     1      -7.040  -9.374   9.023  0.00  0.00    +0.045 A 
ATOM      8  C   UNL     1      -7.589  -8.893   8.640  0.00  0.00    +0.173 A 
BRANCH   3   2
ATOM      1  C   UNL     1      -7.863  -6.789   8.124  0.00  0.00    +0.253 C 
ATOM      2  O   UNL     1      -7.995  -7.603   8.179  0.00  0.00    -0.468 OA
ENDBRANCH   3   2
BRANCH   8   9
ATOM      9  O   UNL     1      -8.284  -9.220   8.336  0.00  0.00    -0.468 OA
ATOM     10  C   UNL     1      -8.693  -9.793   8.766  0.00  0.00    +0.253 C 
ENDBRANCH   8   9
ENDBRANCH  11   6
BRANCH  16  18
ATOM     18  C   UNL     1      -4.960 -10.110  12.429  0.00  0.00    +0.228 A 
ATOM     19  N   UNL     1      -5.294 -10.581  13.019  0.00  0.00    -0.111 NA
ATOM     20  N   UNL     1      -4.698 -10.781  13.553  0.00  0.00    -0.107 NA
ATOM     21  C   UNL     1      -3.996 -10.433  13.295  0.00  0.00    +0.251 A 
ATOM     22  O   UNL     1      -4.158 -10.018  12.600  0.00  0.00    -0.419 OA
BRANCH  21  23
ATOM     23  C   UNL     1      -3.261 -10.489  13.666  0.00  0.00    +0.074 A 
ATOM     24  C   UNL     1      -3.218 -10.573  14.485  0.00  0.00    +0.104 A 
ATOM     25  N   UNL     1      -2.483 -10.630  14.856  0.00  0.00    -0.242 NA
ATOM     26  C   UNL     1      -1.792 -10.602  14.408  0.00  0.00    +0.099 A 
ATOM     27  C   UNL     1      -1.835 -10.519  13.588  0.00  0.00    +0.021 A 
ATOM     28  C   UNL     1      -2.569 -10.462  13.217  0.00  0.00    +0.008 A 
ENDBRANCH  21  23
ENDBRANCH  16  18
TORSDOF 5
ENDMDL
MODEL 9
REMARK VINA RESULT:      -5.6     15.021     17.742
REMARK  Name = 
REMARK  5 active torsions:
REMARK  status: ('A' for Active; 'I' for Inactive)
REMARK    1  A    between atoms: O_2  and  C_3
REMARK    2  A    between atoms: C_6  and  C_11
REMARK    3  A    between atoms: C_8  and  O_9
REMARK    4  A    between atoms: C_16  and  C_18
REMARK    5  A    between atoms: C_21  and  C_23
REMARK                            x       y       z     vdW  Elec       q    Type
REMARK                         _______ _______ _______ _____ _____    ______ ____
ROOT
ATOM     11  C   UNL     1      -6.623  -9.824  10.619  0.00  0.00    +0.249 C 
ATOM     12  O   UNL     1      -6.461 -10.575  10.319  0.00  0.00    -0.270 OA
ATOM     13  N   UNL     1      -6.404  -9.631  11.390  0.00  0.00    -0.276 N 
ATOM     14  C   UNL     1      -6.530  -8.905  11.762  0.00  0.00    +0.094 C 
ATOM     15  C   UNL     1      -6.224  -8.955  12.527  0.00  0.00    +0.033 C 
ATOM     16  C   UNL     1      -5.911  -9.711  12.627  0.00  0.00    +0.100 C 
ATOM     17  C   UNL     1      -6.022 -10.129  11.924  0.00  0.00    +0.103 C 
ENDROOT
BRANCH  11   6
ATOM      3  C   UNL     1      -7.767  -8.148   9.200  0.00  0.00    +0.172 A 
ATOM      4  C   UNL     1      -6.943  -8.181   9.216  0.00  0.00    +0.040 A 
ATOM      5  C   UNL     1      -6.561  -8.740   9.690  0.00  0.00    +0.008 A 
ATOM      6  C   UNL     1      -7.005  -9.265  10.145  0.00  0.00    +0.057 A 
ATOM      7  C   UNL     1      -7.829  -9.232  10.129  0.00  0.00    +0.045 A 
ATOM      8  C   UNL     1      -8.210  -8.674   9.657  0.00  0.00    +0.173 A 
BRANCH   3   2
ATOM      1  C   UNL     1      -7.713  -6.986   8.371  0.00  0.00    +0.253 C 
ATOM      2  O   UNL     1      -8.148  -7.590   8.727  0.00  0.00    -0.468 OA
ENDBRANCH   3   2
BRANCH   8   9
ATOM      9  O   UNL     1      -9.035  -8.641   9.640  0.00  0.00    -0.468 OA
ATOM     10  C   UNL     1      -9.478  -9.313   9.822  0.00  0.00    +0.253 C 
ENDBRANCH   8   9
ENDBRANCH  11   6
BRANCH  16  18
ATOM     18  C   UNL     1      -5.549 -10.000  13.310  0.00  0.00    +0.228 A 
ATOM     19  N   UNL     1      -4.836 -10.414  13.343  0.00  0.00    -0.111 NA
ATOM     20  N   UNL     1      -4.682 -10.595  14.133  0.00  0.00    -0.107 NA
ATOM     21  C   UNL     1      -5.301 -10.294  14.588  0.00  0.00    +0.251 A 
ATOM     22  O   UNL     1      -5.836  -9.926  14.080  0.00  0.00    -0.419 OA
BRANCH  21  23
ATOM     23  C   UNL     1      -5.372 -10.350  15.409  0.00  0.00    +0.074 A 
ATOM     24  C   UNL     1      -6.051 -10.679  15.742  0.00  0.00    +0.104 A 
ATOM     25  N   UNL     1      -6.122 -10.735  16.563  0.00  0.00    -0.242 NA
ATOM     26  C   UNL     1      -5.513 -10.463  17.049  0.00  0.00    +0.099 A 
ATOM     27  C   UNL     1      -4.834 -10.134  16.714  0.00  0.00    +0.021 A 
ATOM     28  C   UNL     1      -4.763 -10.078  15.895  0.00  0.00    +0.008 A 
ENDBRANCH  21  23
ENDBRANCH  16  18
TORSDOF 5
ENDMDL
