MODEL 1
REMARK VINA RESULT:     -13.4      0.000      0.000
REMARK  Name = 
REMARK  4 active torsions:
REMARK  status: ('A' for Active; 'I' for Inactive)
REMARK    1  A    between atoms: C_3  and  C_11
REMARK    2  A    between atoms: N_14  and  C_15
REMARK    3  A    between atoms: C_15  and  C_16
REMARK    4  A    between atoms: C_19  and  C_22
REMARK                            x       y       z     vdW  Elec       q    Type
REMARK                         _______ _______ _______ _____ _____    ______ ____
ROOT
ATOM     11  C   UNL     1      -3.595   2.796  24.624  0.00  0.00    +0.074 C 
ATOM     12  C   UNL     1      -4.211   2.888  24.083  0.00  0.00    +0.026 C 
ATOM     13  C   UNL     1      -4.736   2.259  24.184  0.00  0.00    +0.073 C 
ATOM     14  N   UNL     1      -4.445   1.778  24.788  0.00  0.00    -0.269 NA
ATOM     28  C   UNL     1      -3.740   2.110  25.060  0.00  0.00    +0.080 C 
ENDROOT
BRANCH  11   3
ATOM      1  C   UNL     1      -1.930   2.495  24.026  0.00  0.00    +0.132 C 
ATOM      2  N   UNL     1      -2.183   3.162  24.439  0.00  0.00    -0.313 N 
ATOM      3  C   UNL     1      -2.949   3.300  24.714  0.00  0.00    +0.121 A 
ATOM      4  N   UNL     1      -2.954   4.032  25.095  0.00  0.00    -0.231 NA
ATOM      5  C   UNL     1      -2.193   4.345  25.055  0.00  0.00    +0.098 A 
ATOM      6  C   UNL     1      -1.716   3.807  24.650  0.00  0.00    +0.079 A 
ATOM      7  C   UNL     1      -0.918   3.976  24.526  0.00  0.00    +0.019 A 
ATOM      8  C   UNL     1      -0.596   4.681  24.806  0.00  0.00    +0.002 A 
ATOM      9  C   UNL     1      -1.073   5.219  25.212  0.00  0.00    +0.002 A 
ATOM     10  C   UNL     1      -1.871   5.052  25.337  0.00  0.00    +0.021 A 
ENDBRANCH  11   3
BRANCH  14  15
ATOM     15  C   UNL     1      -4.796   1.088  25.070  0.00  0.00    +0.099 C 
BRANCH  15  16
ATOM     16  C   UNL     1      -4.424   0.360  24.960  0.00  0.00    -0.006 A 
ATOM     17  C   UNL     1      -4.028   0.001  25.589  0.00  0.00    -0.003 A 
ATOM     18  C   UNL     1      -3.655  -0.727  25.478  0.00  0.00    +0.001 A 
ATOM     19  C   UNL     1      -3.678  -1.095  24.740  0.00  0.00    +0.018 A 
ATOM     20  C   UNL     1      -4.074  -0.735  24.112  0.00  0.00    +0.001 A 
ATOM     21  C   UNL     1      -4.447  -0.007  24.221  0.00  0.00    -0.003 A 
BRANCH  19  22
ATOM     22  C   UNL     1      -3.305  -1.822  24.631  0.00  0.00    +0.081 A 
ATOM     23  N   UNL     1      -2.486  -1.857  24.545  0.00  0.00    -0.244 NA
ATOM     24  C   UNL     1      -2.112  -2.585  24.435  0.00  0.00    +0.099 A 
ATOM     25  C   UNL     1      -2.560  -3.278  24.411  0.00  0.00    +0.021 A 
ATOM     26  C   UNL     1      -3.380  -3.243  24.496  0.00  0.00    +0.003 A 
ATOM     27  C   UNL     1      -3.752  -2.516  24.606  0.00  0.00    +0.019 A 
ENDBRANCH  19  22
ENDBRANCH  15  16
ENDBRANCH  14  15
TORSDOF 4
ENDMDL
MODEL 2
REMARK VINA RESULT:     -13.3      0.822      5.477
REMARK  Name = 
REMARK  4 active torsions:
REMARK  status: ('A' for Active; 'I' for Inactive)
REMARK    1  A    between atoms: C_3  and  C_11
REMARK    2  A    between atoms: N_14  and  C_15
REMARK    3  A    between atoms: C_15  and  C_16
REMARK    4  A    between atoms: C_19  and  C_22
REMARK                            x       y       z     vdW  Elec       q    Type
REMARK                         _______ _______ _______ _____ _____    ______ ____
ROOT
ATOM     11  C   UNL     1      -4.602   0.360  24.866  0.00  0.00    +0.074 C 
ATOM     12  C   UNL     1      -5.144   0.579  25.447  0.00  0.00    +0.026 C 
ATOM     13  C   UNL     1      -5.273   1.392  25.383  0.00  0.00    +0.073 C 
ATOM     14  N   UNL     1      -4.810   1.675  24.761  0.00  0.00    -0.269 NA
ATOM     28  C   UNL     1      -4.395   1.037  24.441  0.00  0.00    +0.080 C 
ENDROOT
BRANCH  11   3
ATOM      1  C   UNL     1      -3.270  -0.441  25.763  0.00  0.00    +0.132 C 
ATOM      2  N   UNL     1      -3.703  -0.770  25.145  0.00  0.00    -0.313 N 
ATOM      3  C   UNL     1      -4.316  -0.402  24.732  0.00  0.00    +0.121 A 
ATOM      4  N   UNL     1      -4.592  -0.930  24.162  0.00  0.00    -0.231 NA
ATOM      5  C   UNL     1      -4.151  -1.624  24.222  0.00  0.00    +0.098 A 
ATOM      6  C   UNL     1      -3.602  -1.525  24.829  0.00  0.00    +0.079 A 
ATOM      7  C   UNL     1      -3.080  -2.136  25.016  0.00  0.00    +0.019 A 
ATOM      8  C   UNL     1      -3.107  -2.845  24.597  0.00  0.00    +0.002 A 
ATOM      9  C   UNL     1      -3.656  -2.944  23.989  0.00  0.00    +0.002 A 
ATOM     10  C   UNL     1      -4.178  -2.334  23.801  0.00  0.00    +0.021 A 
ENDBRANCH  11   3
BRANCH  14  15
ATOM     15  C   UNL     1      -4.769   2.458  24.504  0.00  0.00    +0.099 C 
BRANCH  15  16
ATOM     16  C   UNL     1      -4.069   2.885  24.593  0.00  0.00    -0.006 A 
ATOM     17  C   UNL     1      -3.545   2.954  23.958  0.00  0.00    -0.003 A 
ATOM     18  C   UNL     1      -2.846   3.381  24.047  0.00  0.00    +0.001 A 
ATOM     19  C   UNL     1      -2.669   3.739  24.769  0.00  0.00    +0.018 A 
ATOM     20  C   UNL     1      -3.192   3.670  25.403  0.00  0.00    +0.001 A 
ATOM     21  C   UNL     1      -3.893   3.242  25.315  0.00  0.00    -0.003 A 
BRANCH  19  22
ATOM     22  C   UNL     1      -1.969   4.166  24.857  0.00  0.00    +0.081 A 
ATOM     23  N   UNL     1      -1.242   3.779  24.823  0.00  0.00    -0.244 NA
ATOM     24  C   UNL     1      -0.541   4.206  24.911  0.00  0.00    +0.099 A 
ATOM     25  C   UNL     1      -0.569   5.022  25.034  0.00  0.00    +0.021 A 
ATOM     26  C   UNL     1      -1.296   5.409  25.068  0.00  0.00    +0.003 A 
ATOM     27  C   UNL     1      -1.996   4.982  24.980  0.00  0.00    +0.019 A 
ENDBRANCH  19  22
ENDBRANCH  15  16
ENDBRANCH  14  15
TORSDOF 4
ENDMDL
MODEL 3
REMARK VINA RESULT:     -12.4      1.763      5.983
REMARK  Name = 
REMARK  4 active torsions:
REMARK  status: ('A' for Active; 'I' for Inactive)
REMARK    1  A    between atoms: C_3  and  C_11
REMARK    2  A    between atoms: N_14  and  C_15
REMARK    3  A    between atoms: C_15  and  C_16
REMARK    4  A    between atoms: C_19  and  C_22
REMARK                            x       y       z     vdW  Elec       q    Type
REMARK                         _______ _______ _______ _____ _____    ______ ____
ROOT
ATOM     11  C   UNL     1      -1.736  -0.603  25.102  0.00  0.00    +0.074 C 
ATOM     12  C   UNL     1      -1.450  -0.609  25.875  0.00  0.00    +0.026 C 
ATOM     13  C   UNL     1      -0.841  -0.053  25.926  0.00  0.00    +0.073 C 
ATOM     14  N   UNL     1      -0.751   0.295  25.184  0.00  0.00    -0.269 NA
ATOM     28  C   UNL     1      -1.304  -0.045  24.674  0.00  0.00    +0.080 C 
ENDROOT
BRANCH  11   3
ATOM      1  C   UNL     1      -1.670  -2.378  24.843  0.00  0.00    +0.132 C 
ATOM      2  N   UNL     1      -2.316  -1.890  24.688  0.00  0.00    -0.313 N 
ATOM      3  C   UNL     1      -2.346  -1.074  24.807  0.00  0.00    +0.121 A 
ATOM      4  N   UNL     1      -3.094  -0.811  24.579  0.00  0.00    -0.231 NA
ATOM      5  C   UNL     1      -3.526  -1.464  24.320  0.00  0.00    +0.098 A 
ATOM      6  C   UNL     1      -3.044  -2.131  24.387  0.00  0.00    +0.079 A 
ATOM      7  C   UNL     1      -3.333  -2.871  24.165  0.00  0.00    +0.019 A 
ATOM      8  C   UNL     1      -4.102  -2.945  23.876  0.00  0.00    +0.002 A 
ATOM      9  C   UNL     1      -4.583  -2.278  23.809  0.00  0.00    +0.002 A 
ATOM     10  C   UNL     1      -4.296  -1.538  24.031  0.00  0.00    +0.021 A 
ENDBRANCH  11   3
BRANCH  14  15
ATOM     15  C   UNL     1      -0.205   0.880  24.986  0.00  0.00    +0.099 C 
BRANCH  15  16
ATOM     16  C   UNL     1      -0.427   1.674  25.001  0.00  0.00    -0.006 A 
ATOM     17  C   UNL     1      -0.390   2.100  25.707  0.00  0.00    -0.003 A 
ATOM     18  C   UNL     1      -0.612   2.894  25.721  0.00  0.00    +0.001 A 
ATOM     19  C   UNL     1      -0.871   3.263  25.031  0.00  0.00    +0.018 A 
ATOM     20  C   UNL     1      -0.908   2.837  24.325  0.00  0.00    +0.001 A 
ATOM     21  C   UNL     1      -0.686   2.042  24.310  0.00  0.00    -0.003 A 
BRANCH  19  22
ATOM     22  C   UNL     1      -1.092   4.057  25.046  0.00  0.00    +0.081 A 
ATOM     23  N   UNL     1      -0.577   4.635  24.762  0.00  0.00    -0.244 NA
ATOM     24  C   UNL     1      -0.799   5.430  24.777  0.00  0.00    +0.099 A 
ATOM     25  C   UNL     1      -1.537   5.646  25.076  0.00  0.00    +0.021 A 
ATOM     26  C   UNL     1      -2.053   5.068  25.360  0.00  0.00    +0.003 A 
ATOM     27  C   UNL     1      -1.831   4.274  25.345  0.00  0.00    +0.019 A 
ENDBRANCH  19  22
ENDBRANCH  15  16
ENDBRANCH  14  15
TORSDOF 4
ENDMDL
MODEL 4
REMARK VINA RESULT:     -11.4      1.455      2.396
REMARK  Name = 
REMARK  4 active torsions:
REMARK  status: ('A' for Active; 'I' for Inactive)
REMARK    1  A    between atoms: C_3  and  C_11
REMARK    2  A    between atoms: N_14  and  C_15
REMARK    3  A    between atoms: C_15  and  C_16
REMARK    4  A    between atoms: C_19  and  C_22
REMARK                            x       y       z     vdW  Elec       q    Type
REMARK                         _______ _______ _______ _____ _____    ______ ____
ROOT
ATOM     11  C   UNL     1      -0.746   2.084  24.977  0.00  0.00    +0.074 C 
ATOM     12  C   UNL     1      -0.244   1.730  24.427  0.00  0.00    +0.026 C 
ATOM     13  C   UNL     1      -0.195   0.926  24.607  0.00  0.00    +0.073 C 
ATOM     14  N   UNL     1      -0.666   0.783  25.269  0.00  0.00    -0.269 NA
ATOM     28  C   UNL     1      -1.007   1.499  25.498  0.00  0.00    +0.080 C 
ENDROOT
BRANCH  11   3
ATOM      1  C   UNL     1      -2.402   2.742  25.184  0.00  0.00    +0.132 C 
ATOM      2  N   UNL     1      -1.713   3.185  25.098  0.00  0.00    -0.313 N 
ATOM      3  C   UNL     1      -0.950   2.883  25.002  0.00  0.00    +0.121 A 
ATOM      4  N   UNL     1      -0.430   3.519  24.937  0.00  0.00    -0.231 NA
ATOM      5  C   UNL     1      -0.870   4.215  24.992  0.00  0.00    +0.098 A 
ATOM      6  C   UNL     1      -1.662   4.008  25.091  0.00  0.00    +0.079 A 
ATOM      7  C   UNL     1      -2.236   4.597  25.163  0.00  0.00    +0.019 A 
ATOM      8  C   UNL     1      -2.017   5.392  25.136  0.00  0.00    +0.002 A 
ATOM      9  C   UNL     1      -1.225   5.598  25.036  0.00  0.00    +0.002 A 
ATOM     10  C   UNL     1      -0.651   5.010  24.965  0.00  0.00    +0.021 A 
ENDBRANCH  11   3
BRANCH  14  15
ATOM     15  C   UNL     1      -0.778   0.054  25.637  0.00  0.00    +0.099 C 
BRANCH  15  16
ATOM     16  C   UNL     1      -1.362  -0.461  25.365  0.00  0.00    -0.006 A 
ATOM     17  C   UNL     1      -1.204  -0.966  24.732  0.00  0.00    -0.003 A 
ATOM     18  C   UNL     1      -1.788  -1.481  24.461  0.00  0.00    +0.001 A 
ATOM     19  C   UNL     1      -2.530  -1.491  24.820  0.00  0.00    +0.018 A 
ATOM     20  C   UNL     1      -2.688  -0.985  25.453  0.00  0.00    +0.001 A 
ATOM     21  C   UNL     1      -2.104  -0.470  25.726  0.00  0.00    -0.003 A 
BRANCH  19  22
ATOM     22  C   UNL     1      -3.114  -2.005  24.548  0.00  0.00    +0.081 A 
ATOM     23  N   UNL     1      -3.066  -2.811  24.719  0.00  0.00    -0.244 NA
ATOM     24  C   UNL     1      -3.651  -3.326  24.447  0.00  0.00    +0.099 A 
ATOM     25  C   UNL     1      -4.283  -3.035  24.003  0.00  0.00    +0.021 A 
ATOM     26  C   UNL     1      -4.330  -2.229  23.833  0.00  0.00    +0.003 A 
ATOM     27  C   UNL     1      -3.746  -1.715  24.105  0.00  0.00    +0.019 A 
ENDBRANCH  19  22
ENDBRANCH  15  16
ENDBRANCH  14  15
TORSDOF 4
ENDMDL
