MODEL 1
REMARK VINA RESULT:     -11.8      0.000      0.000
REMARK  Name = 
REMARK  6 active torsions:
REMARK  status: ('A' for Active; 'I' for Inactive)
REMARK    1  A    between atoms: C_2  and  C_5
REMARK    2  A    between atoms: C_8  and  C_11
REMARK    3  A    between atoms: N_13  and  C_14
REMARK    4  A    between atoms: C_18  and  O_22
REMARK    5  A    between atoms: O_22  and  C_23
REMARK    6  A    between atoms: N_25  and  C_26
REMARK                            x       y       z     vdW  Elec       q    Type
REMARK                         _______ _______ _______ _____ _____    ______ ____
ROOT
ATOM     14  C   UNL     1       0.939   0.445  23.402  0.00  0.00    +0.155 C 
ATOM     15  C   UNL     1       0.513  -0.062  22.911  0.00  0.00    +0.166 C 
ATOM     16  O   UNL     1      -0.286   0.133  22.974  0.00  0.00    -0.348 OA
ATOM     17  C   UNL     1      -0.353   0.761  23.504  0.00  0.00    +0.186 C 
ATOM     18  C   UNL     1      -0.888   1.271  23.871  0.00  0.00    +0.229 C 
ATOM     19  C   UNL     1      -0.462   1.779  24.363  0.00  0.00    +0.188 C 
ATOM     20  O   UNL     1       0.337   1.582  24.299  0.00  0.00    -0.348 OA
ATOM     21  C   UNL     1       0.404   0.954  23.768  0.00  0.00    +0.168 C 
ENDROOT
BRANCH  14  13
ATOM     11  C   UNL     1       2.253   0.208  22.892  0.00  0.00    +0.265 C 
ATOM     12  O   UNL     1       1.930  -0.026  22.169  0.00  0.00    -0.268 OA
ATOM     13  N   UNL     1       1.758   0.443  23.508  0.00  0.00    -0.198 NA
BRANCH  11   8
ATOM      5  C   UNL     1       4.708   0.200  23.209  0.00  0.00    +0.071 A 
ATOM      6  C   UNL     1       4.335   0.863  22.889  0.00  0.00    +0.004 A 
ATOM      7  C   UNL     1       3.517   0.865  22.784  0.00  0.00    +0.005 A 
ATOM      8  C   UNL     1       3.071   0.205  22.997  0.00  0.00    +0.055 A 
ATOM      9  C   UNL     1       3.444  -0.458  23.317  0.00  0.00    +0.005 A 
ATOM     10  C   UNL     1       4.262  -0.462  23.422  0.00  0.00    +0.004 A 
BRANCH   5   2
ATOM      1  F   UNL     1       6.344   0.193  23.421  0.00  0.00    -0.166 F 
ATOM      2  C   UNL     1       5.526   0.196  23.315  0.00  0.00    +0.419 C 
ATOM      3  F   UNL     1       5.630   0.043  22.511  0.00  0.00    -0.166 F 
ATOM      4  F   UNL     1       5.422   0.350  24.118  0.00  0.00    -0.166 F 
ENDBRANCH   5   2
ENDBRANCH  11   8
ENDBRANCH  14  13
BRANCH  18  22
ATOM     22  O   UNL     1      -1.707   1.272  23.765  0.00  0.00    -0.432 OA
BRANCH  22  23
ATOM     23  C   UNL     1      -2.159   1.897  24.056  0.00  0.00    +0.425 C 
ATOM     24  O   UNL     1      -1.923   2.676  23.920  0.00  0.00    -0.224 OA
ATOM     25  N   UNL     1      -2.849   1.745  24.482  0.00  0.00    -0.142 NA
BRANCH  25  26
ATOM     26  C   UNL     1      -3.301   2.370  24.773  0.00  0.00    +0.077 A 
ATOM     27  C   UNL     1      -2.951   3.104  24.908  0.00  0.00    +0.017 A 
ATOM     28  C   UNL     1      -3.404   3.730  25.199  0.00  0.00    +0.001 A 
ATOM     29  C   UNL     1      -4.206   3.621  25.355  0.00  0.00    +0.000 A 
ATOM     30  C   UNL     1      -4.556   2.887  25.221  0.00  0.00    +0.001 A 
ATOM     31  C   UNL     1      -5.359   2.776  25.378  0.00  0.00    +0.000 A 
ATOM     32  C   UNL     1      -5.709   2.042  25.244  0.00  0.00    +0.000 A 
ATOM     33  C   UNL     1      -5.256   1.416  24.952  0.00  0.00    +0.000 A 
ATOM     34  C   UNL     1      -4.454   1.526  24.796  0.00  0.00    +0.001 A 
ATOM     35  C   UNL     1      -4.103   2.260  24.930  0.00  0.00    +0.015 A 
ENDBRANCH  25  26
ENDBRANCH  22  23
ENDBRANCH  18  22
TORSDOF 6
ENDMDL
MODEL 2
REMARK VINA RESULT:     -11.3      1.672      2.246
REMARK  Name = 
REMARK  6 active torsions:
REMARK  status: ('A' for Active; 'I' for Inactive)
REMARK    1  A    between atoms: C_2  and  C_5
REMARK    2  A    between atoms: C_8  and  C_11
REMARK    3  A    between atoms: N_13  and  C_14
REMARK    4  A    between atoms: C_18  and  O_22
REMARK    5  A    between atoms: O_22  and  C_23
REMARK    6  A    between atoms: N_25  and  C_26
REMARK                            x       y       z     vdW  Elec       q    Type
REMARK                         _______ _______ _______ _____ _____    ______ ____
ROOT
ATOM     14  C   UNL     1       1.165   0.351  23.218  0.00  0.00    +0.155 C 
ATOM     15  C   UNL     1       0.794  -0.075  22.617  0.00  0.00    +0.166 C 
ATOM     16  O   UNL     1      -0.014   0.091  22.648  0.00  0.00    -0.348 OA
ATOM     17  C   UNL     1      -0.141   0.620  23.268  0.00  0.00    +0.186 C 
ATOM     18  C   UNL     1      -0.719   1.050  23.671  0.00  0.00    +0.229 C 
ATOM     19  C   UNL     1      -0.348   1.476  24.272  0.00  0.00    +0.188 C 
ATOM     20  O   UNL     1       0.459   1.310  24.241  0.00  0.00    -0.348 OA
ATOM     21  C   UNL     1       0.587   0.780  23.620  0.00  0.00    +0.168 C 
ENDROOT
BRANCH  14  13
ATOM     11  C   UNL     1       2.518   0.182  22.790  0.00  0.00    +0.265 C 
ATOM     12  O   UNL     1       2.256   0.018  22.025  0.00  0.00    -0.268 OA
ATOM     13  N   UNL     1       1.973   0.348  23.386  0.00  0.00    -0.198 NA
BRANCH  11   8
ATOM      5  C   UNL     1       4.941   0.170  23.295  0.00  0.00    +0.071 A 
ATOM      6  C   UNL     1       4.594   0.836  22.954  0.00  0.00    +0.004 A 
ATOM      7  C   UNL     1       3.786   0.840  22.786  0.00  0.00    +0.005 A 
ATOM      8  C   UNL     1       3.326   0.178  22.959  0.00  0.00    +0.055 A 
ATOM      9  C   UNL     1       3.673  -0.488  23.300  0.00  0.00    +0.005 A 
ATOM     10  C   UNL     1       4.480  -0.493  23.468  0.00  0.00    +0.004 A 
BRANCH   5   2
ATOM      1  F   UNL     1       6.557   0.160  23.632  0.00  0.00    -0.166 F 
ATOM      2  C   UNL     1       5.748   0.165  23.464  0.00  0.00    +0.419 C 
ATOM      3  F   UNL     1       5.599   0.517  24.195  0.00  0.00    -0.166 F 
ATOM      4  F   UNL     1       5.899  -0.186  22.733  0.00  0.00    -0.166 F 
ENDBRANCH   5   2
ENDBRANCH  11   8
ENDBRANCH  14  13
BRANCH  18  22
ATOM     22  O   UNL     1      -1.527   1.052  23.502  0.00  0.00    -0.432 OA
BRANCH  22  23
ATOM     23  C   UNL     1      -2.067   0.790  24.066  0.00  0.00    +0.425 C 
ATOM     24  O   UNL     1      -2.163   1.207  24.772  0.00  0.00    -0.224 OA
ATOM     25  N   UNL     1      -2.513   0.110  23.927  0.00  0.00    -0.142 NA
BRANCH  25  26
ATOM     26  C   UNL     1      -3.053  -0.153  24.492  0.00  0.00    +0.077 A 
ATOM     27  C   UNL     1      -3.527   0.389  24.893  0.00  0.00    +0.017 A 
ATOM     28  C   UNL     1      -4.068   0.126  25.459  0.00  0.00    +0.001 A 
ATOM     29  C   UNL     1      -4.135  -0.679  25.622  0.00  0.00    +0.000 A 
ATOM     30  C   UNL     1      -3.661  -1.222  25.220  0.00  0.00    +0.001 A 
ATOM     31  C   UNL     1      -3.727  -2.028  25.383  0.00  0.00    +0.000 A 
ATOM     32  C   UNL     1      -3.254  -2.571  24.982  0.00  0.00    +0.000 A 
ATOM     33  C   UNL     1      -2.713  -2.308  24.416  0.00  0.00    +0.000 A 
ATOM     34  C   UNL     1      -2.646  -1.502  24.253  0.00  0.00    +0.001 A 
ATOM     35  C   UNL     1      -3.120  -0.959  24.655  0.00  0.00    +0.015 A 
ENDBRANCH  25  26
ENDBRANCH  22  23
ENDBRANCH  18  22
TORSDOF 6
ENDMDL
MODEL 3
REMARK VINA RESULT:     -10.8      4.251      5.672
REMARK  Name = 
REMARK  6 active torsions:
REMARK  status: ('A' for Active; 'I' for Inactive)
REMARK    1  A    between atoms: C_2  and  C_5
REMARK    2  A    between atoms: C_8  and  C_11
REMARK    3  A    between atoms: N_13  and  C_14
REMARK    4  A    between atoms: C_18  and  O_22
REMARK    5  A    between atoms: O_22  and  C_23
REMARK    6  A    between atoms: N_25  and  C_26
REMARK                            x       y       z     vdW  Elec       q    Type
REMARK                         _______ _______ _______ _____ _____    ______ ____
ROOT
ATOM     14  C   UNL     1      -1.393  -0.091  24.937  0.00  0.00    +0.155 C 
ATOM     15  C   UNL     1      -1.230   0.079  25.727  0.00  0.00    +0.166 C 
ATOM     16  O   UNL     1      -0.766   0.762  25.751  0.00  0.00    -0.348 OA
ATOM     17  C   UNL     1      -0.643   1.012  24.975  0.00  0.00    +0.186 C 
ATOM     18  C   UNL     1      -0.281   1.589  24.509  0.00  0.00    +0.229 C 
ATOM     19  C   UNL     1      -0.444   1.419  23.718  0.00  0.00    +0.188 C 
ATOM     20  O   UNL     1      -0.907   0.737  23.696  0.00  0.00    -0.348 OA
ATOM     21  C   UNL     1      -1.031   0.485  24.472  0.00  0.00    +0.168 C 
ENDROOT
BRANCH  14  13
ATOM     11  C   UNL     1      -2.618  -0.826  24.916  0.00  0.00    +0.265 C 
ATOM     12  O   UNL     1      -2.950  -0.289  25.447  0.00  0.00    -0.268 OA
ATOM     13  N   UNL     1      -1.841  -0.727  24.661  0.00  0.00    -0.198 NA
BRANCH  11   8
ATOM      5  C   UNL     1      -3.962  -2.732  24.087  0.00  0.00    +0.071 A 
ATOM      6  C   UNL     1      -3.292  -2.870  24.550  0.00  0.00    +0.004 A 
ATOM      7  C   UNL     1      -2.845  -2.234  24.826  0.00  0.00    +0.005 A 
ATOM      8  C   UNL     1      -3.066  -1.462  24.640  0.00  0.00    +0.055 A 
ATOM      9  C   UNL     1      -3.735  -1.324  24.178  0.00  0.00    +0.005 A 
ATOM     10  C   UNL     1      -4.184  -1.959  23.901  0.00  0.00    +0.004 A 
BRANCH   5   2
ATOM      1  F   UNL     1      -4.859  -4.002  23.534  0.00  0.00    -0.166 F 
ATOM      2  C   UNL     1      -4.410  -3.367  23.811  0.00  0.00    +0.419 C 
ATOM      3  F   UNL     1      -4.003  -3.876  24.316  0.00  0.00    -0.166 F 
ATOM      4  F   UNL     1      -4.818  -2.859  23.305  0.00  0.00    -0.166 F 
ENDBRANCH   5   2
ENDBRANCH  11   8
ENDBRANCH  14  13
BRANCH  18  22
ATOM     22  O   UNL     1       0.167   2.225  24.786  0.00  0.00    -0.432 OA
BRANCH  22  23
ATOM     23  C   UNL     1      -0.102   2.997  24.679  0.00  0.00    +0.425 C 
ATOM     24  O   UNL     1       0.089   3.409  23.990  0.00  0.00    -0.224 OA
ATOM     25  N   UNL     1      -0.564   3.357  25.260  0.00  0.00    -0.142 NA
BRANCH  25  26
ATOM     26  C   UNL     1      -0.834   4.129  25.153  0.00  0.00    +0.077 A 
ATOM     27  C   UNL     1      -0.356   4.684  24.774  0.00  0.00    +0.017 A 
ATOM     28  C   UNL     1      -0.626   5.457  24.667  0.00  0.00    +0.001 A 
ATOM     29  C   UNL     1      -1.374   5.674  24.939  0.00  0.00    +0.000 A 
ATOM     30  C   UNL     1      -1.851   5.119  25.319  0.00  0.00    +0.001 A 
ATOM     31  C   UNL     1      -2.599   5.336  25.592  0.00  0.00    +0.000 A 
ATOM     32  C   UNL     1      -3.077   4.781  25.971  0.00  0.00    +0.000 A 
ATOM     33  C   UNL     1      -2.807   4.008  26.078  0.00  0.00    +0.000 A 
ATOM     34  C   UNL     1      -2.059   3.791  25.806  0.00  0.00    +0.001 A 
ATOM     35  C   UNL     1      -1.581   4.346  25.426  0.00  0.00    +0.015 A 
ENDBRANCH  25  26
ENDBRANCH  22  23
ENDBRANCH  18  22
TORSDOF 6
ENDMDL
MODEL 4
REMARK VINA RESULT:     -10.7      3.512      7.643
REMARK  Name = 
REMARK  6 active torsions:
REMARK  status: ('A' for Active; 'I' for Inactive)
REMARK    1  A    between atoms: C_2  and  C_5
REMARK    2  A    between atoms: C_8  and  C_11
REMARK    3  A    between atoms: N_13  and  C_14
REMARK    4  A    between atoms: C_18  and  O_22
REMARK    5  A    between atoms: O_22  and  C_23
REMARK    6  A    between atoms: N_25  and  C_26
REMARK                            x       y       z     vdW  Elec       q    Type
REMARK                         _______ _______ _______ _____ _____    ______ ____
ROOT
ATOM     14  C   UNL     1      -1.296   0.020  24.363  0.00  0.00    +0.155 C 
ATOM     15  C   UNL     1      -1.096  -0.747  24.587  0.00  0.00    +0.166 C 
ATOM     16  O   UNL     1      -0.353  -0.920  24.271  0.00  0.00    -0.348 OA
ATOM     17  C   UNL     1      -0.096  -0.258  23.852  0.00  0.00    +0.186 C 
ATOM     18  C   UNL     1       0.523   0.045  23.397  0.00  0.00    +0.229 C 
ATOM     19  C   UNL     1       0.322   0.813  23.172  0.00  0.00    +0.188 C 
ATOM     20  O   UNL     1      -0.420   0.985  23.489  0.00  0.00    -0.348 OA
ATOM     21  C   UNL     1      -0.678   0.323  23.908  0.00  0.00    +0.168 C 
ENDROOT
BRANCH  14  13
ATOM     11  C   UNL     1      -2.722   0.047  24.449  0.00  0.00    +0.265 C 
ATOM     12  O   UNL     1      -2.755  -0.718  24.142  0.00  0.00    -0.268 OA
ATOM     13  N   UNL     1      -1.993   0.416  24.559  0.00  0.00    -0.198 NA
BRANCH  11   8
ATOM      5  C   UNL     1      -4.813   1.234  25.037  0.00  0.00    +0.071 A 
ATOM      6  C   UNL     1      -4.688   0.463  25.303  0.00  0.00    +0.004 A 
ATOM      7  C   UNL     1      -3.991   0.068  25.106  0.00  0.00    +0.005 A 
ATOM      8  C   UNL     1      -3.419   0.443  24.645  0.00  0.00    +0.055 A 
ATOM      9  C   UNL     1      -3.544   1.214  24.380  0.00  0.00    +0.005 A 
ATOM     10  C   UNL     1      -4.241   1.610  24.576  0.00  0.00    +0.004 A 
BRANCH   5   2
ATOM      1  F   UNL     1      -6.207   2.027  25.429  0.00  0.00    -0.166 F 
ATOM      2  C   UNL     1      -5.509   1.631  25.233  0.00  0.00    +0.419 C 
ATOM      3  F   UNL     1      -5.109   2.045  25.822  0.00  0.00    -0.166 F 
ATOM      4  F   UNL     1      -5.911   1.216  24.644  0.00  0.00    -0.166 F 
ENDBRANCH   5   2
ENDBRANCH  11   8
ENDBRANCH  14  13
BRANCH  18  22
ATOM     22  O   UNL     1       1.220  -0.352  23.201  0.00  0.00    -0.432 OA
BRANCH  22  23
ATOM     23  C   UNL     1       1.927   0.067  23.132  0.00  0.00    +0.425 C 
ATOM     24  O   UNL     1       1.920   0.892  23.137  0.00  0.00    -0.224 OA
ATOM     25  N   UNL     1       2.641  -0.339  23.058  0.00  0.00    -0.142 NA
BRANCH  25  26
ATOM     26  C   UNL     1       3.349   0.080  22.990  0.00  0.00    +0.077 A 
ATOM     27  C   UNL     1       3.360   0.811  22.609  0.00  0.00    +0.017 A 
ATOM     28  C   UNL     1       4.068   1.231  22.540  0.00  0.00    +0.001 A 
ATOM     29  C   UNL     1       4.764   0.918  22.852  0.00  0.00    +0.000 A 
ATOM     30  C   UNL     1       4.753   0.187  23.233  0.00  0.00    +0.001 A 
ATOM     31  C   UNL     1       5.449  -0.126  23.546  0.00  0.00    +0.000 A 
ATOM     32  C   UNL     1       5.439  -0.857  23.927  0.00  0.00    +0.000 A 
ATOM     33  C   UNL     1       4.730  -1.277  23.996  0.00  0.00    +0.000 A 
ATOM     34  C   UNL     1       4.035  -0.964  23.684  0.00  0.00    +0.001 A 
ATOM     35  C   UNL     1       4.045  -0.232  23.302  0.00  0.00    +0.015 A 
ENDBRANCH  25  26
ENDBRANCH  22  23
ENDBRANCH  18  22
TORSDOF 6
ENDMDL
