MODEL 1
REMARK VINA RESULT:     -10.0      0.000      0.000
REMARK  Name = 
REMARK  8 active torsions:
REMARK  status: ('A' for Active; 'I' for Inactive)
REMARK    1  A    between atoms: C_4  and  C_26
REMARK    2  A    between atoms: C_6  and  C_8
REMARK    3  A    between atoms: C_15  and  C_16
REMARK    4  A    between atoms: C_16  and  N_17
REMARK    5  A    between atoms: C_18  and  C_20
REMARK    6  A    between atoms: C_20  and  S_21
REMARK    7  A    between atoms: S_21  and  C_22
REMARK    8  A    between atoms: C_22  and  C_23
REMARK                            x       y       z     vdW  Elec       q    Type
REMARK                         _______ _______ _______ _____ _____    ______ ____
ROOT
ATOM      8  C   UNL     1      -0.416  -0.419  24.205  0.00  0.00    +0.056 C 
ATOM      9  C   UNL     1       0.035  -0.994  23.939  0.00  0.00    +0.078 C 
ATOM     10  N   UNL     1       0.128  -0.189  23.782  0.00  0.00    -0.272 NA
ATOM     11  C   UNL     1      -0.640   0.316  24.287  0.00  0.00    +0.072 C 
ATOM     12  C   UNL     1      -0.945   0.871  24.448  0.00  0.00    +0.018 C 
ATOM     13  C   UNL     1      -0.319   0.369  24.046  0.00  0.00    +0.010 C 
ATOM     14  C   UNL     1       0.274   0.803  23.566  0.00  0.00    +0.018 C 
ATOM     15  C   UNL     1       0.741   0.269  23.284  0.00  0.00    +0.079 C 
ENDROOT
BRANCH   8   6
ATOM      1  C   UNL     1      -1.540  -0.725  26.815  0.00  0.00    +0.074 C 
ATOM      2  C   UNL     1      -1.611  -0.783  25.995  0.00  0.00    +0.139 A 
ATOM      3  N   UNL     1      -2.316  -1.052  25.661  0.00  0.00    -0.231 NA
ATOM      4  C   UNL     1      -2.388  -1.109  24.841  0.00  0.00    +0.084 A 
ATOM      5  C   UNL     1      -1.755  -0.899  24.356  0.00  0.00    +0.034 A 
ATOM      6  C   UNL     1      -1.050  -0.630  24.691  0.00  0.00    +0.063 A 
ATOM      7  N   UNL     1      -0.978  -0.572  25.510  0.00  0.00    -0.235 NA
BRANCH   4  26
ATOM     26  C   UNL     1      -3.092  -1.378  24.506  0.00  0.00    +0.024 A 
ATOM     27  C   UNL     1      -3.227  -2.188  24.424  0.00  0.00    +0.036 A 
ATOM     28 BR   UNL     1      -2.657  -2.728  24.676  0.00  0.00    -0.049 Br
ATOM     29  C   UNL     1      -3.932  -2.456  24.089  0.00  0.00    +0.007 A 
ATOM     30  C   UNL     1      -4.501  -1.915  23.837  0.00  0.00    +0.001 A 
ATOM     31  C   UNL     1      -4.366  -1.105  23.919  0.00  0.00    +0.000 A 
ATOM     32  C   UNL     1      -3.661  -0.837  24.254  0.00  0.00    +0.002 A 
ENDBRANCH   4  26
ENDBRANCH   8   6
BRANCH  15  16
ATOM     16  C   UNL     1       1.407   0.167  22.809  0.00  0.00    +0.131 C 
BRANCH  16  17
ATOM     17  N   UNL     1       2.128   0.499  23.033  0.00  0.00    -0.203 NA
ATOM     18  C   UNL     1       2.788   0.418  22.544  0.00  0.00    +0.252 C 
ATOM     19  O   UNL     1       2.727   0.005  21.833  0.00  0.00    -0.272 OA
BRANCH  18  20
ATOM     20  C   UNL     1       3.509   0.750  22.768  0.00  0.00    +0.145 C 
BRANCH  20  21
ATOM     21  S   UNL     1       4.163   0.264  22.904  0.00  0.00    -0.119 S 
BRANCH  21  22
ATOM     22  C   UNL     1       4.851   0.580  23.231  0.00  0.00    +0.172 C 
BRANCH  22  23
ATOM     23  C   UNL     1       5.429   0.080  23.539  0.00  0.00    +0.376 C 
ATOM     24  O   UNL     1       5.414  -0.127  24.337  0.00  0.00    -0.245 OA
ATOM     25  O   UNL     1       6.024  -0.213  23.048  0.00  0.00    -0.245 OA
ENDBRANCH  22  23
ENDBRANCH  21  22
ENDBRANCH  20  21
ENDBRANCH  18  20
ENDBRANCH  16  17
ENDBRANCH  15  16
TORSDOF 8
ENDMDL
MODEL 2
REMARK VINA RESULT:      -9.6      2.117      2.941
REMARK  Name = 
REMARK  8 active torsions:
REMARK  status: ('A' for Active; 'I' for Inactive)
REMARK    1  A    between atoms: C_4  and  C_26
REMARK    2  A    between atoms: C_6  and  C_8
REMARK    3  A    between atoms: C_15  and  C_16
REMARK    4  A    between atoms: C_16  and  N_17
REMARK    5  A    between atoms: C_18  and  C_20
REMARK    6  A    between atoms: C_20  and  S_21
REMARK    7  A    between atoms: S_21  and  C_22
REMARK    8  A    between atoms: C_22  and  C_23
REMARK                            x       y       z     vdW  Elec       q    Type
REMARK                         _______ _______ _______ _____ _____    ______ ____
ROOT
ATOM      8  C   UNL     1      -1.276   0.665  24.011  0.00  0.00    +0.056 C 
ATOM      9  C   UNL     1      -1.115   0.846  23.271  0.00  0.00    +0.078 C 
ATOM     10  N   UNL     1      -0.618   0.445  23.794  0.00  0.00    -0.272 NA
ATOM     11  C   UNL     1      -1.130   0.362  24.705  0.00  0.00    +0.072 C 
ATOM     12  C   UNL     1      -1.156   0.161  25.326  0.00  0.00    +0.018 C 
ATOM     13  C   UNL     1      -0.784   0.271  24.518  0.00  0.00    +0.010 C 
ATOM     14  C   UNL     1       0.025  -0.055  24.418  0.00  0.00    +0.018 C 
ATOM     15  C   UNL     1       0.222   0.103  23.697  0.00  0.00    +0.079 C 
ENDROOT
BRANCH   8   6
ATOM      1  C   UNL     1      -3.940   0.001  24.805  0.00  0.00    +0.074 C 
ATOM      2  C   UNL     1      -3.345   0.562  24.700  0.00  0.00    +0.139 A 
ATOM      3  N   UNL     1      -3.487   1.352  24.888  0.00  0.00    -0.231 NA
ATOM      4  C   UNL     1      -2.892   1.914  24.784  0.00  0.00    +0.084 A 
ATOM      5  C   UNL     1      -2.155   1.685  24.491  0.00  0.00    +0.034 A 
ATOM      6  C   UNL     1      -2.014   0.894  24.303  0.00  0.00    +0.063 A 
ATOM      7  N   UNL     1      -2.608   0.333  24.408  0.00  0.00    -0.235 NA
BRANCH   4  26
ATOM     26  C   UNL     1      -3.033   2.705  24.971  0.00  0.00    +0.024 A 
ATOM     27  C   UNL     1      -3.467   3.180  24.456  0.00  0.00    +0.036 A 
ATOM     28 BR   UNL     1      -3.760   2.864  23.752  0.00  0.00    -0.049 Br
ATOM     29  C   UNL     1      -3.609   3.971  24.644  0.00  0.00    +0.007 A 
ATOM     30  C   UNL     1      -3.316   4.287  25.347  0.00  0.00    +0.001 A 
ATOM     31  C   UNL     1      -2.881   3.812  25.863  0.00  0.00    +0.000 A 
ATOM     32  C   UNL     1      -2.740   3.021  25.675  0.00  0.00    +0.002 A 
ENDBRANCH   4  26
ENDBRANCH   8   6
BRANCH  15  16
ATOM     16  C   UNL     1       0.835   0.016  23.153  0.00  0.00    +0.131 C 
BRANCH  16  17
ATOM     17  N   UNL     1       1.538   0.437  23.250  0.00  0.00    -0.203 NA
ATOM     18  C   UNL     1       2.165   0.317  22.729  0.00  0.00    +0.252 C 
ATOM     19  O   UNL     1       2.091  -0.223  22.110  0.00  0.00    -0.272 OA
BRANCH  18  20
ATOM     20  C   UNL     1       2.868   0.738  22.827  0.00  0.00    +0.145 C 
BRANCH  20  21
ATOM     21  S   UNL     1       3.588   0.336  22.870  0.00  0.00    -0.119 S 
BRANCH  21  22
ATOM     22  C   UNL     1       4.296   0.758  22.883  0.00  0.00    +0.172 C 
BRANCH  22  23
ATOM     23  C   UNL     1       4.956   0.445  23.265  0.00  0.00    +0.376 C 
ATOM     24  O   UNL     1       5.145   0.689  24.030  0.00  0.00    -0.245 OA
ATOM     25  O   UNL     1       5.428  -0.112  22.882  0.00  0.00    -0.245 OA
ENDBRANCH  22  23
ENDBRANCH  21  22
ENDBRANCH  20  21
ENDBRANCH  18  20
ENDBRANCH  16  17
ENDBRANCH  15  16
TORSDOF 8
ENDMDL
MODEL 3
REMARK VINA RESULT:      -9.2      2.193      2.715
REMARK  Name = 
REMARK  8 active torsions:
REMARK  status: ('A' for Active; 'I' for Inactive)
REMARK    1  A    between atoms: C_4  and  C_26
REMARK    2  A    between atoms: C_6  and  C_8
REMARK    3  A    between atoms: C_15  and  C_16
REMARK    4  A    between atoms: C_16  and  N_17
REMARK    5  A    between atoms: C_18  and  C_20
REMARK    6  A    between atoms: C_20  and  S_21
REMARK    7  A    between atoms: S_21  and  C_22
REMARK    8  A    between atoms: C_22  and  C_23
REMARK                            x       y       z     vdW  Elec       q    Type
REMARK                         _______ _______ _______ _____ _____    ______ ____
ROOT
ATOM      8  C   UNL     1      -1.013   1.470  24.291  0.00  0.00    +0.056 C 
ATOM      9  C   UNL     1      -0.835   1.643  23.554  0.00  0.00    +0.078 C 
ATOM     10  N   UNL     1      -0.499   1.041  24.008  0.00  0.00    -0.272 NA
ATOM     11  C   UNL     1      -0.956   1.073  24.951  0.00  0.00    +0.072 C 
ATOM     12  C   UNL     1      -1.022   0.841  25.558  0.00  0.00    +0.018 C 
ATOM     13  C   UNL     1      -0.679   0.877  24.730  0.00  0.00    +0.010 C 
ATOM     14  C   UNL     1      -0.061   0.283  24.542  0.00  0.00    +0.018 C 
ATOM     15  C   UNL     1       0.143   0.420  23.820  0.00  0.00    +0.079 C 
ENDROOT
BRANCH   8   6
ATOM      1  C   UNL     1      -1.736   3.697  25.931  0.00  0.00    +0.074 C 
ATOM      2  C   UNL     1      -1.953   3.043  25.477  0.00  0.00    +0.139 A 
ATOM      3  N   UNL     1      -2.750   2.849  25.391  0.00  0.00    -0.231 NA
ATOM      4  C   UNL     1      -2.969   2.195  24.937  0.00  0.00    +0.084 A 
ATOM      5  C   UNL     1      -2.390   1.735  24.571  0.00  0.00    +0.034 A 
ATOM      6  C   UNL     1      -1.593   1.930  24.658  0.00  0.00    +0.063 A 
ATOM      7  N   UNL     1      -1.374   2.583  25.111  0.00  0.00    -0.235 NA
BRANCH   4  26
ATOM     26  C   UNL     1      -3.766   2.000  24.850  0.00  0.00    +0.024 A 
ATOM     27  C   UNL     1      -4.248   2.450  24.355  0.00  0.00    +0.036 A 
ATOM     28 BR   UNL     1      -3.934   3.095  23.947  0.00  0.00    -0.049 Br
ATOM     29  C   UNL     1      -5.046   2.255  24.268  0.00  0.00    +0.007 A 
ATOM     30  C   UNL     1      -5.359   1.611  24.676  0.00  0.00    +0.001 A 
ATOM     31  C   UNL     1      -4.877   1.161  25.171  0.00  0.00    +0.000 A 
ATOM     32  C   UNL     1      -4.080   1.355  25.258  0.00  0.00    +0.002 A 
ENDBRANCH   4  26
ENDBRANCH   8   6
BRANCH  15  16
ATOM     16  C   UNL     1       0.648   0.161  23.221  0.00  0.00    +0.131 C 
BRANCH  16  17
ATOM     17  N   UNL     1       1.395   0.500  23.135  0.00  0.00    -0.203 NA
ATOM     18  C   UNL     1       1.928   0.187  22.589  0.00  0.00    +0.252 C 
ATOM     19  O   UNL     1       1.715  -0.464  22.129  0.00  0.00    -0.272 OA
BRANCH  18  20
ATOM     20  C   UNL     1       2.675   0.526  22.502  0.00  0.00    +0.145 C 
BRANCH  20  21
ATOM     21  S   UNL     1       3.335   0.162  22.837  0.00  0.00    -0.119 S 
BRANCH  21  22
ATOM     22  C   UNL     1       4.078   0.517  22.778  0.00  0.00    +0.172 C 
BRANCH  22  23
ATOM     23  C   UNL     1       4.688   0.285  23.280  0.00  0.00    +0.376 C 
ATOM     24  O   UNL     1       5.121   0.852  23.695  0.00  0.00    -0.245 OA
ATOM     25  O   UNL     1       4.866  -0.516  23.370  0.00  0.00    -0.245 OA
ENDBRANCH  22  23
ENDBRANCH  21  22
ENDBRANCH  20  21
ENDBRANCH  18  20
ENDBRANCH  16  17
ENDBRANCH  15  16
TORSDOF 8
ENDMDL
MODEL 4
REMARK VINA RESULT:      -9.2      3.819      5.367
REMARK  Name = 
REMARK  8 active torsions:
REMARK  status: ('A' for Active; 'I' for Inactive)
REMARK    1  A    between atoms: C_4  and  C_26
REMARK    2  A    between atoms: C_6  and  C_8
REMARK    3  A    between atoms: C_15  and  C_16
REMARK    4  A    between atoms: C_16  and  N_17
REMARK    5  A    between atoms: C_18  and  C_20
REMARK    6  A    between atoms: C_20  and  S_21
REMARK    7  A    between atoms: S_21  and  C_22
REMARK    8  A    between atoms: C_22  and  C_23
REMARK                            x       y       z     vdW  Elec       q    Type
REMARK                         _______ _______ _______ _____ _____    ______ ____
ROOT
ATOM      8  C   UNL     1      -1.203   1.935  24.823  0.00  0.00    +0.056 C 
ATOM      9  C   UNL     1      -1.240   1.464  25.442  0.00  0.00    +0.078 C 
ATOM     10  N   UNL     1      -0.925   1.274  24.703  0.00  0.00    -0.272 NA
ATOM     11  C   UNL     1      -1.028   2.123  24.095  0.00  0.00    +0.072 C 
ATOM     12  C   UNL     1      -0.945   2.424  23.521  0.00  0.00    +0.018 C 
ATOM     13  C   UNL     1      -0.893   1.741  24.101  0.00  0.00    +0.010 C 
ATOM     14  C   UNL     1      -0.526   1.004  23.797  0.00  0.00    +0.018 C 
ATOM     15  C   UNL     1      -0.543   0.511  24.380  0.00  0.00    +0.079 C 
ENDROOT
BRANCH   8   6
ATOM      1  C   UNL     1      -0.790   4.755  25.040  0.00  0.00    +0.074 C 
ATOM      2  C   UNL     1      -1.300   4.107  25.019  0.00  0.00    +0.139 A 
ATOM      3  N   UNL     1      -2.114   4.222  25.085  0.00  0.00    -0.231 NA
ATOM      4  C   UNL     1      -2.625   3.575  25.064  0.00  0.00    +0.084 A 
ATOM      5  C   UNL     1      -2.322   2.813  24.977  0.00  0.00    +0.034 A 
ATOM      6  C   UNL     1      -1.507   2.698  24.911  0.00  0.00    +0.063 A 
ATOM      7  N   UNL     1      -0.996   3.345  24.932  0.00  0.00    -0.235 NA
BRANCH   4  26
ATOM     26  C   UNL     1      -3.440   3.689  25.130  0.00  0.00    +0.024 A 
ATOM     27  C   UNL     1      -3.775   3.846  25.867  0.00  0.00    +0.036 A 
ATOM     28 BR   UNL     1      -3.296   3.889  26.538  0.00  0.00    -0.049 Br
ATOM     29  C   UNL     1      -4.590   3.960  25.933  0.00  0.00    +0.007 A 
ATOM     30  C   UNL     1      -5.068   3.917  25.262  0.00  0.00    +0.001 A 
ATOM     31  C   UNL     1      -4.732   3.760  24.526  0.00  0.00    +0.000 A 
ATOM     32  C   UNL     1      -3.918   3.646  24.459  0.00  0.00    +0.002 A 
ENDBRANCH   4  26
ENDBRANCH   8   6
BRANCH  15  16
ATOM     16  C   UNL     1      -0.337  -0.258  24.592  0.00  0.00    +0.131 C 
BRANCH  16  17
ATOM     17  N   UNL     1      -0.816  -0.891  24.369  0.00  0.00    -0.203 NA
ATOM     18  C   UNL     1      -0.781  -1.602  24.786  0.00  0.00    +0.252 C 
ATOM     19  O   UNL     1      -0.266  -1.681  25.425  0.00  0.00    -0.272 OA
BRANCH  18  20
ATOM     20  C   UNL     1      -1.261  -2.235  24.562  0.00  0.00    +0.145 C 
BRANCH  20  21
ATOM     21  S   UNL     1      -2.055  -2.249  24.785  0.00  0.00    -0.119 S 
BRANCH  21  22
ATOM     22  C   UNL     1      -2.567  -2.804  24.452  0.00  0.00    +0.172 C 
BRANCH  22  23
ATOM     23  C   UNL     1      -3.374  -2.773  24.619  0.00  0.00    +0.376 C 
ATOM     24  O   UNL     1      -3.635  -2.791  25.402  0.00  0.00    -0.245 OA
ATOM     25  O   UNL     1      -3.921  -2.726  24.003  0.00  0.00    -0.245 OA
ENDBRANCH  22  23
ENDBRANCH  21  22
ENDBRANCH  20  21
ENDBRANCH  18  20
ENDBRANCH  16  17
ENDBRANCH  15  16
TORSDOF 8
ENDMDL
MODEL 5
REMARK VINA RESULT:      -8.4      1.452      1.962
REMARK  Name = 
REMARK  8 active torsions:
REMARK  status: ('A' for Active; 'I' for Inactive)
REMARK    1  A    between atoms: C_4  and  C_26
REMARK    2  A    between atoms: C_6  and  C_8
REMARK    3  A    between atoms: C_15  and  C_16
REMARK    4  A    between atoms: C_16  and  N_17
REMARK    5  A    between atoms: C_18  and  C_20
REMARK    6  A    between atoms: C_20  and  S_21
REMARK    7  A    between atoms: S_21  and  C_22
REMARK    8  A    between atoms: C_22  and  C_23
REMARK                            x       y       z     vdW  Elec       q    Type
REMARK                         _______ _______ _______ _____ _____    ______ ____
ROOT
ATOM      8  C   UNL     1      -2.008   0.744  24.372  0.00  0.00    +0.056 C 
ATOM      9  C   UNL     1      -1.418   0.518  24.826  0.00  0.00    +0.078 C 
ATOM     10  N   UNL     1      -1.368   1.033  24.183  0.00  0.00    -0.272 NA
ATOM     11  C   UNL     1      -2.334   1.130  23.788  0.00  0.00    +0.072 C 
ATOM     12  C   UNL     1      -2.746   1.384  23.349  0.00  0.00    +0.018 C 
ATOM     13  C   UNL     1      -1.951   1.250  23.742  0.00  0.00    +0.010 C 
ATOM     14  C   UNL     1      -1.269   1.676  23.389  0.00  0.00    +0.018 C 
ATOM     15  C   UNL     1      -0.664   1.479  23.811  0.00  0.00    +0.079 C 
ENDROOT
BRANCH   8   6
ATOM      1  C   UNL     1      -4.667   1.131  25.344  0.00  0.00    +0.074 C 
ATOM      2  C   UNL     1      -4.085   0.637  25.033  0.00  0.00    +0.139 A 
ATOM      3  N   UNL     1      -4.252  -0.160  24.897  0.00  0.00    -0.231 NA
ATOM      4  C   UNL     1      -3.670  -0.655  24.585  0.00  0.00    +0.084 A 
ATOM      5  C   UNL     1      -2.922  -0.354  24.410  0.00  0.00    +0.034 A 
ATOM      6  C   UNL     1      -2.757   0.443  24.547  0.00  0.00    +0.063 A 
ATOM      7  N   UNL     1      -3.337   0.938  24.858  0.00  0.00    -0.235 NA
BRANCH   4  26
ATOM     26  C   UNL     1      -3.836  -1.452  24.449  0.00  0.00    +0.024 A 
ATOM     27  C   UNL     1      -3.631  -2.018  25.012  0.00  0.00    +0.036 A 
ATOM     28 BR   UNL     1      -3.260  -1.788  25.712  0.00  0.00    -0.049 Br
ATOM     29  C   UNL     1      -3.797  -2.815  24.876  0.00  0.00    +0.007 A 
ATOM     30  C   UNL     1      -4.168  -3.044  24.175  0.00  0.00    +0.001 A 
ATOM     31  C   UNL     1      -4.373  -2.478  23.612  0.00  0.00    +0.000 A 
ATOM     32  C   UNL     1      -4.207  -1.681  23.748  0.00  0.00    +0.002 A 
ENDBRANCH   4  26
ENDBRANCH   8   6
BRANCH  15  16
ATOM     16  C   UNL     1       0.148   1.599  23.885  0.00  0.00    +0.131 C 
BRANCH  16  17
ATOM     17  N   UNL     1       0.678   1.067  23.542  0.00  0.00    -0.203 NA
ATOM     18  C   UNL     1       1.485   1.233  23.540  0.00  0.00    +0.252 C 
ATOM     19  O   UNL     1       1.765   1.931  23.882  0.00  0.00    -0.272 OA
BRANCH  18  20
ATOM     20  C   UNL     1       2.015   0.702  23.197  0.00  0.00    +0.145 C 
BRANCH  20  21
ATOM     21  S   UNL     1       2.814   0.898  23.132  0.00  0.00    -0.119 S 
BRANCH  21  22
ATOM     22  C   UNL     1       3.356   0.339  22.861  0.00  0.00    +0.172 C 
BRANCH  22  23
ATOM     23  C   UNL     1       4.130   0.564  22.688  0.00  0.00    +0.376 C 
ATOM     24  O   UNL     1       4.726   0.457  23.249  0.00  0.00    -0.245 OA
ATOM     25  O   UNL     1       4.309   0.896  21.955  0.00  0.00    -0.245 OA
ENDBRANCH  22  23
ENDBRANCH  21  22
ENDBRANCH  20  21
ENDBRANCH  18  20
ENDBRANCH  16  17
ENDBRANCH  15  16
TORSDOF 8
ENDMDL
MODEL 6
REMARK VINA RESULT:      -8.3      3.741      5.222
REMARK  Name = 
REMARK  8 active torsions:
REMARK  status: ('A' for Active; 'I' for Inactive)
REMARK    1  A    between atoms: C_4  and  C_26
REMARK    2  A    between atoms: C_6  and  C_8
REMARK    3  A    between atoms: C_15  and  C_16
REMARK    4  A    between atoms: C_16  and  N_17
REMARK    5  A    between atoms: C_18  and  C_20
REMARK    6  A    between atoms: C_20  and  S_21
REMARK    7  A    between atoms: S_21  and  C_22
REMARK    8  A    between atoms: C_22  and  C_23
REMARK                            x       y       z     vdW  Elec       q    Type
REMARK                         _______ _______ _______ _____ _____    ______ ____
ROOT
ATOM      8  C   UNL     1      -1.333   0.460  24.943  0.00  0.00    +0.056 C 
ATOM      9  C   UNL     1      -1.723   0.822  25.511  0.00  0.00    +0.078 C 
ATOM     10  N   UNL     1      -1.331   1.185  24.882  0.00  0.00    -0.272 NA
ATOM     11  C   UNL     1      -0.910   0.422  24.298  0.00  0.00    +0.072 C 
ATOM     12  C   UNL     1      -0.562   0.231  23.779  0.00  0.00    +0.018 C 
ATOM     13  C   UNL     1      -0.951   0.824  24.328  0.00  0.00    +0.010 C 
ATOM     14  C   UNL     1      -0.855   1.669  24.113  0.00  0.00    +0.018 C 
ATOM     15  C   UNL     1      -1.227   2.062  24.652  0.00  0.00    +0.079 C 
ENDROOT
BRANCH   8   6
ATOM      1  C   UNL     1       0.118  -1.957  25.411  0.00  0.00    +0.074 C 
ATOM      2  C   UNL     1      -0.581  -1.572  25.202  0.00  0.00    +0.139 A 
ATOM      3  N   UNL     1      -1.254  -2.013  25.018  0.00  0.00    -0.231 NA
ATOM      4  C   UNL     1      -1.954  -1.629  24.809  0.00  0.00    +0.084 A 
ATOM      5  C   UNL     1      -1.980  -0.805  24.784  0.00  0.00    +0.034 A 
ATOM      6  C   UNL     1      -1.307  -0.365  24.968  0.00  0.00    +0.063 A 
ATOM      7  N   UNL     1      -0.608  -0.748  25.177  0.00  0.00    -0.235 NA
BRANCH   4  26
ATOM     26  C   UNL     1      -2.627  -2.069  24.626  0.00  0.00    +0.024 A 
ATOM     27  C   UNL     1      -3.189  -2.225  25.209  0.00  0.00    +0.036 A 
ATOM     28 BR   UNL     1      -3.078  -1.942  25.975  0.00  0.00    -0.049 Br
ATOM     29  C   UNL     1      -3.863  -2.665  25.025  0.00  0.00    +0.007 A 
ATOM     30  C   UNL     1      -3.973  -2.949  24.258  0.00  0.00    +0.001 A 
ATOM     31  C   UNL     1      -3.411  -2.792  23.675  0.00  0.00    +0.000 A 
ATOM     32  C   UNL     1      -2.738  -2.352  23.859  0.00  0.00    +0.002 A 
ENDBRANCH   4  26
ENDBRANCH   8   6
BRANCH  15  16
ATOM     16  C   UNL     1      -1.421   2.828  24.887  0.00  0.00    +0.131 C 
BRANCH  16  17
ATOM     17  N   UNL     1      -2.178   3.124  24.747  0.00  0.00    -0.203 NA
ATOM     18  C   UNL     1      -2.429   3.810  25.129  0.00  0.00    +0.252 C 
ATOM     19  O   UNL     1      -1.923   4.201  25.651  0.00  0.00    -0.272 OA
BRANCH  18  20
ATOM     20  C   UNL     1      -3.186   4.107  24.989  0.00  0.00    +0.145 C 
BRANCH  20  21
ATOM     21  S   UNL     1      -3.824   3.836  25.436  0.00  0.00    -0.119 S 
BRANCH  21  22
ATOM     22  C   UNL     1      -4.582   3.827  25.110  0.00  0.00    +0.172 C 
BRANCH  22  23
ATOM     23  C   UNL     1      -5.232   3.638  25.581  0.00  0.00    +0.376 C 
ATOM     24  O   UNL     1      -5.318   2.874  25.879  0.00  0.00    -0.245 OA
ATOM     25  O   UNL     1      -5.797   4.214  25.754  0.00  0.00    -0.245 OA
ENDBRANCH  22  23
ENDBRANCH  21  22
ENDBRANCH  20  21
ENDBRANCH  18  20
ENDBRANCH  16  17
ENDBRANCH  15  16
TORSDOF 8
ENDMDL
MODEL 7
REMARK VINA RESULT:      -8.0      3.802      5.748
REMARK  Name = 
REMARK  8 active torsions:
REMARK  status: ('A' for Active; 'I' for Inactive)
REMARK    1  A    between atoms: C_4  and  C_26
REMARK    2  A    between atoms: C_6  and  C_8
REMARK    3  A    between atoms: C_15  and  C_16
REMARK    4  A    between atoms: C_16  and  N_17
REMARK    5  A    between atoms: C_18  and  C_20
REMARK    6  A    between atoms: C_20  and  S_21
REMARK    7  A    between atoms: S_21  and  C_22
REMARK    8  A    between atoms: C_22  and  C_23
REMARK                            x       y       z     vdW  Elec       q    Type
REMARK                         _______ _______ _______ _____ _____    ______ ____
ROOT
ATOM      8  C   UNL     1      -4.160   1.417  25.001  0.00  0.00    +0.056 C 
ATOM      9  C   UNL     1      -3.930   0.967  25.593  0.00  0.00    +0.078 C 
ATOM     10  N   UNL     1      -4.141   0.709  24.838  0.00  0.00    -0.272 NA
ATOM     11  C   UNL     1      -4.399   1.559  24.281  0.00  0.00    +0.072 C 
ATOM     12  C   UNL     1      -4.600   1.834  23.723  0.00  0.00    +0.018 C 
ATOM     13  C   UNL     1      -4.365   1.157  24.262  0.00  0.00    +0.010 C 
ATOM     14  C   UNL     1      -4.395   0.354  23.910  0.00  0.00    +0.018 C 
ATOM     15  C   UNL     1      -4.175  -0.123  24.464  0.00  0.00    +0.079 C 
ENDROOT
BRANCH   8   6
ATOM      1  C   UNL     1      -5.681   3.755  25.627  0.00  0.00    +0.074 C 
ATOM      2  C   UNL     1      -4.958   3.399  25.450  0.00  0.00    +0.139 A 
ATOM      3  N   UNL     1      -4.273   3.856  25.411  0.00  0.00    -0.231 NA
ATOM      4  C   UNL     1      -3.549   3.501  25.234  0.00  0.00    +0.084 A 
ATOM      5  C   UNL     1      -3.511   2.688  25.098  0.00  0.00    +0.034 A 
ATOM      6  C   UNL     1      -4.197   2.231  25.138  0.00  0.00    +0.063 A 
ATOM      7  N   UNL     1      -4.920   2.586  25.314  0.00  0.00    -0.235 NA
BRANCH   4  26
ATOM     26  C   UNL     1      -2.863   3.958  25.194  0.00  0.00    +0.024 A 
ATOM     27  C   UNL     1      -2.465   4.166  25.886  0.00  0.00    +0.036 A 
ATOM     28 BR   UNL     1      -2.754   3.917  26.618  0.00  0.00    -0.049 Br
ATOM     29  C   UNL     1      -1.779   4.623  25.846  0.00  0.00    +0.007 A 
ATOM     30  C   UNL     1      -1.492   4.872  25.114  0.00  0.00    +0.001 A 
ATOM     31  C   UNL     1      -1.890   4.664  24.422  0.00  0.00    +0.000 A 
ATOM     32  C   UNL     1      -2.576   4.206  24.462  0.00  0.00    +0.002 A 
ENDBRANCH   4  26
ENDBRANCH   8   6
BRANCH  15  16
ATOM     16  C   UNL     1      -4.045  -0.920  24.628  0.00  0.00    +0.131 C 
BRANCH  16  17
ATOM     17  N   UNL     1      -3.325  -1.270  24.430  0.00  0.00    -0.203 NA
ATOM     18  C   UNL     1      -3.133  -2.015  24.728  0.00  0.00    +0.252 C 
ATOM     19  O   UNL     1      -3.661  -2.410  25.225  0.00  0.00    -0.272 OA
BRANCH  18  20
ATOM     20  C   UNL     1      -2.413  -2.365  24.530  0.00  0.00    +0.145 C 
BRANCH  20  21
ATOM     21  S   UNL     1      -1.725  -2.152  24.933  0.00  0.00    -0.119 S 
BRANCH  21  22
ATOM     22  C   UNL     1      -1.001  -2.145  24.539  0.00  0.00    +0.172 C 
BRANCH  22  23
ATOM     23  C   UNL     1      -0.358  -1.745  24.864  0.00  0.00    +0.376 C 
ATOM     24  O   UNL     1      -0.023  -2.006  25.571  0.00  0.00    -0.245 OA
ATOM     25  O   UNL     1      -0.049  -1.082  24.481  0.00  0.00    -0.245 OA
ENDBRANCH  22  23
ENDBRANCH  21  22
ENDBRANCH  20  21
ENDBRANCH  18  20
ENDBRANCH  16  17
ENDBRANCH  15  16
TORSDOF 8
ENDMDL
