MODEL 1
REMARK VINA RESULT:     -14.3      0.000      0.000
REMARK  Name = 
REMARK  3 active torsions:
REMARK  status: ('A' for Active; 'I' for Inactive)
REMARK    1  A    between atoms: C_2  and  C_3
REMARK    2  A    between atoms: C_2  and  C_20
REMARK    3  A    between atoms: C_10  and  N_11
REMARK                            x       y       z     vdW  Elec       q    Type
REMARK                         _______ _______ _______ _____ _____    ______ ____
ROOT
ATOM      3  C   UNL     1      -4.064   0.963  24.690  0.00  0.00    +0.039 C 
ATOM      4  C   UNL     1      -4.770   1.199  25.050  0.00  0.00    +0.003 C 
ATOM      5  C   UNL     1      -4.879   1.987  25.266  0.00  0.00    +0.000 C 
ATOM      6  C   UNL     1      -4.284   2.540  25.123  0.00  0.00    +0.002 C 
ATOM      7  C   UNL     1      -4.988   2.775  25.482  0.00  0.00    +0.000 C 
ATOM      8  C   UNL     1      -4.393   3.329  25.339  0.00  0.00    +0.002 C 
ATOM      9  C   UNL     1      -3.799   3.882  25.197  0.00  0.00    +0.022 C 
ATOM     10  C   UNL     1      -3.094   3.646  24.837  0.00  0.00    +0.095 C 
ATOM     15  C   UNL     1      -2.984   2.858  24.621  0.00  0.00    +0.022 C 
ATOM     16  C   UNL     1      -2.280   2.623  24.262  0.00  0.00    +0.002 C 
ATOM     17  C   UNL     1      -3.579   2.304  24.764  0.00  0.00    +0.032 C 
ATOM     18  C   UNL     1      -3.470   1.516  24.547  0.00  0.00    +0.152 C 
ATOM     19  O   UNL     1      -2.766   1.281  24.188  0.00  0.00    -0.223 OA
ENDROOT
BRANCH  10  11
ATOM     11  N   UNL     1      -2.499   4.200  24.694  0.00  0.00    -0.207 NA
ATOM     12  C   UNL     1      -2.189   4.643  25.317  0.00  0.00    +0.242 C 
ATOM     13  C   UNL     1      -1.594   5.197  25.174  0.00  0.00    +0.096 C 
ATOM     14  O   UNL     1      -2.474   4.533  26.084  0.00  0.00    -0.273 OA
ENDBRANCH  10  11
BRANCH   3   2
ATOM      1  C   UNL     1      -4.050  -0.056  23.687  0.00  0.00    +0.010 C 
ATOM      2  C   UNL     1      -3.956   0.174  24.474  0.00  0.00    +0.079 C 
BRANCH   2  20
ATOM     20  C   UNL     1      -3.752  -0.385  25.045  0.00  0.00    +0.225 C 
ATOM     21  O   UNL     1      -3.572  -0.143  25.814  0.00  0.00    -0.275 OA
ATOM     22  N   UNL     1      -3.727  -1.186  24.848  0.00  0.00    -0.280 N 
ATOM     23  C   UNL     1      -3.523  -1.745  25.419  0.00  0.00    +0.093 C 
ATOM     24  C   UNL     1      -3.498  -2.546  25.222  0.00  0.00    +0.022 C 
ATOM     25  C   UNL     1      -3.677  -2.786  24.454  0.00  0.00    +0.003 C 
ATOM     26  C   UNL     1      -3.652  -3.588  24.257  0.00  0.00    +0.000 C 
ATOM     27  C   UNL     1      -3.881  -2.228  23.884  0.00  0.00    +0.022 C 
ATOM     28  C   UNL     1      -3.906  -1.427  24.080  0.00  0.00    +0.093 C 
ENDBRANCH   2  20
ENDBRANCH   3   2
TORSDOF 3
ENDMDL
MODEL 2
REMARK VINA RESULT:     -13.8      1.266      5.270
REMARK  Name = 
REMARK  3 active torsions:
REMARK  status: ('A' for Active; 'I' for Inactive)
REMARK    1  A    between atoms: C_2  and  C_3
REMARK    2  A    between atoms: C_2  and  C_20
REMARK    3  A    between atoms: C_10  and  N_11
REMARK                            x       y       z     vdW  Elec       q    Type
REMARK                         _______ _______ _______ _____ _____    ______ ____
ROOT
ATOM      3  C   UNL     1      -2.461   1.276  24.641  0.00  0.00    +0.039 C 
ATOM      4  C   UNL     1      -1.855   1.095  25.173  0.00  0.00    +0.003 C 
ATOM      5  C   UNL     1      -1.777   0.326  25.461  0.00  0.00    +0.000 C 
ATOM      6  C   UNL     1      -2.302  -0.261  25.219  0.00  0.00    +0.002 C 
ATOM      7  C   UNL     1      -1.698  -0.442  25.749  0.00  0.00    +0.000 C 
ATOM      8  C   UNL     1      -2.224  -1.030  25.507  0.00  0.00    +0.002 C 
ATOM      9  C   UNL     1      -2.749  -1.617  25.265  0.00  0.00    +0.022 C 
ATOM     10  C   UNL     1      -3.355  -1.436  24.733  0.00  0.00    +0.095 C 
ATOM     15  C   UNL     1      -3.433  -0.667  24.445  0.00  0.00    +0.022 C 
ATOM     16  C   UNL     1      -4.038  -0.486  23.913  0.00  0.00    +0.002 C 
ATOM     17  C   UNL     1      -2.907  -0.079  24.687  0.00  0.00    +0.032 C 
ATOM     18  C   UNL     1      -2.986   0.689  24.399  0.00  0.00    +0.152 C 
ATOM     19  O   UNL     1      -3.591   0.870  23.867  0.00  0.00    -0.223 OA
ENDROOT
BRANCH  10  11
ATOM     11  N   UNL     1      -3.880  -2.024  24.490  0.00  0.00    -0.207 NA
ATOM     12  C   UNL     1      -3.595  -2.758  24.249  0.00  0.00    +0.242 C 
ATOM     13  C   UNL     1      -4.121  -3.347  24.006  0.00  0.00    +0.096 C 
ATOM     14  O   UNL     1      -2.782  -2.906  24.249  0.00  0.00    -0.273 OA
ENDBRANCH  10  11
BRANCH   3   2
ATOM      1  C   UNL     1      -2.415   2.202  23.552  0.00  0.00    +0.010 C 
ATOM      2  C   UNL     1      -2.539   2.046  24.353  0.00  0.00    +0.079 C 
BRANCH   2  20
ATOM     20  C   UNL     1      -2.742   2.659  24.866  0.00  0.00    +0.225 C 
ATOM     21  O   UNL     1      -3.410   2.592  25.346  0.00  0.00    -0.275 OA
ATOM     22  N   UNL     1      -2.276   3.340  24.899  0.00  0.00    -0.280 N 
ATOM     23  C   UNL     1      -2.479   3.953  25.412  0.00  0.00    +0.093 C 
ATOM     24  C   UNL     1      -2.014   4.634  25.445  0.00  0.00    +0.022 C 
ATOM     25  C   UNL     1      -1.346   4.700  24.965  0.00  0.00    +0.003 C 
ATOM     26  C   UNL     1      -0.881   5.381  24.999  0.00  0.00    +0.000 C 
ATOM     27  C   UNL     1      -1.144   4.087  24.453  0.00  0.00    +0.022 C 
ATOM     28  C   UNL     1      -1.609   3.407  24.419  0.00  0.00    +0.093 C 
ENDBRANCH   2  20
ENDBRANCH   3   2
TORSDOF 3
ENDMDL
MODEL 3
REMARK VINA RESULT:     -13.7      1.163      1.885
REMARK  Name = 
REMARK  3 active torsions:
REMARK  status: ('A' for Active; 'I' for Inactive)
REMARK    1  A    between atoms: C_2  and  C_3
REMARK    2  A    between atoms: C_2  and  C_20
REMARK    3  A    between atoms: C_10  and  N_11
REMARK                            x       y       z     vdW  Elec       q    Type
REMARK                         _______ _______ _______ _____ _____    ______ ____
ROOT
ATOM      3  C   UNL     1      -2.605   0.851  24.944  0.00  0.00    +0.039 C 
ATOM      4  C   UNL     1      -1.823   0.584  24.920  0.00  0.00    +0.003 C 
ATOM      5  C   UNL     1      -1.202   1.123  24.985  0.00  0.00    +0.000 C 
ATOM      6  C   UNL     1      -1.361   1.926  25.075  0.00  0.00    +0.002 C 
ATOM      7  C   UNL     1      -0.581   1.661  25.051  0.00  0.00    +0.000 C 
ATOM      8  C   UNL     1      -0.740   2.466  25.140  0.00  0.00    +0.002 C 
ATOM      9  C   UNL     1      -0.898   3.270  25.230  0.00  0.00    +0.022 C 
ATOM     10  C   UNL     1      -1.680   3.536  25.254  0.00  0.00    +0.095 C 
ATOM     15  C   UNL     1      -2.301   2.998  25.189  0.00  0.00    +0.022 C 
ATOM     16  C   UNL     1      -3.081   3.264  25.213  0.00  0.00    +0.002 C 
ATOM     17  C   UNL     1      -2.142   2.193  25.099  0.00  0.00    +0.032 C 
ATOM     18  C   UNL     1      -2.763   1.655  25.034  0.00  0.00    +0.152 C 
ATOM     19  O   UNL     1      -3.544   1.921  25.058  0.00  0.00    -0.223 OA
ENDROOT
BRANCH  10  11
ATOM     11  N   UNL     1      -1.838   4.341  25.344  0.00  0.00    -0.207 NA
ATOM     12  C   UNL     1      -1.319   4.901  25.033  0.00  0.00    +0.242 C 
ATOM     13  C   UNL     1      -1.477   5.706  25.123  0.00  0.00    +0.096 C 
ATOM     14  O   UNL     1      -0.640   4.656  24.631  0.00  0.00    -0.273 OA
ENDBRANCH  10  11
BRANCH   3   2
ATOM      1  C   UNL     1      -3.880   0.489  24.408  0.00  0.00    +0.010 C 
ATOM      2  C   UNL     1      -3.226   0.312  24.879  0.00  0.00    +0.079 C 
BRANCH   2  20
ATOM     20  C   UNL     1      -3.193  -0.406  25.285  0.00  0.00    +0.225 C 
ATOM     21  O   UNL     1      -2.924  -0.427  26.065  0.00  0.00    -0.275 OA
ATOM     22  N   UNL     1      -3.429  -1.103  24.911  0.00  0.00    -0.280 N 
ATOM     23  C   UNL     1      -3.396  -1.820  25.317  0.00  0.00    +0.093 C 
ATOM     24  C   UNL     1      -3.632  -2.517  24.943  0.00  0.00    +0.022 C 
ATOM     25  C   UNL     1      -3.901  -2.495  24.164  0.00  0.00    +0.003 C 
ATOM     26  C   UNL     1      -4.137  -3.192  23.790  0.00  0.00    +0.000 C 
ATOM     27  C   UNL     1      -3.934  -1.778  23.758  0.00  0.00    +0.022 C 
ATOM     28  C   UNL     1      -3.698  -1.082  24.132  0.00  0.00    +0.093 C 
ENDBRANCH   2  20
ENDBRANCH   3   2
TORSDOF 3
ENDMDL
