MODEL 1
REMARK VINA RESULT:     -13.2      0.000      0.000
REMARK  Name = 
REMARK  6 active torsions:
REMARK  status: ('A' for Active; 'I' for Inactive)
REMARK    1  A    between atoms: C_5  and  C_6
REMARK    2  A    between atoms: C_6  and  C_7
REMARK    3  A    between atoms: C_10  and  C_12
REMARK    4  A    between atoms: C_20  and  C_21
REMARK    5  A    between atoms: C_21  and  N_22
REMARK    6  A    between atoms: N_25  and  C_26
REMARK                            x       y       z     vdW  Elec       q    Type
REMARK                         _______ _______ _______ _____ _____    ______ ____
ROOT
ATOM      1  O   UNL     1       0.603   1.891  24.956  0.00  0.00    -0.220 OA
ATOM      2  C   UNL     1      -0.045   2.347  25.186  0.00  0.00    +0.181 C 
ATOM      3  C   UNL     1       0.009   3.171  25.185  0.00  0.00    +0.038 C 
ATOM      4  C   UNL     1      -0.639   3.626  25.416  0.00  0.00    +0.033 C 
ATOM      5  C   UNL     1      -1.340   3.260  25.646  0.00  0.00    +0.121 C 
ATOM     19  O   UNL     1      -1.394   2.436  25.647  0.00  0.00    -0.354 OA
ATOM     20  C   UNL     1      -0.747   1.980  25.416  0.00  0.00    +0.167 C 
ENDROOT
BRANCH   5   6
ATOM      6  C   UNL     1      -1.988   3.715  25.876  0.00  0.00    +0.079 C 
BRANCH   6   7
ATOM      7  C   UNL     1      -2.704   3.649  25.471  0.00  0.00    +0.103 A 
ATOM      8  N   UNL     1      -2.918   4.068  24.794  0.00  0.00    -0.081 NA
ATOM      9  O   UNL     1      -3.677   3.830  24.576  0.00  0.00    -0.354 OA
ATOM     10  C   UNL     1      -3.932   3.264  25.119  0.00  0.00    +0.177 A 
ATOM     11  C   UNL     1      -3.330   3.152  25.673  0.00  0.00    +0.058 A 
BRANCH  10  12
ATOM     12  C   UNL     1      -4.661   2.877  25.111  0.00  0.00    +0.037 A 
ATOM     13  C   UNL     1      -4.761   2.196  24.655  0.00  0.00    +0.005 A 
ATOM     14  C   UNL     1      -5.490   1.809  24.646  0.00  0.00    +0.030 A 
ATOM     15  C   UNL     1      -6.118   2.104  25.094  0.00  0.00    +0.140 A 
ATOM     16  F   UNL     1      -6.847   1.716  25.085  0.00  0.00    -0.204 F 
ATOM     17  C   UNL     1      -6.018   2.784  25.548  0.00  0.00    +0.030 A 
ATOM     18  C   UNL     1      -5.289   3.171  25.557  0.00  0.00    +0.005 A 
ENDBRANCH  10  12
ENDBRANCH   6   7
ENDBRANCH   5   6
BRANCH  20  21
ATOM     21  C   UNL     1      -0.801   1.158  25.417  0.00  0.00    +0.149 C 
BRANCH  21  22
ATOM     22  N   UNL     1      -1.291   0.776  24.874  0.00  0.00    -0.185 NA
ATOM     23  C   UNL     1      -1.635   0.051  25.066  0.00  0.00    +0.339 C 
ATOM     24  O   UNL     1      -1.490  -0.292  25.802  0.00  0.00    -0.249 OA
ATOM     25  N   UNL     1      -2.124  -0.330  24.523  0.00  0.00    -0.189 NA
BRANCH  25  26
ATOM     26  C   UNL     1      -2.469  -1.055  24.716  0.00  0.00    +0.097 C 
ATOM     27  C   UNL     1      -2.086  -1.759  24.518  0.00  0.00    +0.022 C 
ATOM     28  C   UNL     1      -2.430  -2.484  24.710  0.00  0.00    +0.002 C 
ATOM     29  C   UNL     1      -3.157  -2.505  25.100  0.00  0.00    +0.000 C 
ATOM     30  C   UNL     1      -3.539  -1.800  25.297  0.00  0.00    +0.002 C 
ATOM     31  C   UNL     1      -3.195  -1.076  25.105  0.00  0.00    +0.022 C 
ENDBRANCH  25  26
ENDBRANCH  21  22
ENDBRANCH  20  21
TORSDOF 6
ENDMDL
MODEL 2
REMARK VINA RESULT:     -13.0      1.270      3.948
REMARK  Name = 
REMARK  6 active torsions:
REMARK  status: ('A' for Active; 'I' for Inactive)
REMARK    1  A    between atoms: C_5  and  C_6
REMARK    2  A    between atoms: C_6  and  C_7
REMARK    3  A    between atoms: C_10  and  C_12
REMARK    4  A    between atoms: C_20  and  C_21
REMARK    5  A    between atoms: C_21  and  N_22
REMARK    6  A    between atoms: N_25  and  C_26
REMARK                            x       y       z     vdW  Elec       q    Type
REMARK                         _______ _______ _______ _____ _____    ______ ____
ROOT
ATOM      1  O   UNL     1       0.160  -0.691  24.124  0.00  0.00    -0.220 OA
ATOM      2  C   UNL     1      -0.593  -0.780  24.448  0.00  0.00    +0.181 C 
ATOM      3  C   UNL     1      -0.918  -1.533  24.539  0.00  0.00    +0.038 C 
ATOM      4  C   UNL     1      -1.671  -1.620  24.864  0.00  0.00    +0.033 C 
ATOM      5  C   UNL     1      -2.100  -0.956  25.098  0.00  0.00    +0.121 C 
ATOM     19  O   UNL     1      -1.775  -0.203  25.008  0.00  0.00    -0.354 OA
ATOM     20  C   UNL     1      -1.022  -0.114  24.683  0.00  0.00    +0.167 C 
ENDROOT
BRANCH   5   6
ATOM      6  C   UNL     1      -2.852  -1.044  25.423  0.00  0.00    +0.079 C 
BRANCH   6   7
ATOM      7  C   UNL     1      -3.486  -0.611  25.118  0.00  0.00    +0.103 A 
ATOM      8  N   UNL     1      -3.975  -0.841  24.496  0.00  0.00    -0.081 NA
ATOM      9  O   UNL     1      -4.533  -0.244  24.377  0.00  0.00    -0.354 OA
ATOM     10  C   UNL     1      -4.387   0.355  24.926  0.00  0.00    +0.177 A 
ATOM     11  C   UNL     1      -3.740   0.128  25.385  0.00  0.00    +0.058 A 
BRANCH  10  12
ATOM     12  C   UNL     1      -4.814   1.056  25.003  0.00  0.00    +0.037 A 
ATOM     13  C   UNL     1      -5.417   1.112  25.564  0.00  0.00    +0.005 A 
ATOM     14  C   UNL     1      -5.844   1.815  25.641  0.00  0.00    +0.030 A 
ATOM     15  C   UNL     1      -5.668   2.460  25.158  0.00  0.00    +0.140 A 
ATOM     16  F   UNL     1      -6.095   3.162  25.235  0.00  0.00    -0.204 F 
ATOM     17  C   UNL     1      -5.066   2.403  24.598  0.00  0.00    +0.030 A 
ATOM     18  C   UNL     1      -4.638   1.701  24.520  0.00  0.00    +0.005 A 
ENDBRANCH  10  12
ENDBRANCH   6   7
ENDBRANCH   5   6
BRANCH  20  21
ATOM     21  C   UNL     1      -0.697   0.638  24.593  0.00  0.00    +0.149 C 
BRANCH  21  22
ATOM     22  N   UNL     1      -0.748   1.186  25.208  0.00  0.00    -0.185 NA
ATOM     23  C   UNL     1      -0.916   1.976  25.043  0.00  0.00    +0.339 C 
ATOM     24  O   UNL     1      -1.034   2.219  24.264  0.00  0.00    -0.249 OA
ATOM     25  N   UNL     1      -0.967   2.523  25.658  0.00  0.00    -0.189 NA
BRANCH  25  26
ATOM     26  C   UNL     1      -1.135   3.315  25.493  0.00  0.00    +0.097 C 
ATOM     27  C   UNL     1      -1.876   3.626  25.679  0.00  0.00    +0.022 C 
ATOM     28  C   UNL     1      -2.045   4.417  25.515  0.00  0.00    +0.002 C 
ATOM     29  C   UNL     1      -1.471   4.896  25.164  0.00  0.00    +0.000 C 
ATOM     30  C   UNL     1      -0.731   4.585  24.979  0.00  0.00    +0.002 C 
ATOM     31  C   UNL     1      -0.562   3.794  25.143  0.00  0.00    +0.022 C 
ENDBRANCH  25  26
ENDBRANCH  21  22
ENDBRANCH  20  21
TORSDOF 6
ENDMDL
MODEL 3
REMARK VINA RESULT:     -12.9      1.970      3.906
REMARK  Name = 
REMARK  6 active torsions:
REMARK  status: ('A' for Active; 'I' for Inactive)
REMARK    1  A    between atoms: C_5  and  C_6
REMARK    2  A    between atoms: C_6  and  C_7
REMARK    3  A    between atoms: C_10  and  C_12
REMARK    4  A    between atoms: C_20  and  C_21
REMARK    5  A    between atoms: C_21  and  N_22
REMARK    6  A    between atoms: N_25  and  C_26
REMARK                            x       y       z     vdW  Elec       q    Type
REMARK                         _______ _______ _______ _____ _____    ______ ____
ROOT
ATOM      1  O   UNL     1      -6.265   1.963  26.029  0.00  0.00    -0.220 OA
ATOM      2  C   UNL     1      -5.666   2.404  25.671  0.00  0.00    +0.181 C 
ATOM      3  C   UNL     1      -5.696   3.228  25.686  0.00  0.00    +0.038 C 
ATOM      4  C   UNL     1      -5.096   3.668  25.328  0.00  0.00    +0.033 C 
ATOM      5  C   UNL     1      -4.468   3.285  24.956  0.00  0.00    +0.121 C 
ATOM     19  O   UNL     1      -4.439   2.460  24.941  0.00  0.00    -0.354 OA
ATOM     20  C   UNL     1      -5.038   2.020  25.299  0.00  0.00    +0.167 C 
ENDROOT
BRANCH   5   6
ATOM      6  C   UNL     1      -3.870   3.725  24.598  0.00  0.00    +0.079 C 
BRANCH   6   7
ATOM      7  C   UNL     1      -3.109   3.724  24.920  0.00  0.00    +0.103 A 
ATOM      8  N   UNL     1      -2.825   4.243  25.494  0.00  0.00    -0.081 NA
ATOM      9  O   UNL     1      -2.040   4.043  25.651  0.00  0.00    -0.354 OA
ATOM     10  C   UNL     1      -1.839   3.401  25.174  0.00  0.00    +0.177 A 
ATOM     11  C   UNL     1      -2.500   3.203  24.722  0.00  0.00    +0.058 A 
BRANCH  10  12
ATOM     12  C   UNL     1      -1.107   3.023  25.153  0.00  0.00    +0.037 A 
ATOM     13  C   UNL     1      -0.819   2.644  25.828  0.00  0.00    +0.005 A 
ATOM     14  C   UNL     1      -0.085   2.265  25.807  0.00  0.00    +0.030 A 
ATOM     15  C   UNL     1       0.359   2.265  25.112  0.00  0.00    +0.140 A 
ATOM     16  F   UNL     1       1.092   1.887  25.091  0.00  0.00    -0.204 F 
ATOM     17  C   UNL     1       0.071   2.643  24.438  0.00  0.00    +0.030 A 
ATOM     18  C   UNL     1      -0.662   3.022  24.459  0.00  0.00    +0.005 A 
ENDBRANCH  10  12
ENDBRANCH   6   7
ENDBRANCH   5   6
BRANCH  20  21
ATOM     21  C   UNL     1      -5.008   1.196  25.285  0.00  0.00    +0.149 C 
BRANCH  21  22
ATOM     22  N   UNL     1      -4.613   0.808  24.674  0.00  0.00    -0.185 NA
ATOM     23  C   UNL     1      -4.391   0.018  24.762  0.00  0.00    +0.339 C 
ATOM     24  O   UNL     1      -4.564  -0.383  25.461  0.00  0.00    -0.249 OA
ATOM     25  N   UNL     1      -3.996  -0.370  24.151  0.00  0.00    -0.189 NA
BRANCH  25  26
ATOM     26  C   UNL     1      -3.773  -1.160  24.240  0.00  0.00    +0.097 C 
ATOM     27  C   UNL     1      -3.076  -1.349  24.639  0.00  0.00    +0.022 C 
ATOM     28  C   UNL     1      -2.853  -2.139  24.727  0.00  0.00    +0.002 C 
ATOM     29  C   UNL     1      -3.328  -2.739  24.417  0.00  0.00    +0.000 C 
ATOM     30  C   UNL     1      -4.025  -2.548  24.018  0.00  0.00    +0.002 C 
ATOM     31  C   UNL     1      -4.247  -1.759  23.930  0.00  0.00    +0.022 C 
ENDBRANCH  25  26
ENDBRANCH  21  22
ENDBRANCH  20  21
TORSDOF 6
ENDMDL
MODEL 4
REMARK VINA RESULT:     -12.9      2.042      5.367
REMARK  Name = 
REMARK  6 active torsions:
REMARK  status: ('A' for Active; 'I' for Inactive)
REMARK    1  A    between atoms: C_5  and  C_6
REMARK    2  A    between atoms: C_6  and  C_7
REMARK    3  A    between atoms: C_10  and  C_12
REMARK    4  A    between atoms: C_20  and  C_21
REMARK    5  A    between atoms: C_21  and  N_22
REMARK    6  A    between atoms: N_25  and  C_26
REMARK                            x       y       z     vdW  Elec       q    Type
REMARK                         _______ _______ _______ _____ _____    ______ ____
ROOT
ATOM      1  O   UNL     1      -5.858   3.281  26.036  0.00  0.00    -0.220 OA
ATOM      2  C   UNL     1      -5.587   2.596  25.664  0.00  0.00    +0.181 C 
ATOM      3  C   UNL     1      -6.032   1.903  25.700  0.00  0.00    +0.038 C 
ATOM      4  C   UNL     1      -5.759   1.219  25.327  0.00  0.00    +0.033 C 
ATOM      5  C   UNL     1      -5.042   1.228  24.920  0.00  0.00    +0.121 C 
ATOM     19  O   UNL     1      -4.597   1.922  24.885  0.00  0.00    -0.354 OA
ATOM     20  C   UNL     1      -4.869   2.606  25.256  0.00  0.00    +0.167 C 
ENDROOT
BRANCH   5   6
ATOM      6  C   UNL     1      -4.770   0.544  24.548  0.00  0.00    +0.079 C 
BRANCH   6   7
ATOM      7  C   UNL     1      -4.197   0.076  24.914  0.00  0.00    +0.103 A 
ATOM      8  N   UNL     1      -4.308  -0.392  25.583  0.00  0.00    -0.081 NA
ATOM      9  O   UNL     1      -3.592  -0.763  25.757  0.00  0.00    -0.354 OA
ATOM     10  C   UNL     1      -3.038  -0.525  25.194  0.00  0.00    +0.177 A 
ATOM     11  C   UNL     1      -3.412  -0.006  24.672  0.00  0.00    +0.058 A 
BRANCH  10  12
ATOM     12  C   UNL     1      -2.250  -0.763  25.158  0.00  0.00    +0.037 A 
ATOM     13  C   UNL     1      -1.655  -0.265  25.442  0.00  0.00    +0.005 A 
ATOM     14  C   UNL     1      -0.866  -0.503  25.406  0.00  0.00    +0.030 A 
ATOM     15  C   UNL     1      -0.671  -1.239  25.088  0.00  0.00    +0.140 A 
ATOM     16  F   UNL     1       0.118  -1.477  25.052  0.00  0.00    -0.204 F 
ATOM     17  C   UNL     1      -1.265  -1.736  24.805  0.00  0.00    +0.030 A 
ATOM     18  C   UNL     1      -2.055  -1.498  24.840  0.00  0.00    +0.005 A 
ENDBRANCH  10  12
ENDBRANCH   6   7
ENDBRANCH   5   6
BRANCH  20  21
ATOM     21  C   UNL     1      -4.424   3.299  25.221  0.00  0.00    +0.149 C 
BRANCH  21  22
ATOM     22  N   UNL     1      -3.707   3.351  25.626  0.00  0.00    -0.185 NA
ATOM     23  C   UNL     1      -3.064   3.734  25.279  0.00  0.00    +0.339 C 
ATOM     24  O   UNL     1      -3.137   4.064  24.528  0.00  0.00    -0.249 OA
ATOM     25  N   UNL     1      -2.348   3.785  25.685  0.00  0.00    -0.189 NA
BRANCH  25  26
ATOM     26  C   UNL     1      -1.704   4.168  25.338  0.00  0.00    +0.097 C 
ATOM     27  C   UNL     1      -1.080   3.726  25.027  0.00  0.00    +0.022 C 
ATOM     28  C   UNL     1      -0.437   4.109  24.680  0.00  0.00    +0.002 C 
ATOM     29  C   UNL     1      -0.417   4.933  24.644  0.00  0.00    +0.000 C 
ATOM     30  C   UNL     1      -1.041   5.374  24.955  0.00  0.00    +0.002 C 
ATOM     31  C   UNL     1      -1.684   4.991  25.302  0.00  0.00    +0.022 C 
ENDBRANCH  25  26
ENDBRANCH  21  22
ENDBRANCH  20  21
TORSDOF 6
ENDMDL
MODEL 5
REMARK VINA RESULT:     -12.6      1.842      4.831
REMARK  Name = 
REMARK  6 active torsions:
REMARK  status: ('A' for Active; 'I' for Inactive)
REMARK    1  A    between atoms: C_5  and  C_6
REMARK    2  A    between atoms: C_6  and  C_7
REMARK    3  A    between atoms: C_10  and  C_12
REMARK    4  A    between atoms: C_20  and  C_21
REMARK    5  A    between atoms: C_21  and  N_22
REMARK    6  A    between atoms: N_25  and  C_26
REMARK                            x       y       z     vdW  Elec       q    Type
REMARK                         _______ _______ _______ _____ _____    ______ ____
ROOT
ATOM      1  O   UNL     1      -3.906  -2.443  24.162  0.00  0.00    -0.220 OA
ATOM      2  C   UNL     1      -3.194  -2.129  24.436  0.00  0.00    +0.181 C 
ATOM      3  C   UNL     1      -2.495  -2.561  24.359  0.00  0.00    +0.038 C 
ATOM      4  C   UNL     1      -1.783  -2.245  24.633  0.00  0.00    +0.033 C 
ATOM      5  C   UNL     1      -1.770  -1.499  24.983  0.00  0.00    +0.121 C 
ATOM     19  O   UNL     1      -2.469  -1.067  25.060  0.00  0.00    -0.354 OA
ATOM     20  C   UNL     1      -3.181  -1.381  24.786  0.00  0.00    +0.167 C 
ENDROOT
BRANCH   5   6
ATOM      6  C   UNL     1      -1.059  -1.184  25.257  0.00  0.00    +0.079 C 
BRANCH   6   7
ATOM      7  C   UNL     1      -0.793  -0.456  24.970  0.00  0.00    +0.103 A 
ATOM      8  N   UNL     1      -0.351  -0.338  24.285  0.00  0.00    -0.081 NA
ATOM      9  O   UNL     1      -0.207   0.471  24.210  0.00  0.00    -0.354 OA
ATOM     10  C   UNL     1      -0.560   0.853  24.851  0.00  0.00    +0.177 A 
ATOM     11  C   UNL     1      -0.923   0.279  25.321  0.00  0.00    +0.058 A 
BRANCH  10  12
ATOM     12  C   UNL     1      -0.553   1.664  24.996  0.00  0.00    +0.037 A 
ATOM     13  C   UNL     1      -0.397   1.946  25.756  0.00  0.00    +0.005 A 
ATOM     14  C   UNL     1      -0.390   2.758  25.902  0.00  0.00    +0.030 A 
ATOM     15  C   UNL     1      -0.538   3.289  25.287  0.00  0.00    +0.140 A 
ATOM     16  F   UNL     1      -0.531   4.101  25.432  0.00  0.00    -0.204 F 
ATOM     17  C   UNL     1      -0.694   3.007  24.528  0.00  0.00    +0.030 A 
ATOM     18  C   UNL     1      -0.701   2.195  24.382  0.00  0.00    +0.005 A 
ENDBRANCH  10  12
ENDBRANCH   6   7
ENDBRANCH   5   6
BRANCH  20  21
ATOM     21  C   UNL     1      -3.879  -0.950  24.863  0.00  0.00    +0.149 C 
BRANCH  21  22
ATOM     22  N   UNL     1      -3.970  -0.236  24.459  0.00  0.00    -0.185 NA
ATOM     23  C   UNL     1      -4.326   0.407  24.833  0.00  0.00    +0.339 C 
ATOM     24  O   UNL     1      -4.591   0.337  25.610  0.00  0.00    -0.249 OA
ATOM     25  N   UNL     1      -4.416   1.120  24.428  0.00  0.00    -0.189 NA
BRANCH  25  26
ATOM     26  C   UNL     1      -4.773   1.764  24.803  0.00  0.00    +0.097 C 
ATOM     27  C   UNL     1      -5.594   1.792  24.883  0.00  0.00    +0.022 C 
ATOM     28  C   UNL     1      -5.950   2.435  25.256  0.00  0.00    +0.002 C 
ATOM     29  C   UNL     1      -5.485   3.052  25.550  0.00  0.00    +0.000 C 
ATOM     30  C   UNL     1      -4.665   3.023  25.469  0.00  0.00    +0.002 C 
ATOM     31  C   UNL     1      -4.308   2.379  25.096  0.00  0.00    +0.022 C 
ENDBRANCH  25  26
ENDBRANCH  21  22
ENDBRANCH  20  21
TORSDOF 6
ENDMDL
MODEL 6
REMARK VINA RESULT:     -12.2      1.960      3.766
REMARK  Name = 
REMARK  6 active torsions:
REMARK  status: ('A' for Active; 'I' for Inactive)
REMARK    1  A    between atoms: C_5  and  C_6
REMARK    2  A    between atoms: C_6  and  C_7
REMARK    3  A    between atoms: C_10  and  C_12
REMARK    4  A    between atoms: C_20  and  C_21
REMARK    5  A    between atoms: C_21  and  N_22
REMARK    6  A    between atoms: N_25  and  C_26
REMARK                            x       y       z     vdW  Elec       q    Type
REMARK                         _______ _______ _______ _____ _____    ______ ____
ROOT
ATOM      1  O   UNL     1      -2.525   4.287  25.197  0.00  0.00    -0.220 OA
ATOM      2  C   UNL     1      -3.077   3.701  25.018  0.00  0.00    +0.181 C 
ATOM      3  C   UNL     1      -3.867   3.797  25.236  0.00  0.00    +0.038 C 
ATOM      4  C   UNL     1      -4.419   3.210  25.056  0.00  0.00    +0.033 C 
ATOM      5  C   UNL     1      -4.181   2.528  24.659  0.00  0.00    +0.121 C 
ATOM     19  O   UNL     1      -3.391   2.432  24.441  0.00  0.00    -0.354 OA
ATOM     20  C   UNL     1      -2.839   3.018  24.620  0.00  0.00    +0.167 C 
ENDROOT
BRANCH   5   6
ATOM      6  C   UNL     1      -4.732   1.942  24.479  0.00  0.00    +0.079 C 
BRANCH   6   7
ATOM      7  C   UNL     1      -4.644   1.183  24.792  0.00  0.00    +0.103 A 
ATOM      8  N   UNL     1      -4.846   0.947  25.556  0.00  0.00    -0.081 NA
ATOM      9  O   UNL     1      -4.665   0.145  25.631  0.00  0.00    -0.354 OA
ATOM     10  C   UNL     1      -4.351  -0.114  24.913  0.00  0.00    +0.177 A 
ATOM     11  C   UNL     1      -4.338   0.528  24.394  0.00  0.00    +0.058 A 
BRANCH  10  12
ATOM     12  C   UNL     1      -4.096  -0.879  24.743  0.00  0.00    +0.037 A 
ATOM     13  C   UNL     1      -4.324  -1.244  24.039  0.00  0.00    +0.005 A 
ATOM     14  C   UNL     1      -4.069  -2.010  23.869  0.00  0.00    +0.030 A 
ATOM     15  C   UNL     1      -3.585  -2.411  24.404  0.00  0.00    +0.140 A 
ATOM     16  F   UNL     1      -3.329  -3.177  24.233  0.00  0.00    -0.204 F 
ATOM     17  C   UNL     1      -3.357  -2.047  25.107  0.00  0.00    +0.030 A 
ATOM     18  C   UNL     1      -3.612  -1.281  25.277  0.00  0.00    +0.005 A 
ENDBRANCH  10  12
ENDBRANCH   6   7
ENDBRANCH   5   6
BRANCH  20  21
ATOM     21  C   UNL     1      -2.050   2.922  24.402  0.00  0.00    +0.149 C 
BRANCH  21  22
ATOM     22  N   UNL     1      -1.592   2.334  24.756  0.00  0.00    -0.185 NA
ATOM     23  C   UNL     1      -1.116   1.846  24.293  0.00  0.00    +0.339 C 
ATOM     24  O   UNL     1      -1.097   1.945  23.474  0.00  0.00    -0.249 OA
ATOM     25  N   UNL     1      -0.659   1.259  24.648  0.00  0.00    -0.189 NA
BRANCH  25  26
ATOM     26  C   UNL     1      -0.182   0.770  24.183  0.00  0.00    +0.097 C 
ATOM     27  C   UNL     1       0.523   1.061  23.868  0.00  0.00    +0.022 C 
ATOM     28  C   UNL     1       0.999   0.572  23.404  0.00  0.00    +0.002 C 
ATOM     29  C   UNL     1       0.771  -0.207  23.256  0.00  0.00    +0.000 C 
ATOM     30  C   UNL     1       0.066  -0.497  23.572  0.00  0.00    +0.002 C 
ATOM     31  C   UNL     1      -0.410  -0.009  24.036  0.00  0.00    +0.022 C 
ENDBRANCH  25  26
ENDBRANCH  21  22
ENDBRANCH  20  21
TORSDOF 6
ENDMDL
MODEL 7
REMARK VINA RESULT:     -12.1      1.419      4.189
REMARK  Name = 
REMARK  6 active torsions:
REMARK  status: ('A' for Active; 'I' for Inactive)
REMARK    1  A    between atoms: C_5  and  C_6
REMARK    2  A    between atoms: C_6  and  C_7
REMARK    3  A    between atoms: C_10  and  C_12
REMARK    4  A    between atoms: C_20  and  C_21
REMARK    5  A    between atoms: C_21  and  N_22
REMARK    6  A    between atoms: N_25  and  C_26
REMARK                            x       y       z     vdW  Elec       q    Type
REMARK                         _______ _______ _______ _____ _____    ______ ____
ROOT
ATOM      1  O   UNL     1      -0.499   3.692  25.285  0.00  0.00    -0.220 OA
ATOM      2  C   UNL     1      -0.483   2.943  24.940  0.00  0.00    +0.181 C 
ATOM      3  C   UNL     1       0.238   2.591  24.749  0.00  0.00    +0.038 C 
ATOM      4  C   UNL     1       0.251   1.841  24.404  0.00  0.00    +0.033 C 
ATOM      5  C   UNL     1      -0.454   1.444  24.250  0.00  0.00    +0.121 C 
ATOM     19  O   UNL     1      -1.176   1.796  24.441  0.00  0.00    -0.354 OA
ATOM     20  C   UNL     1      -1.191   2.545  24.786  0.00  0.00    +0.167 C 
ENDROOT
BRANCH   5   6
ATOM      6  C   UNL     1      -0.440   0.696  23.905  0.00  0.00    +0.079 C 
BRANCH   6   7
ATOM      7  C   UNL     1      -0.719   0.042  24.326  0.00  0.00    +0.103 A 
ATOM      8  N   UNL     1      -0.342  -0.321  24.962  0.00  0.00    -0.081 NA
ATOM      9  O   UNL     1      -0.814  -0.950  25.213  0.00  0.00    -0.354 OA
ATOM     10  C   UNL     1      -1.483  -0.975  24.731  0.00  0.00    +0.177 A 
ATOM     11  C   UNL     1      -1.425  -0.361  24.182  0.00  0.00    +0.058 A 
BRANCH  10  12
ATOM     12  C   UNL     1      -2.102  -1.517  24.787  0.00  0.00    +0.037 A 
ATOM     13  C   UNL     1      -2.026  -2.265  24.446  0.00  0.00    +0.005 A 
ATOM     14  C   UNL     1      -2.645  -2.808  24.502  0.00  0.00    +0.030 A 
ATOM     15  C   UNL     1      -3.340  -2.603  24.899  0.00  0.00    +0.140 A 
ATOM     16  F   UNL     1      -3.959  -3.146  24.955  0.00  0.00    -0.204 F 
ATOM     17  C   UNL     1      -3.414  -1.855  25.239  0.00  0.00    +0.030 A 
ATOM     18  C   UNL     1      -2.795  -1.312  25.183  0.00  0.00    +0.005 A 
ENDBRANCH  10  12
ENDBRANCH   6   7
ENDBRANCH   5   6
BRANCH  20  21
ATOM     21  C   UNL     1      -1.911   2.897  24.978  0.00  0.00    +0.149 C 
BRANCH  21  22
ATOM     22  N   UNL     1      -2.590   2.706  24.551  0.00  0.00    -0.185 NA
ATOM     23  C   UNL     1      -3.317   2.644  24.937  0.00  0.00    +0.339 C 
ATOM     24  O   UNL     1      -3.364   2.775  25.749  0.00  0.00    -0.249 OA
ATOM     25  N   UNL     1      -3.995   2.453  24.509  0.00  0.00    -0.189 NA
BRANCH  25  26
ATOM     26  C   UNL     1      -4.723   2.391  24.896  0.00  0.00    +0.097 C 
ATOM     27  C   UNL     1      -5.065   1.650  25.015  0.00  0.00    +0.022 C 
ATOM     28  C   UNL     1      -5.792   1.589  25.400  0.00  0.00    +0.002 C 
ATOM     29  C   UNL     1      -6.176   2.269  25.667  0.00  0.00    +0.000 C 
ATOM     30  C   UNL     1      -5.833   3.009  25.547  0.00  0.00    +0.002 C 
ATOM     31  C   UNL     1      -5.107   3.071  25.162  0.00  0.00    +0.022 C 
ENDBRANCH  25  26
ENDBRANCH  21  22
ENDBRANCH  20  21
TORSDOF 6
ENDMDL
MODEL 8
REMARK VINA RESULT:      -9.4     15.841     18.509
REMARK  Name = 
REMARK  6 active torsions:
REMARK  status: ('A' for Active; 'I' for Inactive)
REMARK    1  A    between atoms: C_5  and  C_6
REMARK    2  A    between atoms: C_6  and  C_7
REMARK    3  A    between atoms: C_10  and  C_12
REMARK    4  A    between atoms: C_20  and  C_21
REMARK    5  A    between atoms: C_21  and  N_22
REMARK    6  A    between atoms: N_25  and  C_26
REMARK                            x       y       z     vdW  Elec       q    Type
REMARK                         _______ _______ _______ _____ _____    ______ ____
ROOT
ATOM      1  O   UNL     1      11.475   6.369  21.988  0.00  0.00    -0.220 OA
ATOM      2  C   UNL     1      11.435   6.988  21.445  0.00  0.00    +0.181 C 
ATOM      3  C   UNL     1      10.720   7.379  21.316  0.00  0.00    +0.038 C 
ATOM      4  C   UNL     1      10.681   7.998  20.772  0.00  0.00    +0.033 C 
ATOM      5  C   UNL     1      11.356   8.227  20.357  0.00  0.00    +0.121 C 
ATOM     19  O   UNL     1      12.071   7.836  20.486  0.00  0.00    -0.354 OA
ATOM     20  C   UNL     1      12.111   7.217  21.029  0.00  0.00    +0.167 C 
ENDROOT
BRANCH   5   6
ATOM      6  C   UNL     1      11.316   8.845  19.813  0.00  0.00    +0.079 C 
BRANCH   6   7
ATOM      7  C   UNL     1      11.451   8.699  19.012  0.00  0.00    +0.103 A 
ATOM      8  N   UNL     1      10.911   8.371  18.482  0.00  0.00    -0.081 NA
ATOM      9  O   UNL     1      11.275   8.325  17.743  0.00  0.00    -0.354 OA
ATOM     10  C   UNL     1      12.040   8.626  17.816  0.00  0.00    +0.177 A 
ATOM     11  C   UNL     1      12.148   8.857  18.601  0.00  0.00    +0.058 A 
BRANCH  10  12
ATOM     12  C   UNL     1      12.598   8.685  17.212  0.00  0.00    +0.037 A 
ATOM     13  C   UNL     1      13.362   8.394  17.327  0.00  0.00    +0.005 A 
ATOM     14  C   UNL     1      13.921   8.453  16.722  0.00  0.00    +0.030 A 
ATOM     15  C   UNL     1      13.715   8.803  16.003  0.00  0.00    +0.140 A 
ATOM     16  F   UNL     1      14.274   8.862  15.399  0.00  0.00    -0.204 F 
ATOM     17  C   UNL     1      12.952   9.094  15.890  0.00  0.00    +0.030 A 
ATOM     18  C   UNL     1      12.393   9.035  16.494  0.00  0.00    +0.005 A 
ENDBRANCH  10  12
ENDBRANCH   6   7
ENDBRANCH   5   6
BRANCH  20  21
ATOM     21  C   UNL     1      12.825   6.827  21.158  0.00  0.00    +0.149 C 
BRANCH  21  22
ATOM     22  N   UNL     1      13.513   7.260  21.296  0.00  0.00    -0.185 NA
ATOM     23  C   UNL     1      14.237   6.988  21.008  0.00  0.00    +0.339 C 
ATOM     24  O   UNL     1      14.273   6.284  20.581  0.00  0.00    -0.249 OA
ATOM     25  N   UNL     1      14.925   7.422  21.146  0.00  0.00    -0.189 NA
BRANCH  25  26
ATOM     26  C   UNL     1      15.649   7.150  20.857  0.00  0.00    +0.097 C 
ATOM     27  C   UNL     1      15.852   7.278  20.068  0.00  0.00    +0.022 C 
ATOM     28  C   UNL     1      16.576   7.007  19.779  0.00  0.00    +0.002 C 
ATOM     29  C   UNL     1      17.097   6.607  20.280  0.00  0.00    +0.000 C 
ATOM     30  C   UNL     1      16.892   6.479  21.069  0.00  0.00    +0.002 C 
ATOM     31  C   UNL     1      16.168   6.751  21.358  0.00  0.00    +0.022 C 
ENDBRANCH  25  26
ENDBRANCH  21  22
ENDBRANCH  20  21
TORSDOF 6
ENDMDL
