MODEL 1
REMARK VINA RESULT:      -9.8      0.000      0.000
REMARK  Name = 
REMARK  5 active torsions:
REMARK  status: ('A' for Active; 'I' for Inactive)
REMARK    1  A    between atoms: C_2  and  C_3
REMARK    2  A    between atoms: C_10  and  C_11
REMARK    3  A    between atoms: C_11  and  N_12
REMARK    4  A    between atoms: N_12  and  S_13
REMARK    5  A    between atoms: S_13  and  C_16
REMARK                            x       y       z     vdW  Elec       q    Type
REMARK                         _______ _______ _______ _____ _____    ______ ____
ROOT
ATOM      3  C   UNL     1      -3.121  -1.751  24.585  0.00  0.00    +0.016 C 
ATOM      4  C   UNL     1      -2.718  -1.214  24.979  0.00  0.00    +0.072 C 
ATOM      5  N   UNL     1      -3.481  -1.126  24.676  0.00  0.00    -0.273 NA
ATOM      6  C   UNL     1      -3.732  -2.027  24.204  0.00  0.00    +0.072 C 
ATOM      7  C   UNL     1      -4.157  -2.394  23.869  0.00  0.00    +0.017 C 
ATOM      8  C   UNL     1      -3.869  -1.657  24.292  0.00  0.00    +0.004 C 
ATOM      9  C   UNL     1      -4.430  -0.982  24.315  0.00  0.00    +0.018 C 
ATOM     10  C   UNL     1      -4.069  -0.428  24.696  0.00  0.00    +0.077 C 
ENDROOT
BRANCH   3   2
ATOM      1  C   UNL     1      -1.949  -2.569  24.612  0.00  0.00    +0.000 C 
ATOM      2  C   UNL     1      -2.753  -2.479  24.455  0.00  0.00    +0.001 C 
ENDBRANCH   3   2
BRANCH  10  11
ATOM     11  C   UNL     1      -4.158   0.345  24.967  0.00  0.00    +0.131 C 
BRANCH  11  12
ATOM     12  N   UNL     1      -4.723   0.839  24.624  0.00  0.00    -0.076 NA
BRANCH  12  13
ATOM     13  S   UNL     1      -4.782   1.626  24.863  0.00  0.00    +0.083 S 
ATOM     14  O   UNL     1      -5.253   1.397  25.500  0.00  0.00    -0.151 OA
ATOM     15  O   UNL     1      -4.311   1.856  24.225  0.00  0.00    -0.151 OA
BRANCH  13  16
ATOM     16  C   UNL     1      -4.842   2.414  25.102  0.00  0.00    +0.153 A 
ATOM     17  C   UNL     1      -4.301   3.014  24.935  0.00  0.00    +0.027 A 
ATOM     18  C   UNL     1      -4.578   3.711  25.280  0.00  0.00    +0.009 A 
ATOM     19  C   UNL     1      -5.290   3.541  25.659  0.00  0.00    +0.037 A 
ATOM     20  S   UNL     1      -5.454   2.740  25.550  0.00  0.00    -0.067 S 
ENDBRANCH  13  16
ENDBRANCH  12  13
ENDBRANCH  11  12
ENDBRANCH  10  11
TORSDOF 5
ENDMDL
MODEL 2
REMARK VINA RESULT:      -9.7      1.589      4.514
REMARK  Name = 
REMARK  5 active torsions:
REMARK  status: ('A' for Active; 'I' for Inactive)
REMARK    1  A    between atoms: C_2  and  C_3
REMARK    2  A    between atoms: C_10  and  C_11
REMARK    3  A    between atoms: C_11  and  N_12
REMARK    4  A    between atoms: N_12  and  S_13
REMARK    5  A    between atoms: S_13  and  C_16
REMARK                            x       y       z     vdW  Elec       q    Type
REMARK                         _______ _______ _______ _____ _____    ______ ____
ROOT
ATOM      3  C   UNL     1      -3.218   3.145  25.158  0.00  0.00    +0.016 C 
ATOM      4  C   UNL     1      -2.614   2.663  25.064  0.00  0.00    +0.072 C 
ATOM      5  N   UNL     1      -3.413   2.465  24.992  0.00  0.00    -0.273 NA
ATOM      6  C   UNL     1      -3.966   3.336  25.179  0.00  0.00    +0.072 C 
ATOM      7  C   UNL     1      -4.539   3.644  25.233  0.00  0.00    +0.017 C 
ATOM      8  C   UNL     1      -3.999   2.943  25.086  0.00  0.00    +0.004 C 
ATOM      9  C   UNL     1      -4.395   2.184  24.895  0.00  0.00    +0.018 C 
ATOM     10  C   UNL     1      -3.831   1.678  24.795  0.00  0.00    +0.077 C 
ENDROOT
BRANCH   3   2
ATOM      1  C   UNL     1      -2.267   4.164  25.475  0.00  0.00    +0.000 C 
ATOM      2  C   UNL     1      -3.047   3.931  25.348  0.00  0.00    +0.001 C 
ENDBRANCH   3   2
BRANCH  10  11
ATOM     11  C   UNL     1      -3.687   0.887  24.614  0.00  0.00    +0.131 C 
BRANCH  11  12
ATOM     12  N   UNL     1      -4.227   0.307  24.842  0.00  0.00    -0.076 NA
BRANCH  12  13
ATOM     13  S   UNL     1      -4.055  -0.490  24.718  0.00  0.00    +0.083 S 
ATOM     14  O   UNL     1      -3.994  -0.603  25.533  0.00  0.00    -0.151 OA
ATOM     15  O   UNL     1      -4.115  -0.377  23.903  0.00  0.00    -0.151 OA
BRANCH  13  16
ATOM     16  C   UNL     1      -3.882  -1.287  24.595  0.00  0.00    +0.153 A 
ATOM     17  C   UNL     1      -4.172  -1.758  23.983  0.00  0.00    +0.027 A 
ATOM     18  C   UNL     1      -3.859  -2.516  24.071  0.00  0.00    +0.009 A 
ATOM     19  C   UNL     1      -3.374  -2.513  24.738  0.00  0.00    +0.037 A 
ATOM     20  S   UNL     1      -3.388  -1.755  25.062  0.00  0.00    -0.067 S 
ENDBRANCH  13  16
ENDBRANCH  12  13
ENDBRANCH  11  12
ENDBRANCH  10  11
TORSDOF 5
ENDMDL
MODEL 3
REMARK VINA RESULT:      -9.4      1.400      1.632
REMARK  Name = 
REMARK  5 active torsions:
REMARK  status: ('A' for Active; 'I' for Inactive)
REMARK    1  A    between atoms: C_2  and  C_3
REMARK    2  A    between atoms: C_10  and  C_11
REMARK    3  A    between atoms: C_11  and  N_12
REMARK    4  A    between atoms: N_12  and  S_13
REMARK    5  A    between atoms: S_13  and  C_16
REMARK                            x       y       z     vdW  Elec       q    Type
REMARK                         _______ _______ _______ _____ _____    ______ ____
ROOT
ATOM      3  C   UNL     1      -3.532  -1.559  24.842  0.00  0.00    +0.016 C 
ATOM      4  C   UNL     1      -3.111  -1.258  25.423  0.00  0.00    +0.072 C 
ATOM      5  N   UNL     1      -3.503  -0.833  24.835  0.00  0.00    -0.273 NA
ATOM      6  C   UNL     1      -3.974  -1.531  24.210  0.00  0.00    +0.072 C 
ATOM      7  C   UNL     1      -4.345  -1.668  23.690  0.00  0.00    +0.017 C 
ATOM      8  C   UNL     1      -3.914  -1.135  24.268  0.00  0.00    +0.004 C 
ATOM      9  C   UNL     1      -3.978  -0.272  24.119  0.00  0.00    +0.018 C 
ATOM     10  C   UNL     1      -3.574   0.063  24.673  0.00  0.00    +0.077 C 
ENDROOT
BRANCH   3   2
ATOM      1  C   UNL     1      -3.219  -2.848  25.374  0.00  0.00    +0.000 C 
ATOM      2  C   UNL     1      -3.595  -2.382  24.808  0.00  0.00    +0.001 C 
ENDBRANCH   3   2
BRANCH  10  11
ATOM     11  C   UNL     1      -3.340   0.800  24.958  0.00  0.00    +0.131 C 
BRANCH  11  12
ATOM     12  N   UNL     1      -3.353   1.457  24.460  0.00  0.00    -0.076 NA
BRANCH  12  13
ATOM     13  S   UNL     1      -3.083   2.187  24.732  0.00  0.00    +0.083 S 
ATOM     14  O   UNL     1      -2.363   2.063  24.347  0.00  0.00    -0.151 OA
ATOM     15  O   UNL     1      -3.802   2.312  25.117  0.00  0.00    -0.151 OA
BRANCH  13  16
ATOM     16  C   UNL     1      -2.811   2.918  25.004  0.00  0.00    +0.153 A 
ATOM     17  C   UNL     1      -2.087   3.059  25.372  0.00  0.00    +0.027 A 
ATOM     18  C   UNL     1      -2.044   3.864  25.551  0.00  0.00    +0.009 A 
ATOM     19  C   UNL     1      -2.742   4.219  25.293  0.00  0.00    +0.037 A 
ATOM     20  S   UNL     1      -3.216   3.635  24.955  0.00  0.00    -0.067 S 
ENDBRANCH  13  16
ENDBRANCH  12  13
ENDBRANCH  11  12
ENDBRANCH  10  11
TORSDOF 5
ENDMDL
MODEL 4
REMARK VINA RESULT:      -8.9      2.735      4.743
REMARK  Name = 
REMARK  5 active torsions:
REMARK  status: ('A' for Active; 'I' for Inactive)
REMARK    1  A    between atoms: C_2  and  C_3
REMARK    2  A    between atoms: C_10  and  C_11
REMARK    3  A    between atoms: C_11  and  N_12
REMARK    4  A    between atoms: N_12  and  S_13
REMARK    5  A    between atoms: S_13  and  C_16
REMARK                            x       y       z     vdW  Elec       q    Type
REMARK                         _______ _______ _______ _____ _____    ______ ____
ROOT
ATOM      3  C   UNL     1      -1.529   3.047  25.332  0.00  0.00    +0.016 C 
ATOM      4  C   UNL     1      -2.218   2.979  24.978  0.00  0.00    +0.072 C 
ATOM      5  N   UNL     1      -1.724   2.359  25.204  0.00  0.00    -0.273 NA
ATOM      6  C   UNL     1      -0.877   2.784  25.653  0.00  0.00    +0.072 C 
ATOM      7  C   UNL     1      -0.297   2.720  25.946  0.00  0.00    +0.017 C 
ATOM      8  C   UNL     1      -1.049   2.433  25.551  0.00  0.00    +0.004 C 
ATOM      9  C   UNL     1      -1.134   1.563  25.472  0.00  0.00    +0.018 C 
ATOM     10  C   UNL     1      -1.805   1.453  25.125  0.00  0.00    +0.077 C 
ENDROOT
BRANCH   3   2
ATOM      1  C   UNL     1      -1.738   4.461  25.322  0.00  0.00    +0.000 C 
ATOM      2  C   UNL     1      -1.263   3.811  25.499  0.00  0.00    +0.001 C 
ENDBRANCH   3   2
BRANCH  10  11
ATOM     11  C   UNL     1      -2.308   0.863  24.844  0.00  0.00    +0.131 C 
BRANCH  11  12
ATOM     12  N   UNL     1      -2.285   0.109  25.177  0.00  0.00    -0.076 NA
BRANCH  12  13
ATOM     13  S   UNL     1      -2.771  -0.488  24.882  0.00  0.00    +0.083 S 
ATOM     14  O   UNL     1      -3.358  -0.276  25.422  0.00  0.00    -0.151 OA
ATOM     15  O   UNL     1      -2.184  -0.701  24.342  0.00  0.00    -0.151 OA
BRANCH  13  16
ATOM     16  C   UNL     1      -3.258  -1.086  24.588  0.00  0.00    +0.153 A 
ATOM     17  C   UNL     1      -3.919  -0.979  24.107  0.00  0.00    +0.027 A 
ATOM     18  C   UNL     1      -4.240  -1.722  23.944  0.00  0.00    +0.009 A 
ATOM     19  C   UNL     1      -3.776  -2.287  24.325  0.00  0.00    +0.037 A 
ATOM     20  S   UNL     1      -3.169  -1.895  24.723  0.00  0.00    -0.067 S 
ENDBRANCH  13  16
ENDBRANCH  12  13
ENDBRANCH  11  12
ENDBRANCH  10  11
TORSDOF 5
ENDMDL
