MODEL 1
REMARK VINA RESULT:     -11.9      0.000      0.000
REMARK  Name = 
REMARK  5 active torsions:
REMARK  status: ('A' for Active; 'I' for Inactive)
REMARK    1  A    between atoms: C_2  and  C_20
REMARK    2  A    between atoms: C_9  and  N_10
REMARK    3  A    between atoms: C_20  and  C_22
REMARK    4  A    between atoms: N_24  and  C_25
REMARK    5  A    between atoms: C_25  and  C_26
REMARK                            x       y       z     vdW  Elec       q    Type
REMARK                         _______ _______ _______ _____ _____    ______ ____
ROOT
ATOM      1  C   UNL     1      -3.897   1.781  24.299  0.00  0.00    +0.052 C 
ATOM      2  C   UNL     1      -4.574   1.620  24.740  0.00  0.00    -0.001 C 
ATOM      3  C   UNL     1      -4.682   0.874  25.073  0.00  0.00    -0.000 C 
ATOM      4  C   UNL     1      -4.111   0.287  24.964  0.00  0.00    -0.001 C 
ATOM      5  C   UNL     1      -4.790   0.126  25.406  0.00  0.00    -0.000 C 
ATOM      6  C   UNL     1      -4.220  -0.460  25.298  0.00  0.00    +0.002 C 
ATOM      7  C   UNL     1      -3.650  -1.047  25.189  0.00  0.00    +0.022 C 
ATOM      8  C   UNL     1      -2.971  -0.886  24.747  0.00  0.00    +0.095 C 
ATOM     13  C   UNL     1      -2.864  -0.139  24.415  0.00  0.00    +0.019 C 
ATOM     14  C   UNL     1      -2.185   0.021  23.973  0.00  0.00    +0.002 C 
ATOM     15  C   UNL     1      -3.434   0.447  24.523  0.00  0.00    +0.045 C 
ATOM     16  C   UNL     1      -3.326   1.194  24.190  0.00  0.00    +0.145 C 
ATOM     17  O   UNL     1      -2.648   1.355  23.749  0.00  0.00    -0.224 OA
ENDROOT
BRANCH   8   9
ATOM      9  N   UNL     1      -2.402  -1.472  24.639  0.00  0.00    -0.207 NA
ATOM     10  C   UNL     1      -2.633  -2.252  24.503  0.00  0.00    +0.242 C 
ATOM     11  C   UNL     1      -2.063  -2.839  24.394  0.00  0.00    +0.096 C 
ATOM     12  O   UNL     1      -3.435  -2.446  24.475  0.00  0.00    -0.273 OA
ENDBRANCH   8   9
BRANCH   1  18
ATOM     18  C   UNL     1      -3.788   2.528  23.966  0.00  0.00    +0.077 C 
ATOM     19  C   UNL     1      -3.832   2.624  23.148  0.00  0.00    +0.009 C 
BRANCH  18  20
ATOM     20  C   UNL     1      -3.636   3.178  24.450  0.00  0.00    +0.241 C 
ATOM     21  O   UNL     1      -4.257   3.551  24.847  0.00  0.00    -0.273 OA
ATOM     22  N   UNL     1      -2.864   3.456  24.537  0.00  0.00    -0.200 NA
BRANCH  22  23
ATOM     23  C   UNL     1      -2.712   4.106  25.021  0.00  0.00    +0.148 C 
BRANCH  23  24
ATOM     24  C   UNL     1      -1.952   4.424  25.059  0.00  0.00    +0.029 A 
ATOM     25  C   UNL     1      -1.254   4.000  25.171  0.00  0.00    +0.004 A 
ATOM     26  C   UNL     1      -0.627   4.536  25.173  0.00  0.00    +0.007 A 
ATOM     27  C   UNL     1      -0.938   5.293  25.062  0.00  0.00    +0.035 A 
ATOM     28  S   UNL     1      -1.757   5.223  24.992  0.00  0.00    -0.089 S 
ENDBRANCH  23  24
ENDBRANCH  22  23
ENDBRANCH  18  20
ENDBRANCH   1  18
TORSDOF 5
ENDMDL
MODEL 2
REMARK VINA RESULT:     -11.3      1.862      4.978
REMARK  Name = 
REMARK  5 active torsions:
REMARK  status: ('A' for Active; 'I' for Inactive)
REMARK    1  A    between atoms: C_2  and  C_20
REMARK    2  A    between atoms: C_9  and  N_10
REMARK    3  A    between atoms: C_20  and  C_22
REMARK    4  A    between atoms: N_24  and  C_25
REMARK    5  A    between atoms: C_25  and  C_26
REMARK                            x       y       z     vdW  Elec       q    Type
REMARK                         _______ _______ _______ _____ _____    ______ ____
ROOT
ATOM      1  C   UNL     1      -3.820   1.840  24.603  0.00  0.00    +0.052 C 
ATOM      2  C   UNL     1      -4.405   2.227  25.036  0.00  0.00    -0.001 C 
ATOM      3  C   UNL     1      -4.236   2.939  25.415  0.00  0.00    -0.000 C 
ATOM      4  C   UNL     1      -3.479   3.266  25.360  0.00  0.00    -0.001 C 
ATOM      5  C   UNL     1      -4.065   3.653  25.794  0.00  0.00    -0.000 C 
ATOM      6  C   UNL     1      -3.309   3.979  25.739  0.00  0.00    +0.002 C 
ATOM      7  C   UNL     1      -2.554   4.305  25.684  0.00  0.00    +0.022 C 
ATOM      8  C   UNL     1      -1.968   3.918  25.250  0.00  0.00    +0.095 C 
ATOM     13  C   UNL     1      -2.138   3.206  24.871  0.00  0.00    +0.019 C 
ATOM     14  C   UNL     1      -1.552   2.820  24.437  0.00  0.00    +0.002 C 
ATOM     15  C   UNL     1      -2.894   2.879  24.926  0.00  0.00    +0.045 C 
ATOM     16  C   UNL     1      -3.064   2.167  24.548  0.00  0.00    +0.145 C 
ATOM     17  O   UNL     1      -2.478   1.780  24.114  0.00  0.00    -0.224 OA
ENDROOT
BRANCH   8   9
ATOM      9  N   UNL     1      -1.213   4.244  25.195  0.00  0.00    -0.207 NA
ATOM     10  C   UNL     1      -1.121   5.045  25.015  0.00  0.00    +0.242 C 
ATOM     11  C   UNL     1      -0.365   5.371  24.960  0.00  0.00    +0.096 C 
ATOM     12  O   UNL     1      -1.785   5.519  24.890  0.00  0.00    -0.273 OA
ENDBRANCH   8   9
BRANCH   1  18
ATOM     18  C   UNL     1      -3.990   1.127  24.224  0.00  0.00    +0.077 C 
ATOM     19  C   UNL     1      -3.977   1.085  23.400  0.00  0.00    +0.009 C 
BRANCH  18  20
ATOM     20  C   UNL     1      -4.172   0.457  24.668  0.00  0.00    +0.241 C 
ATOM     21  O   UNL     1      -4.727   0.504  25.278  0.00  0.00    -0.273 OA
ATOM     22  N   UNL     1      -3.801  -0.262  24.503  0.00  0.00    -0.200 NA
BRANCH  22  23
ATOM     23  C   UNL     1      -3.983  -0.932  24.946  0.00  0.00    +0.148 C 
BRANCH  23  24
ATOM     24  C   UNL     1      -3.658  -1.663  24.743  0.00  0.00    +0.029 A 
ATOM     25  C   UNL     1      -4.009  -2.230  24.258  0.00  0.00    +0.004 A 
ATOM     26  C   UNL     1      -3.493  -2.872  24.204  0.00  0.00    +0.007 A 
ATOM     27  C   UNL     1      -2.825  -2.702  24.657  0.00  0.00    +0.035 A 
ATOM     28  S   UNL     1      -2.927  -1.954  24.989  0.00  0.00    -0.089 S 
ENDBRANCH  23  24
ENDBRANCH  22  23
ENDBRANCH  18  20
ENDBRANCH   1  18
TORSDOF 5
ENDMDL
MODEL 3
REMARK VINA RESULT:     -11.3      1.388      1.824
REMARK  Name = 
REMARK  5 active torsions:
REMARK  status: ('A' for Active; 'I' for Inactive)
REMARK    1  A    between atoms: C_2  and  C_20
REMARK    2  A    between atoms: C_9  and  N_10
REMARK    3  A    between atoms: C_20  and  C_22
REMARK    4  A    between atoms: N_24  and  C_25
REMARK    5  A    between atoms: C_25  and  C_26
REMARK                            x       y       z     vdW  Elec       q    Type
REMARK                         _______ _______ _______ _____ _____    ______ ____
ROOT
ATOM      1  C   UNL     1      -1.925   1.002  24.435  0.00  0.00    +0.052 C 
ATOM      2  C   UNL     1      -2.633   1.399  24.294  0.00  0.00    -0.001 C 
ATOM      3  C   UNL     1      -3.344   0.982  24.277  0.00  0.00    -0.000 C 
ATOM      4  C   UNL     1      -3.346   0.165  24.400  0.00  0.00    -0.001 C 
ATOM      5  C   UNL     1      -4.056   0.564  24.259  0.00  0.00    -0.000 C 
ATOM      6  C   UNL     1      -4.058  -0.252  24.382  0.00  0.00    +0.002 C 
ATOM      7  C   UNL     1      -4.061  -1.067  24.505  0.00  0.00    +0.022 C 
ATOM      8  C   UNL     1      -3.352  -1.466  24.646  0.00  0.00    +0.095 C 
ATOM     13  C   UNL     1      -2.641  -1.048  24.663  0.00  0.00    +0.019 C 
ATOM     14  C   UNL     1      -1.932  -1.447  24.804  0.00  0.00    +0.002 C 
ATOM     15  C   UNL     1      -2.638  -0.232  24.540  0.00  0.00    +0.045 C 
ATOM     16  C   UNL     1      -1.927   0.185  24.558  0.00  0.00    +0.145 C 
ATOM     17  O   UNL     1      -1.218  -0.213  24.699  0.00  0.00    -0.224 OA
ENDROOT
BRANCH   8   9
ATOM      9  N   UNL     1      -3.354  -2.281  24.769  0.00  0.00    -0.207 NA
ATOM     10  C   UNL     1      -3.811  -2.770  24.285  0.00  0.00    +0.242 C 
ATOM     11  C   UNL     1      -3.814  -3.586  24.408  0.00  0.00    +0.096 C 
ATOM     12  O   UNL     1      -4.266  -2.442  23.679  0.00  0.00    -0.273 OA
ENDBRANCH   8   9
BRANCH   1  18
ATOM     18  C   UNL     1      -1.213   1.419  24.453  0.00  0.00    +0.077 C 
ATOM     19  C   UNL     1      -0.630   1.263  23.890  0.00  0.00    +0.009 C 
BRANCH  18  20
ATOM     20  C   UNL     1      -1.084   1.991  25.032  0.00  0.00    +0.241 C 
ATOM     21  O   UNL     1      -0.864   1.764  25.795  0.00  0.00    -0.273 OA
ATOM     22  N   UNL     1      -1.175   2.791  24.850  0.00  0.00    -0.200 NA
BRANCH  22  23
ATOM     23  C   UNL     1      -1.046   3.363  25.429  0.00  0.00    +0.148 C 
BRANCH  23  24
ATOM     24  C   UNL     1      -1.184   4.159  25.262  0.00  0.00    +0.029 A 
ATOM     25  C   UNL     1      -0.665   4.670  24.875  0.00  0.00    +0.004 A 
ATOM     26  C   UNL     1      -1.025   5.410  24.826  0.00  0.00    +0.007 A 
ATOM     27  C   UNL     1      -1.768   5.357  25.183  0.00  0.00    +0.035 A 
ATOM     28  S   UNL     1      -1.865   4.583  25.452  0.00  0.00    -0.089 S 
ENDBRANCH  23  24
ENDBRANCH  22  23
ENDBRANCH  18  20
ENDBRANCH   1  18
TORSDOF 5
ENDMDL
MODEL 4
REMARK VINA RESULT:     -11.2      2.115      4.954
REMARK  Name = 
REMARK  5 active torsions:
REMARK  status: ('A' for Active; 'I' for Inactive)
REMARK    1  A    between atoms: C_2  and  C_20
REMARK    2  A    between atoms: C_9  and  N_10
REMARK    3  A    between atoms: C_20  and  C_22
REMARK    4  A    between atoms: N_24  and  C_25
REMARK    5  A    between atoms: C_25  and  C_26
REMARK                            x       y       z     vdW  Elec       q    Type
REMARK                         _______ _______ _______ _____ _____    ______ ____
ROOT
ATOM      1  C   UNL     1      -1.527   1.673  24.604  0.00  0.00    +0.052 C 
ATOM      2  C   UNL     1      -1.055   2.059  25.159  0.00  0.00    -0.001 C 
ATOM      3  C   UNL     1      -1.347   2.716  25.563  0.00  0.00    -0.000 C 
ATOM      4  C   UNL     1      -2.112   2.987  25.411  0.00  0.00    -0.001 C 
ATOM      5  C   UNL     1      -1.640   3.373  25.968  0.00  0.00    -0.000 C 
ATOM      6  C   UNL     1      -2.404   3.644  25.816  0.00  0.00    +0.002 C 
ATOM      7  C   UNL     1      -3.169   3.915  25.664  0.00  0.00    +0.022 C 
ATOM      8  C   UNL     1      -3.641   3.529  25.108  0.00  0.00    +0.095 C 
ATOM     13  C   UNL     1      -3.348   2.873  24.704  0.00  0.00    +0.019 C 
ATOM     14  C   UNL     1      -3.820   2.487  24.149  0.00  0.00    +0.002 C 
ATOM     15  C   UNL     1      -2.584   2.601  24.856  0.00  0.00    +0.045 C 
ATOM     16  C   UNL     1      -2.292   1.945  24.452  0.00  0.00    +0.145 C 
ATOM     17  O   UNL     1      -2.763   1.558  23.896  0.00  0.00    -0.224 OA
ENDROOT
BRANCH   8   9
ATOM      9  N   UNL     1      -4.404   3.800  24.957  0.00  0.00    -0.207 NA
ATOM     10  C   UNL     1      -4.958   3.838  25.568  0.00  0.00    +0.242 C 
ATOM     11  C   UNL     1      -5.722   4.109  25.416  0.00  0.00    +0.096 C 
ATOM     12  O   UNL     1      -4.746   3.605  26.331  0.00  0.00    -0.273 OA
ENDBRANCH   8   9
BRANCH   1  18
ATOM     18  C   UNL     1      -1.235   1.016  24.199  0.00  0.00    +0.077 C 
ATOM     19  C   UNL     1      -1.046   1.076  23.398  0.00  0.00    +0.009 C 
BRANCH  18  20
ATOM     20  C   UNL     1      -1.132   0.300  24.594  0.00  0.00    +0.241 C 
ATOM     21  O   UNL     1      -0.464   0.181  25.066  0.00  0.00    -0.273 OA
ATOM     22  N   UNL     1      -1.695  -0.298  24.518  0.00  0.00    -0.200 NA
BRANCH  22  23
ATOM     23  C   UNL     1      -1.592  -1.014  24.913  0.00  0.00    +0.148 C 
BRANCH  23  24
ATOM     24  C   UNL     1      -2.180  -1.592  24.882  0.00  0.00    +0.029 A 
ATOM     25  C   UNL     1      -2.913  -1.559  25.260  0.00  0.00    +0.004 A 
ATOM     26  C   UNL     1      -3.324  -2.251  25.078  0.00  0.00    +0.007 A 
ATOM     27  C   UNL     1      -2.846  -2.711  24.589  0.00  0.00    +0.035 A 
ATOM     28  S   UNL     1      -2.139  -2.304  24.468  0.00  0.00    -0.089 S 
ENDBRANCH  23  24
ENDBRANCH  22  23
ENDBRANCH  18  20
ENDBRANCH   1  18
TORSDOF 5
ENDMDL
