MODEL 1
REMARK VINA RESULT:     -11.8      0.000      0.000
REMARK  Name = 
REMARK  6 active torsions:
REMARK  status: ('A' for Active; 'I' for Inactive)
REMARK    1  A    between atoms: C_5  and  C_6
REMARK    2  A    between atoms: C_6  and  N_7
REMARK    3  A    between atoms: N_7  and  C_8
REMARK    4  A    between atoms: C_11  and  C_12
REMARK    5  A    between atoms: C_12  and  N_13
REMARK    6  A    between atoms: C_14  and  C_16
REMARK                            x       y       z     vdW  Elec       q    Type
REMARK                         _______ _______ _______ _____ _____    ______ ____
ROOT
ATOM      8  C   UNL     1      -3.857   1.111  24.552  0.00  0.00    +0.135 C 
ATOM      9  C   UNL     1      -4.562   1.528  24.659  0.00  0.00    +0.162 C 
ATOM     10  O   UNL     1      -4.372   2.291  24.909  0.00  0.00    -0.350 OA
ATOM     11  C   UNL     1      -3.550   2.346  24.957  0.00  0.00    +0.169 C 
ATOM     23  C   UNL     1      -3.232   1.617  24.736  0.00  0.00    +0.199 C 
ATOM     24  O   UNL     1      -2.429   1.427  24.705  0.00  0.00    -0.219 OA
ENDROOT
BRANCH   8   7
ATOM      7  N   UNL     1      -3.790   0.327  24.304  0.00  0.00    -0.209 NA
BRANCH   7   6
ATOM      6  C   UNL     1      -4.274  -0.253  24.636  0.00  0.00    +0.115 C 
BRANCH   6   5
ATOM      1  C   UNL     1      -3.456  -3.438  24.360  0.00  0.00    +0.031 C 
ATOM      2  C   UNL     1      -3.660  -2.641  24.429  0.00  0.00    -0.022 A 
ATOM      3  C   UNL     1      -3.443  -2.217  25.102  0.00  0.00    -0.005 A 
ATOM      4  C   UNL     1      -3.648  -1.421  25.171  0.00  0.00    -0.003 A 
ATOM      5  C   UNL     1      -4.069  -1.049  24.567  0.00  0.00    -0.005 A 
ATOM     25  C   UNL     1      -4.286  -1.474  23.894  0.00  0.00    -0.003 A 
ATOM     26  C   UNL     1      -4.082  -2.271  23.825  0.00  0.00    -0.005 A 
ENDBRANCH   6   5
ENDBRANCH   7   6
ENDBRANCH   8   7
BRANCH  11  12
ATOM     12  C   UNL     1      -3.121   3.012  25.186  0.00  0.00    +0.148 C 
BRANCH  12  13
ATOM     13  N   UNL     1      -3.364   3.457  25.837  0.00  0.00    -0.199 NA
ATOM     14  C   UNL     1      -2.924   4.110  26.078  0.00  0.00    +0.265 C 
ATOM     15  O   UNL     1      -3.167   4.555  26.729  0.00  0.00    -0.268 OA
BRANCH  14  16
ATOM     16  C   UNL     1      -2.239   4.320  25.668  0.00  0.00    +0.055 A 
ATOM     17  C   UNL     1      -2.268   4.909  25.090  0.00  0.00    +0.007 A 
ATOM     18  C   UNL     1      -1.583   5.119  24.681  0.00  0.00    +0.030 A 
ATOM     19  C   UNL     1      -0.870   4.741  24.850  0.00  0.00    +0.140 A 
ATOM     20  F   UNL     1      -0.185   4.952  24.440  0.00  0.00    -0.204 F 
ATOM     21  C   UNL     1      -0.840   4.153  25.427  0.00  0.00    +0.030 A 
ATOM     22  C   UNL     1      -1.525   3.942  25.837  0.00  0.00    +0.007 A 
ENDBRANCH  14  16
ENDBRANCH  12  13
ENDBRANCH  11  12
TORSDOF 6
ENDMDL
MODEL 2
REMARK VINA RESULT:     -11.1      2.489      6.179
REMARK  Name = 
REMARK  6 active torsions:
REMARK  status: ('A' for Active; 'I' for Inactive)
REMARK    1  A    between atoms: C_5  and  C_6
REMARK    2  A    between atoms: C_6  and  N_7
REMARK    3  A    between atoms: N_7  and  C_8
REMARK    4  A    between atoms: C_11  and  C_12
REMARK    5  A    between atoms: C_12  and  N_13
REMARK    6  A    between atoms: C_14  and  C_16
REMARK                            x       y       z     vdW  Elec       q    Type
REMARK                         _______ _______ _______ _____ _____    ______ ____
ROOT
ATOM      8  C   UNL     1      -1.259   1.338  25.151  0.00  0.00    +0.135 C 
ATOM      9  C   UNL     1      -0.819   0.997  25.760  0.00  0.00    +0.162 C 
ATOM     10  O   UNL     1      -0.946   0.181  25.740  0.00  0.00    -0.350 OA
ATOM     11  C   UNL     1      -1.465   0.020  25.119  0.00  0.00    +0.169 C 
ATOM     23  C   UNL     1      -1.658   0.735  24.755  0.00  0.00    +0.199 C 
ATOM     24  O   UNL     1      -2.162   0.830  24.108  0.00  0.00    -0.219 OA
ENDROOT
BRANCH   8   7
ATOM      7  N   UNL     1      -1.294   2.143  24.971  0.00  0.00    -0.209 NA
BRANCH   7   6
ATOM      6  C   UNL     1      -1.098   2.702  25.544  0.00  0.00    +0.115 C 
BRANCH   6   5
ATOM      1  C   UNL     1      -1.571   5.913  24.944  0.00  0.00    +0.031 C 
ATOM      2  C   UNL     1      -1.453   5.110  25.094  0.00  0.00    -0.022 A 
ATOM      3  C   UNL     1      -2.027   4.677  25.498  0.00  0.00    -0.005 A 
ATOM      4  C   UNL     1      -1.908   3.875  25.648  0.00  0.00    -0.003 A 
ATOM      5  C   UNL     1      -1.216   3.505  25.394  0.00  0.00    -0.005 A 
ATOM     25  C   UNL     1      -0.641   3.939  24.990  0.00  0.00    -0.003 A 
ATOM     26  C   UNL     1      -0.760   4.741  24.840  0.00  0.00    -0.005 A 
ENDBRANCH   6   5
ENDBRANCH   7   6
ENDBRANCH   8   7
BRANCH  11  12
ATOM     12  C   UNL     1      -1.741  -0.726  24.900  0.00  0.00    +0.148 C 
BRANCH  12  13
ATOM     13  N   UNL     1      -1.275  -1.394  25.029  0.00  0.00    -0.199 NA
ATOM     14  C   UNL     1      -1.597  -2.147  24.933  0.00  0.00    +0.265 C 
ATOM     15  O   UNL     1      -1.130  -2.815  25.062  0.00  0.00    -0.268 OA
BRANCH  14  16
ATOM     16  C   UNL     1      -2.386  -2.233  24.707  0.00  0.00    +0.055 A 
ATOM     17  C   UNL     1      -2.982  -2.210  25.278  0.00  0.00    +0.007 A 
ATOM     18  C   UNL     1      -3.771  -2.296  25.053  0.00  0.00    +0.030 A 
ATOM     19  C   UNL     1      -3.964  -2.404  24.259  0.00  0.00    +0.140 A 
ATOM     20  F   UNL     1      -4.754  -2.490  24.034  0.00  0.00    -0.204 F 
ATOM     21  C   UNL     1      -3.369  -2.427  23.689  0.00  0.00    +0.030 A 
ATOM     22  C   UNL     1      -2.579  -2.341  23.913  0.00  0.00    +0.007 A 
ENDBRANCH  14  16
ENDBRANCH  12  13
ENDBRANCH  11  12
TORSDOF 6
ENDMDL
MODEL 3
REMARK VINA RESULT:     -10.6      1.747      2.231
REMARK  Name = 
REMARK  6 active torsions:
REMARK  status: ('A' for Active; 'I' for Inactive)
REMARK    1  A    between atoms: C_5  and  C_6
REMARK    2  A    between atoms: C_6  and  N_7
REMARK    3  A    between atoms: N_7  and  C_8
REMARK    4  A    between atoms: C_11  and  C_12
REMARK    5  A    between atoms: C_12  and  N_13
REMARK    6  A    between atoms: C_14  and  C_16
REMARK                            x       y       z     vdW  Elec       q    Type
REMARK                         _______ _______ _______ _____ _____    ______ ____
ROOT
ATOM      8  C   UNL     1      -1.797  -0.148  25.044  0.00  0.00    +0.135 C 
ATOM      9  C   UNL     1      -1.350  -0.311  25.719  0.00  0.00    +0.162 C 
ATOM     10  O   UNL     1      -0.959   0.381  25.939  0.00  0.00    -0.350 OA
ATOM     11  C   UNL     1      -1.163   0.972  25.400  0.00  0.00    +0.169 C 
ATOM     23  C   UNL     1      -1.681   0.645  24.847  0.00  0.00    +0.199 C 
ATOM     24  O   UNL     1      -2.023   1.041  24.209  0.00  0.00    -0.219 OA
ENDROOT
BRANCH   8   7
ATOM      7  N   UNL     1      -2.275  -0.684  24.637  0.00  0.00    -0.209 NA
BRANCH   7   6
ATOM      6  C   UNL     1      -2.743  -1.218  25.057  0.00  0.00    +0.115 C 
BRANCH   6   5
ATOM      1  C   UNL     1      -4.767  -3.259  23.435  0.00  0.00    +0.031 C 
ATOM      2  C   UNL     1      -4.261  -2.749  23.841  0.00  0.00    -0.022 A 
ATOM      3  C   UNL     1      -4.397  -1.936  23.826  0.00  0.00    -0.005 A 
ATOM      4  C   UNL     1      -3.891  -1.426  24.231  0.00  0.00    -0.003 A 
ATOM      5  C   UNL     1      -3.249  -1.728  24.651  0.00  0.00    -0.005 A 
ATOM     25  C   UNL     1      -3.113  -2.542  24.666  0.00  0.00    -0.003 A 
ATOM     26  C   UNL     1      -3.619  -3.053  24.261  0.00  0.00    -0.005 A 
ENDBRANCH   6   5
ENDBRANCH   7   6
ENDBRANCH   8   7
BRANCH  11  12
ATOM     12  C   UNL     1      -0.897   1.752  25.412  0.00  0.00    +0.148 C 
BRANCH  12  13
ATOM     13  N   UNL     1      -0.225   1.953  25.848  0.00  0.00    -0.199 NA
ATOM     14  C   UNL     1      -0.050   2.745  25.994  0.00  0.00    +0.265 C 
ATOM     15  O   UNL     1       0.622   2.946  26.430  0.00  0.00    -0.268 OA
BRANCH  14  16
ATOM     16  C   UNL     1      -0.545   3.338  25.704  0.00  0.00    +0.055 A 
ATOM     17  C   UNL     1      -0.348   3.736  25.008  0.00  0.00    +0.007 A 
ATOM     18  C   UNL     1      -0.844   4.328  24.718  0.00  0.00    +0.030 A 
ATOM     19  C   UNL     1      -1.535   4.524  25.124  0.00  0.00    +0.140 A 
ATOM     20  F   UNL     1      -2.029   5.117  24.833  0.00  0.00    -0.204 F 
ATOM     21  C   UNL     1      -1.731   4.127  25.819  0.00  0.00    +0.030 A 
ATOM     22  C   UNL     1      -1.236   3.533  26.110  0.00  0.00    +0.007 A 
ENDBRANCH  14  16
ENDBRANCH  12  13
ENDBRANCH  11  12
TORSDOF 6
ENDMDL
MODEL 4
REMARK VINA RESULT:     -10.2      1.991      5.815
REMARK  Name = 
REMARK  6 active torsions:
REMARK  status: ('A' for Active; 'I' for Inactive)
REMARK    1  A    between atoms: C_5  and  C_6
REMARK    2  A    between atoms: C_6  and  N_7
REMARK    3  A    between atoms: N_7  and  C_8
REMARK    4  A    between atoms: C_11  and  C_12
REMARK    5  A    between atoms: C_12  and  N_13
REMARK    6  A    between atoms: C_14  and  C_16
REMARK                            x       y       z     vdW  Elec       q    Type
REMARK                         _______ _______ _______ _____ _____    ______ ____
ROOT
ATOM      8  C   UNL     1      -3.279   1.863  24.650  0.00  0.00    +0.135 C 
ATOM      9  C   UNL     1      -4.036   1.773  24.968  0.00  0.00    +0.162 C 
ATOM     10  O   UNL     1      -4.229   0.971  24.942  0.00  0.00    -0.350 OA
ATOM     11  C   UNL     1      -3.593   0.566  24.609  0.00  0.00    +0.169 C 
ATOM     23  C   UNL     1      -3.006   1.117  24.429  0.00  0.00    +0.199 C 
ATOM     24  O   UNL     1      -2.273   0.951  24.087  0.00  0.00    -0.219 OA
ENDROOT
BRANCH   8   7
ATOM      7  N   UNL     1      -2.869   2.574  24.569  0.00  0.00    -0.209 NA
BRANCH   7   6
ATOM      6  C   UNL     1      -2.731   3.048  25.230  0.00  0.00    +0.115 C 
BRANCH   6   5
ATOM      1  C   UNL     1      -0.816   5.723  24.968  0.00  0.00    +0.031 C 
ATOM      2  C   UNL     1      -1.295   5.054  25.034  0.00  0.00    -0.022 A 
ATOM      3  C   UNL     1      -2.113   5.137  25.094  0.00  0.00    -0.005 A 
ATOM      4  C   UNL     1      -2.591   4.468  25.159  0.00  0.00    -0.003 A 
ATOM      5  C   UNL     1      -2.252   3.717  25.164  0.00  0.00    -0.005 A 
ATOM     25  C   UNL     1      -1.433   3.634  25.104  0.00  0.00    -0.003 A 
ATOM     26  C   UNL     1      -0.954   4.302  25.039  0.00  0.00    -0.005 A 
ENDBRANCH   6   5
ENDBRANCH   7   6
ENDBRANCH   8   7
BRANCH  11  12
ATOM     12  C   UNL     1      -3.550  -0.248  24.479  0.00  0.00    +0.148 C 
BRANCH  12  13
ATOM     13  N   UNL     1      -4.207  -0.655  24.190  0.00  0.00    -0.199 NA
ATOM     14  C   UNL     1      -4.197  -1.478  24.150  0.00  0.00    +0.265 C 
ATOM     15  O   UNL     1      -4.854  -1.885  23.861  0.00  0.00    -0.268 OA
BRANCH  14  16
ATOM     16  C   UNL     1      -3.531  -1.896  24.401  0.00  0.00    +0.055 A 
ATOM     17  C   UNL     1      -2.941  -2.094  23.858  0.00  0.00    +0.007 A 
ATOM     18  C   UNL     1      -2.275  -2.512  24.108  0.00  0.00    +0.030 A 
ATOM     19  C   UNL     1      -2.199  -2.731  24.900  0.00  0.00    +0.140 A 
ATOM     20  F   UNL     1      -1.532  -3.149  25.149  0.00  0.00    -0.204 F 
ATOM     21  C   UNL     1      -2.788  -2.533  25.441  0.00  0.00    +0.030 A 
ATOM     22  C   UNL     1      -3.455  -2.115  25.192  0.00  0.00    +0.007 A 
ENDBRANCH  14  16
ENDBRANCH  12  13
ENDBRANCH  11  12
TORSDOF 6
ENDMDL
MODEL 5
REMARK VINA RESULT:      -9.5      4.050      6.029
REMARK  Name = 
REMARK  6 active torsions:
REMARK  status: ('A' for Active; 'I' for Inactive)
REMARK    1  A    between atoms: C_5  and  C_6
REMARK    2  A    between atoms: C_6  and  N_7
REMARK    3  A    between atoms: N_7  and  C_8
REMARK    4  A    between atoms: C_11  and  C_12
REMARK    5  A    between atoms: C_12  and  N_13
REMARK    6  A    between atoms: C_14  and  C_16
REMARK                            x       y       z     vdW  Elec       q    Type
REMARK                         _______ _______ _______ _____ _____    ______ ____
ROOT
ATOM      8  C   UNL     1      -0.206   0.261  23.887  0.00  0.00    +0.135 C 
ATOM      9  C   UNL     1      -0.660   0.940  23.766  0.00  0.00    +0.162 C 
ATOM     10  O   UNL     1      -1.430   0.778  24.014  0.00  0.00    -0.350 OA
ATOM     11  C   UNL     1      -1.453   0.000  24.287  0.00  0.00    +0.169 C 
ATOM     23  C   UNL     1      -0.696  -0.319  24.209  0.00  0.00    +0.199 C 
ATOM     24  O   UNL     1      -0.469  -1.085  24.417  0.00  0.00    -0.219 OA
ENDROOT
BRANCH   8   7
ATOM      7  N   UNL     1       0.597   0.177  23.716  0.00  0.00    -0.209 NA
BRANCH   7   6
ATOM      6  C   UNL     1       0.919   0.556  23.058  0.00  0.00    +0.115 C 
BRANCH   6   5
ATOM      1  C   UNL     1       4.179   0.487  22.548  0.00  0.00    +0.031 C 
ATOM      2  C   UNL     1       3.364   0.504  22.676  0.00  0.00    -0.022 A 
ATOM      3  C   UNL     1       3.035   1.084  23.161  0.00  0.00    -0.005 A 
ATOM      4  C   UNL     1       2.220   1.101  23.289  0.00  0.00    -0.003 A 
ATOM      5  C   UNL     1       1.734   0.539  22.930  0.00  0.00    -0.005 A 
ATOM     25  C   UNL     1       2.064  -0.041  22.444  0.00  0.00    -0.003 A 
ATOM     26  C   UNL     1       2.879  -0.058  22.317  0.00  0.00    -0.005 A 
ENDBRANCH   6   5
ENDBRANCH   7   6
ENDBRANCH   8   7
BRANCH  11  12
ATOM     12  C   UNL     1      -2.115  -0.390  24.587  0.00  0.00    +0.148 C 
BRANCH  12  13
ATOM     13  N   UNL     1      -2.710   0.038  24.965  0.00  0.00    -0.199 NA
ATOM     14  C   UNL     1      -3.442  -0.312  25.108  0.00  0.00    +0.265 C 
ATOM     15  O   UNL     1      -4.038   0.116  25.487  0.00  0.00    -0.268 OA
BRANCH  14  16
ATOM     16  C   UNL     1      -3.581  -1.091  24.873  0.00  0.00    +0.055 A 
ATOM     17  C   UNL     1      -3.376  -1.715  25.374  0.00  0.00    +0.007 A 
ATOM     18  C   UNL     1      -3.515  -2.494  25.138  0.00  0.00    +0.030 A 
ATOM     19  C   UNL     1      -3.857  -2.648  24.404  0.00  0.00    +0.140 A 
ATOM     20  F   UNL     1      -3.995  -3.428  24.170  0.00  0.00    -0.204 F 
ATOM     21  C   UNL     1      -4.061  -2.025  23.904  0.00  0.00    +0.030 A 
ATOM     22  C   UNL     1      -3.923  -1.246  24.139  0.00  0.00    +0.007 A 
ENDBRANCH  14  16
ENDBRANCH  12  13
ENDBRANCH  11  12
TORSDOF 6
ENDMDL
