MODEL 1
REMARK VINA RESULT:      -9.9      0.000      0.000
REMARK  Name = 
REMARK  3 active torsions:
REMARK  status: ('A' for Active; 'I' for Inactive)
REMARK    1  A    between atoms: O_2  and  C_3
REMARK    2  A    between atoms: C_6  and  N_7
REMARK    3  A    between atoms: N_10  and  C_11
REMARK                            x       y       z     vdW  Elec       q    Type
REMARK                         _______ _______ _______ _____ _____    ______ ____
ROOT
ATOM      7  N   UNL     1      -4.257   0.623  24.856  0.00  0.00    -0.161 NA
ATOM      8  C   UNL     1      -3.649   1.175  24.775  0.00  0.00    +0.344 C 
ATOM      9  O   UNL     1      -2.875   0.921  24.641  0.00  0.00    -0.249 OA
ATOM     10  N   UNL     1      -3.814   1.982  24.828  0.00  0.00    -0.184 NA
ENDROOT
BRANCH  10  11
ATOM     11  C   UNL     1      -3.206   2.534  24.747  0.00  0.00    +0.156 C 
ATOM     12  C   UNL     1      -2.626   2.533  24.161  0.00  0.00    +0.166 C 
ATOM     13  O   UNL     1      -2.134   3.182  24.290  0.00  0.00    -0.349 OA
ATOM     14  C   UNL     1      -2.409   3.584  24.955  0.00  0.00    +0.177 C 
ATOM     15  C   UNL     1      -2.276   4.233  25.446  0.00  0.00    +0.211 C 
ATOM     16  O   UNL     1      -1.668   4.785  25.365  0.00  0.00    -0.218 OA
ATOM     17  C   UNL     1      -2.856   4.234  26.032  0.00  0.00    +0.178 C 
ATOM     18  O   UNL     1      -3.348   3.585  25.903  0.00  0.00    -0.349 OA
ATOM     19  C   UNL     1      -3.072   3.183  25.237  0.00  0.00    +0.167 C 
ENDBRANCH  10  11
BRANCH   7   6
ATOM      3  C   UNL     1      -3.762  -1.797  24.696  0.00  0.00    +0.139 A 
ATOM      4  C   UNL     1      -4.068  -1.394  24.044  0.00  0.00    +0.038 A 
ATOM      5  C   UNL     1      -4.233  -0.587  24.098  0.00  0.00    +0.020 A 
ATOM      6  C   UNL     1      -4.092  -0.183  24.803  0.00  0.00    +0.075 A 
ATOM     20  C   UNL     1      -3.786  -0.586  25.454  0.00  0.00    +0.020 A 
ATOM     21  C   UNL     1      -3.621  -1.393  25.401  0.00  0.00    +0.038 A 
BRANCH   3   2
ATOM      1  C   UNL     1      -2.819  -2.859  24.539  0.00  0.00    +0.252 C 
ATOM      2  O   UNL     1      -3.597  -2.603  24.642  0.00  0.00    -0.471 OA
ENDBRANCH   3   2
ENDBRANCH   7   6
TORSDOF 3
ENDMDL
MODEL 2
REMARK VINA RESULT:      -9.3      0.820      4.958
REMARK  Name = 
REMARK  3 active torsions:
REMARK  status: ('A' for Active; 'I' for Inactive)
REMARK    1  A    between atoms: O_2  and  C_3
REMARK    2  A    between atoms: C_6  and  N_7
REMARK    3  A    between atoms: N_10  and  C_11
REMARK                            x       y       z     vdW  Elec       q    Type
REMARK                         _______ _______ _______ _____ _____    ______ ____
ROOT
ATOM      7  N   UNL     1      -4.352   1.607  24.452  0.00  0.00    -0.161 NA
ATOM      8  C   UNL     1      -4.025   0.896  24.713  0.00  0.00    +0.344 C 
ATOM      9  O   UNL     1      -3.295   0.894  25.098  0.00  0.00    -0.249 OA
ATOM     10  N   UNL     1      -4.428   0.187  24.589  0.00  0.00    -0.184 NA
ENDROOT
BRANCH  10  11
ATOM     11  C   UNL     1      -4.101  -0.525  24.850  0.00  0.00    +0.156 C 
ATOM     12  C   UNL     1      -3.721  -0.648  25.571  0.00  0.00    +0.166 C 
ATOM     13  O   UNL     1      -3.482  -1.436  25.602  0.00  0.00    -0.349 OA
ATOM     14  C   UNL     1      -3.715  -1.801  24.900  0.00  0.00    +0.177 C 
ATOM     15  C   UNL     1      -3.711  -2.514  24.484  0.00  0.00    +0.211 C 
ATOM     16  O   UNL     1      -3.384  -3.225  24.745  0.00  0.00    -0.218 OA
ATOM     17  C   UNL     1      -4.091  -2.391  23.763  0.00  0.00    +0.178 C 
ATOM     18  O   UNL     1      -4.330  -1.602  23.732  0.00  0.00    -0.349 OA
ATOM     19  C   UNL     1      -4.097  -1.237  24.435  0.00  0.00    +0.167 C 
ENDBRANCH  10  11
BRANCH   7   6
ATOM      3  C   UNL     1      -3.144   3.735  24.823  0.00  0.00    +0.139 A 
ATOM      4  C   UNL     1      -2.959   3.264  24.171  0.00  0.00    +0.038 A 
ATOM      5  C   UNL     1      -3.362   2.555  24.048  0.00  0.00    +0.020 A 
ATOM      6  C   UNL     1      -3.949   2.317  24.576  0.00  0.00    +0.075 A 
ATOM     20  C   UNL     1      -4.133   2.787  25.227  0.00  0.00    +0.020 A 
ATOM     21  C   UNL     1      -3.731   3.497  25.351  0.00  0.00    +0.038 A 
BRANCH   3   2
ATOM      1  C   UNL     1      -2.004   4.441  25.320  0.00  0.00    +0.252 C 
ATOM      2  O   UNL     1      -2.741   4.444  24.947  0.00  0.00    -0.471 OA
ENDBRANCH   3   2
ENDBRANCH   7   6
TORSDOF 3
ENDMDL
MODEL 3
REMARK VINA RESULT:      -9.2      1.525      1.984
REMARK  Name = 
REMARK  3 active torsions:
REMARK  status: ('A' for Active; 'I' for Inactive)
REMARK    1  A    between atoms: O_2  and  C_3
REMARK    2  A    between atoms: C_6  and  N_7
REMARK    3  A    between atoms: N_10  and  C_11
REMARK                            x       y       z     vdW  Elec       q    Type
REMARK                         _______ _______ _______ _____ _____    ______ ____
ROOT
ATOM      7  N   UNL     1      -3.621   0.276  24.311  0.00  0.00    -0.161 NA
ATOM      8  C   UNL     1      -4.208   0.759  24.629  0.00  0.00    +0.344 C 
ATOM      9  O   UNL     1      -4.777   0.440  25.135  0.00  0.00    -0.249 OA
ATOM     10  N   UNL     1      -4.227   1.563  24.444  0.00  0.00    -0.184 NA
ENDROOT
BRANCH  10  11
ATOM     11  C   UNL     1      -4.815   2.047  24.763  0.00  0.00    +0.156 C 
ATOM     12  C   UNL     1      -5.606   1.840  24.873  0.00  0.00    +0.166 C 
ATOM     13  O   UNL     1      -5.994   2.488  25.205  0.00  0.00    -0.349 OA
ATOM     14  C   UNL     1      -5.444   3.094  25.301  0.00  0.00    +0.177 C 
ATOM     15  C   UNL     1      -5.342   3.868  25.566  0.00  0.00    +0.211 C 
ATOM     16  O   UNL     1      -5.930   4.352  25.885  0.00  0.00    -0.218 OA
ATOM     17  C   UNL     1      -4.551   4.075  25.456  0.00  0.00    +0.178 C 
ATOM     18  O   UNL     1      -4.163   3.428  25.123  0.00  0.00    -0.349 OA
ATOM     19  C   UNL     1      -4.715   2.821  25.027  0.00  0.00    +0.167 C 
ENDBRANCH  10  11
BRANCH   7   6
ATOM      3  C   UNL     1      -3.564  -2.135  24.867  0.00  0.00    +0.139 A 
ATOM      4  C   UNL     1      -3.957  -1.877  24.188  0.00  0.00    +0.038 A 
ATOM      5  C   UNL     1      -3.975  -1.074  24.003  0.00  0.00    +0.020 A 
ATOM      6  C   UNL     1      -3.602  -0.528  24.496  0.00  0.00    +0.075 A 
ATOM     20  C   UNL     1      -3.210  -0.786  25.174  0.00  0.00    +0.020 A 
ATOM     21  C   UNL     1      -3.191  -1.589  25.360  0.00  0.00    +0.038 A 
BRANCH   3   2
ATOM      1  C   UNL     1      -3.174  -3.471  24.541  0.00  0.00    +0.252 C 
ATOM      2  O   UNL     1      -3.546  -2.939  25.052  0.00  0.00    -0.471 OA
ENDBRANCH   3   2
ENDBRANCH   7   6
TORSDOF 3
ENDMDL
MODEL 4
REMARK VINA RESULT:      -8.8      1.824      2.054
REMARK  Name = 
REMARK  3 active torsions:
REMARK  status: ('A' for Active; 'I' for Inactive)
REMARK    1  A    between atoms: O_2  and  C_3
REMARK    2  A    between atoms: C_6  and  N_7
REMARK    3  A    between atoms: N_10  and  C_11
REMARK                            x       y       z     vdW  Elec       q    Type
REMARK                         _______ _______ _______ _____ _____    ______ ____
ROOT
ATOM      7  N   UNL     1      -1.643  -0.520  25.689  0.00  0.00    -0.161 NA
ATOM      8  C   UNL     1      -1.471   0.160  25.255  0.00  0.00    +0.344 C 
ATOM      9  O   UNL     1      -1.801   0.266  24.506  0.00  0.00    -0.249 OA
ATOM     10  N   UNL     1      -0.970   0.735  25.569  0.00  0.00    -0.184 NA
ENDROOT
BRANCH  10  11
ATOM     11  C   UNL     1      -0.798   1.415  25.134  0.00  0.00    +0.156 C 
ATOM     12  C   UNL     1      -0.489   1.437  24.370  0.00  0.00    +0.166 C 
ATOM     13  O   UNL     1      -0.406   2.227  24.152  0.00  0.00    -0.349 OA
ATOM     14  C   UNL     1      -0.663   2.695  24.780  0.00  0.00    +0.177 C 
ATOM     15  C   UNL     1      -0.771   3.472  25.034  0.00  0.00    +0.211 C 
ATOM     16  O   UNL     1      -0.600   4.152  24.600  0.00  0.00    -0.218 OA
ATOM     17  C   UNL     1      -1.080   3.450  25.799  0.00  0.00    +0.178 C 
ATOM     18  O   UNL     1      -1.164   2.660  26.017  0.00  0.00    -0.349 OA
ATOM     19  C   UNL     1      -0.906   2.192  25.388  0.00  0.00    +0.167 C 
ENDBRANCH  10  11
BRANCH   7   6
ATOM      3  C   UNL     1      -3.147  -2.245  24.747  0.00  0.00    +0.139 A 
ATOM      4  C   UNL     1      -2.337  -2.272  24.588  0.00  0.00    +0.038 A 
ATOM      5  C   UNL     1      -1.837  -1.697  24.903  0.00  0.00    +0.020 A 
ATOM      6  C   UNL     1      -2.145  -1.095  25.375  0.00  0.00    +0.075 A 
ATOM     20  C   UNL     1      -2.953  -1.068  25.533  0.00  0.00    +0.020 A 
ATOM     21  C   UNL     1      -3.455  -1.644  25.220  0.00  0.00    +0.038 A 
BRANCH   3   2
ATOM      1  C   UNL     1      -4.225  -2.609  23.883  0.00  0.00    +0.252 C 
ATOM      2  O   UNL     1      -3.647  -2.821  24.433  0.00  0.00    -0.471 OA
ENDBRANCH   3   2
ENDBRANCH   7   6
TORSDOF 3
ENDMDL
MODEL 5
REMARK VINA RESULT:      -8.6      1.894      5.301
REMARK  Name = 
REMARK  3 active torsions:
REMARK  status: ('A' for Active; 'I' for Inactive)
REMARK    1  A    between atoms: O_2  and  C_3
REMARK    2  A    between atoms: C_6  and  N_7
REMARK    3  A    between atoms: N_10  and  C_11
REMARK                            x       y       z     vdW  Elec       q    Type
REMARK                         _______ _______ _______ _____ _____    ______ ____
ROOT
ATOM      7  N   UNL     1      -0.591   1.104  25.322  0.00  0.00    -0.161 NA
ATOM      8  C   UNL     1      -1.277   0.649  25.281  0.00  0.00    +0.344 C 
ATOM      9  O   UNL     1      -2.010   1.013  25.170  0.00  0.00    -0.249 OA
ATOM     10  N   UNL     1      -1.233  -0.172  25.350  0.00  0.00    -0.184 NA
ENDROOT
BRANCH  10  11
ATOM     11  C   UNL     1      -1.919  -0.628  25.309  0.00  0.00    +0.156 C 
ATOM     12  C   UNL     1      -2.656  -0.424  25.618  0.00  0.00    +0.166 C 
ATOM     13  O   UNL     1      -3.181  -1.038  25.451  0.00  0.00    -0.349 OA
ATOM     14  C   UNL     1      -2.770  -1.621  25.038  0.00  0.00    +0.177 C 
ATOM     15  C   UNL     1      -2.839  -2.360  24.679  0.00  0.00    +0.211 C 
ATOM     16  O   UNL     1      -3.525  -2.816  24.638  0.00  0.00    -0.218 OA
ATOM     17  C   UNL     1      -2.102  -2.564  24.369  0.00  0.00    +0.178 C 
ATOM     18  O   UNL     1      -1.577  -1.951  24.537  0.00  0.00    -0.349 OA
ATOM     19  C   UNL     1      -1.989  -1.368  24.950  0.00  0.00    +0.167 C 
ENDBRANCH  10  11
BRANCH   7   6
ATOM      3  C   UNL     1      -0.725   3.567  25.113  0.00  0.00    +0.139 A 
ATOM      4  C   UNL     1      -0.657   3.098  24.437  0.00  0.00    +0.038 A 
ATOM      5  C   UNL     1      -0.613   2.278  24.508  0.00  0.00    +0.020 A 
ATOM      6  C   UNL     1      -0.636   1.925  25.253  0.00  0.00    +0.075 A 
ATOM     20  C   UNL     1      -0.704   2.393  25.928  0.00  0.00    +0.020 A 
ATOM     21  C   UNL     1      -0.749   3.214  25.859  0.00  0.00    +0.038 A 
BRANCH   3   2
ATOM      1  C   UNL     1      -1.491   4.773  25.158  0.00  0.00    +0.252 C 
ATOM      2  O   UNL     1      -0.770   4.388  25.043  0.00  0.00    -0.471 OA
ENDBRANCH   3   2
ENDBRANCH   7   6
TORSDOF 3
ENDMDL
