MODEL 1
REMARK VINA RESULT:     -14.6      0.000      0.000
REMARK  Name = 
REMARK  7 active torsions:
REMARK  status: ('A' for Active; 'I' for Inactive)
REMARK    1  A    between atoms: C_2  and  C_3
REMARK    2  A    between atoms: C_3  and  O_4
REMARK    3  A    between atoms: O_4  and  C_5
REMARK    4  A    between atoms: C_20  and  N_21
REMARK    5  A    between atoms: N_21  and  S_22
REMARK    6  A    between atoms: S_22  and  C_25
REMARK    7  A    between atoms: C_30  and  C_31
REMARK                            x       y       z     vdW  Elec       q    Type
REMARK                         _______ _______ _______ _____ _____    ______ ____
ROOT
ATOM      1  O   UNL     1      -2.272   3.256  24.926  0.00  0.00    -0.271 OA
ATOM      2  C   UNL     1      -2.979   2.838  24.997  0.00  0.00    +0.270 C 
ATOM     11  N   UNL     1      -3.681   3.240  25.161  0.00  0.00    -0.276 N 
ATOM     12  C   UNL     1      -4.192   3.881  25.321  0.00  0.00    +0.095 C 
ATOM     13  C   UNL     1      -5.047   3.393  25.409  0.00  0.00    +0.043 C 
ATOM     14  C   UNL     1      -5.816   3.145  25.510  0.00  0.00    +0.011 C 
ATOM     15  C   UNL     1      -5.192   2.856  25.372  0.00  0.00    +0.058 C 
ATOM     16  C   UNL     1      -4.374   3.342  25.290  0.00  0.00    +0.099 C 
ATOM     17  C   UNL     1      -4.794   2.043  25.211  0.00  0.00    +0.041 A 
ATOM     18  C   UNL     1      -4.977   1.242  25.149  0.00  0.00    +0.014 A 
ATOM     19  C   UNL     1      -4.381   0.694  24.986  0.00  0.00    +0.024 A 
ATOM     20  C   UNL     1      -3.603   0.949  24.884  0.00  0.00    +0.147 A 
ATOM     33  C   UNL     1      -3.420   1.751  24.946  0.00  0.00    +0.277 A 
ATOM     34  O   UNL     1      -2.651   1.499  24.787  0.00  0.00    -0.266 OA
ATOM     35  N   UNL     1      -4.015   2.298  25.109  0.00  0.00    -0.298 N 
ATOM     36  C   UNL     1      -4.622   2.549  25.240  0.00  0.00    +0.110 C 
ENDROOT
BRANCH   2   3
ATOM      3  C   UNL     1      -2.986   2.018  24.903  0.00  0.00    +0.290 C 
BRANCH   3   4
ATOM      4  O   UNL     1      -2.295   1.623  24.687  0.00  0.00    -0.466 OA
BRANCH   4   5
ATOM      5  C   UNL     1      -1.559   1.942  24.877  0.00  0.00    +0.139 A 
ATOM      6  C   UNL     1      -1.093   2.282  24.287  0.00  0.00    +0.037 A 
ATOM      7  C   UNL     1      -0.355   2.602  24.476  0.00  0.00    +0.003 A 
ATOM      8  C   UNL     1      -0.086   2.581  25.256  0.00  0.00    +0.000 A 
ATOM      9  C   UNL     1      -0.552   2.241  25.846  0.00  0.00    +0.003 A 
ATOM     10  C   UNL     1      -1.288   1.922  25.655  0.00  0.00    +0.037 A 
ENDBRANCH   4   5
ENDBRANCH   3   4
ENDBRANCH   2   3
BRANCH  20  21
ATOM     21  N   UNL     1      -3.009   0.401  24.721  0.00  0.00    -0.092 NA
BRANCH  21  22
ATOM     22  S   UNL     1      -3.202  -0.387  24.575  0.00  0.00    +0.094 S 
ATOM     23  O   UNL     1      -3.262  -0.522  25.386  0.00  0.00    -0.148 OA
ATOM     24  O   UNL     1      -3.142  -0.252  23.764  0.00  0.00    -0.148 OA
BRANCH  22  25
ATOM     25  C   UNL     1      -3.396  -1.176  24.429  0.00  0.00    +0.137 A 
ATOM     26  C   UNL     1      -4.142  -1.370  24.134  0.00  0.00    +0.021 A 
ATOM     27  C   UNL     1      -4.335  -2.159  23.988  0.00  0.00    +0.001 A 
ATOM     28  C   UNL     1      -3.782  -2.753  24.137  0.00  0.00    +0.001 A 
ATOM     29  C   UNL     1      -3.036  -2.559  24.431  0.00  0.00    +0.012 A 
ATOM     30  C   UNL     1      -2.843  -1.770  24.577  0.00  0.00    +0.087 A 
BRANCH  30  31
ATOM     31  C   UNL     1      -2.097  -1.576  24.872  0.00  0.00    +0.102 C 
ATOM     32  N   UNL     1      -1.351  -1.382  25.166  0.00  0.00    -0.191 NA
ENDBRANCH  30  31
ENDBRANCH  22  25
ENDBRANCH  21  22
ENDBRANCH  20  21
TORSDOF 7
ENDMDL
MODEL 2
REMARK VINA RESULT:     -13.8      1.039      3.406
REMARK  Name = 
REMARK  7 active torsions:
REMARK  status: ('A' for Active; 'I' for Inactive)
REMARK    1  A    between atoms: C_2  and  C_3
REMARK    2  A    between atoms: C_3  and  O_4
REMARK    3  A    between atoms: O_4  and  C_5
REMARK    4  A    between atoms: C_20  and  N_21
REMARK    5  A    between atoms: N_21  and  S_22
REMARK    6  A    between atoms: S_22  and  C_25
REMARK    7  A    between atoms: C_30  and  C_31
REMARK                            x       y       z     vdW  Elec       q    Type
REMARK                         _______ _______ _______ _____ _____    ______ ____
ROOT
ATOM      1  O   UNL     1      -5.029  -0.084  24.660  0.00  0.00    -0.271 OA
ATOM      2  C   UNL     1      -4.749   0.680  24.789  0.00  0.00    +0.270 C 
ATOM     11  N   UNL     1      -5.271   1.280  25.009  0.00  0.00    -0.276 N 
ATOM     12  C   UNL     1      -5.993   1.650  25.208  0.00  0.00    +0.095 C 
ATOM     13  C   UNL     1      -5.670   2.570  25.366  0.00  0.00    +0.043 C 
ATOM     14  C   UNL     1      -5.567   3.362  25.529  0.00  0.00    +0.011 C 
ATOM     15  C   UNL     1      -5.169   2.815  25.342  0.00  0.00    +0.058 C 
ATOM     16  C   UNL     1      -5.497   1.930  25.193  0.00  0.00    +0.099 C 
ATOM     17  C   UNL     1      -4.299   2.588  25.152  0.00  0.00    +0.041 A 
ATOM     18  C   UNL     1      -3.546   2.920  25.107  0.00  0.00    +0.014 A 
ATOM     19  C   UNL     1      -2.900   2.451  24.898  0.00  0.00    +0.024 A 
ATOM     20  C   UNL     1      -3.008   1.650  24.733  0.00  0.00    +0.147 A 
ATOM     33  C   UNL     1      -3.762   1.317  24.777  0.00  0.00    +0.277 A 
ATOM     34  O   UNL     1      -3.375   0.623  24.558  0.00  0.00    -0.266 OA
ATOM     35  N   UNL     1      -4.408   1.786  24.987  0.00  0.00    -0.298 N 
ATOM     36  C   UNL     1      -4.764   2.324  25.166  0.00  0.00    +0.110 C 
ENDROOT
BRANCH   2   3
ATOM      3  C   UNL     1      -3.945   0.846  24.699  0.00  0.00    +0.290 C 
BRANCH   3   4
ATOM      4  O   UNL     1      -3.441   0.278  24.378  0.00  0.00    -0.466 OA
BRANCH   4   5
ATOM      5  C   UNL     1      -3.597  -0.524  24.492  0.00  0.00    +0.139 A 
ATOM      6  C   UNL     1      -3.883  -0.981  23.866  0.00  0.00    +0.037 A 
ATOM      7  C   UNL     1      -4.039  -1.784  23.979  0.00  0.00    +0.003 A 
ATOM      8  C   UNL     1      -3.909  -2.129  24.716  0.00  0.00    +0.000 A 
ATOM      9  C   UNL     1      -3.622  -1.672  25.342  0.00  0.00    +0.003 A 
ATOM     10  C   UNL     1      -3.466  -0.871  25.228  0.00  0.00    +0.037 A 
ENDBRANCH   4   5
ENDBRANCH   3   4
ENDBRANCH   2   3
BRANCH  20  21
ATOM     21  N   UNL     1      -2.363   1.181  24.524  0.00  0.00    -0.092 NA
BRANCH  21  22
ATOM     22  S   UNL     1      -1.612   1.518  24.461  0.00  0.00    +0.094 S 
ATOM     23  O   UNL     1      -1.488   1.393  25.266  0.00  0.00    -0.148 OA
ATOM     24  O   UNL     1      -1.736   1.643  23.655  0.00  0.00    -0.148 OA
BRANCH  22  25
ATOM     25  C   UNL     1      -0.861   1.854  24.397  0.00  0.00    +0.137 A 
ATOM     26  C   UNL     1      -0.767   2.670  24.474  0.00  0.00    +0.021 A 
ATOM     27  C   UNL     1      -0.016   3.006  24.410  0.00  0.00    +0.001 A 
ATOM     28  C   UNL     1       0.640   2.526  24.269  0.00  0.00    +0.001 A 
ATOM     29  C   UNL     1       0.546   1.710  24.192  0.00  0.00    +0.012 A 
ATOM     30  C   UNL     1      -0.205   1.374  24.256  0.00  0.00    +0.087 A 
BRANCH  30  31
ATOM     31  C   UNL     1      -0.300   0.558  24.178  0.00  0.00    +0.102 C 
ATOM     32  N   UNL     1      -0.394  -0.258  24.101  0.00  0.00    -0.191 NA
ENDBRANCH  30  31
ENDBRANCH  22  25
ENDBRANCH  21  22
ENDBRANCH  20  21
TORSDOF 7
ENDMDL
MODEL 3
REMARK VINA RESULT:     -13.7      1.080      3.934
REMARK  Name = 
REMARK  7 active torsions:
REMARK  status: ('A' for Active; 'I' for Inactive)
REMARK    1  A    between atoms: C_2  and  C_3
REMARK    2  A    between atoms: C_3  and  O_4
REMARK    3  A    between atoms: O_4  and  C_5
REMARK    4  A    between atoms: C_20  and  N_21
REMARK    5  A    between atoms: N_21  and  S_22
REMARK    6  A    between atoms: S_22  and  C_25
REMARK    7  A    between atoms: C_30  and  C_31
REMARK                            x       y       z     vdW  Elec       q    Type
REMARK                         _______ _______ _______ _____ _____    ______ ____
ROOT
ATOM      1  O   UNL     1      -0.904  -0.568  24.743  0.00  0.00    -0.271 OA
ATOM      2  C   UNL     1      -1.711  -0.724  24.680  0.00  0.00    +0.270 C 
ATOM     11  N   UNL     1      -1.975  -1.501  24.597  0.00  0.00    -0.276 N 
ATOM     12  C   UNL     1      -1.940  -2.333  24.527  0.00  0.00    +0.095 C 
ATOM     13  C   UNL     1      -2.904  -2.534  24.451  0.00  0.00    +0.043 C 
ATOM     14  C   UNL     1      -3.646  -2.861  24.378  0.00  0.00    +0.011 C 
ATOM     15  C   UNL     1      -3.366  -2.222  24.450  0.00  0.00    +0.058 C 
ATOM     16  C   UNL     1      -2.431  -2.044  24.522  0.00  0.00    +0.099 C 
ATOM     17  C   UNL     1      -3.600  -1.335  24.513  0.00  0.00    +0.041 A 
ATOM     18  C   UNL     1      -4.264  -0.847  24.516  0.00  0.00    +0.014 A 
ATOM     19  C   UNL     1      -4.175  -0.030  24.592  0.00  0.00    +0.024 A 
ATOM     20  C   UNL     1      -3.422   0.298  24.666  0.00  0.00    +0.147 A 
ATOM     33  C   UNL     1      -2.757  -0.191  24.663  0.00  0.00    +0.277 A 
ATOM     34  O   UNL     1      -2.343   0.517  24.750  0.00  0.00    -0.266 OA
ATOM     35  N   UNL     1      -2.846  -1.007  24.587  0.00  0.00    -0.298 N 
ATOM     36  C   UNL     1      -3.139  -1.606  24.518  0.00  0.00    +0.110 C 
ENDROOT
BRANCH   2   3
ATOM      3  C   UNL     1      -2.255  -0.103  24.701  0.00  0.00    +0.290 C 
BRANCH   3   4
ATOM      4  O   UNL     1      -1.997   0.665  24.854  0.00  0.00    -0.466 OA
BRANCH   4   5
ATOM      5  C   UNL     1      -1.247   0.906  24.608  0.00  0.00    +0.139 A 
ATOM      6  C   UNL     1      -0.662   1.065  25.168  0.00  0.00    +0.037 A 
ATOM      7  C   UNL     1       0.089   1.306  24.923  0.00  0.00    +0.003 A 
ATOM      8  C   UNL     1       0.253   1.389  24.119  0.00  0.00    +0.000 A 
ATOM      9  C   UNL     1      -0.333   1.230  23.559  0.00  0.00    +0.003 A 
ATOM     10  C   UNL     1      -1.082   0.989  23.805  0.00  0.00    +0.037 A 
ENDBRANCH   4   5
ENDBRANCH   3   4
ENDBRANCH   2   3
BRANCH  20  21
ATOM     21  N   UNL     1      -3.334   1.114  24.742  0.00  0.00    -0.092 NA
BRANCH  21  22
ATOM     22  S   UNL     1      -3.989   1.586  24.907  0.00  0.00    +0.094 S 
ATOM     23  O   UNL     1      -4.141   1.658  24.099  0.00  0.00    -0.148 OA
ATOM     24  O   UNL     1      -3.838   1.515  25.714  0.00  0.00    -0.148 OA
BRANCH  22  25
ATOM     25  C   UNL     1      -4.645   2.059  25.072  0.00  0.00    +0.137 A 
ATOM     26  C   UNL     1      -5.370   1.710  25.253  0.00  0.00    +0.021 A 
ATOM     27  C   UNL     1      -6.026   2.183  25.419  0.00  0.00    +0.001 A 
ATOM     28  C   UNL     1      -5.956   3.005  25.403  0.00  0.00    +0.001 A 
ATOM     29  C   UNL     1      -5.231   3.354  25.222  0.00  0.00    +0.012 A 
ATOM     30  C   UNL     1      -4.575   2.881  25.056  0.00  0.00    +0.087 A 
BRANCH  30  31
ATOM     31  C   UNL     1      -3.849   3.230  24.875  0.00  0.00    +0.102 C 
ATOM     32  N   UNL     1      -3.124   3.580  24.694  0.00  0.00    -0.191 NA
ENDBRANCH  30  31
ENDBRANCH  22  25
ENDBRANCH  21  22
ENDBRANCH  20  21
TORSDOF 7
ENDMDL
MODEL 4
REMARK VINA RESULT:     -13.3      1.061      2.884
REMARK  Name = 
REMARK  7 active torsions:
REMARK  status: ('A' for Active; 'I' for Inactive)
REMARK    1  A    between atoms: C_2  and  C_3
REMARK    2  A    between atoms: C_3  and  O_4
REMARK    3  A    between atoms: O_4  and  C_5
REMARK    4  A    between atoms: C_20  and  N_21
REMARK    5  A    between atoms: N_21  and  S_22
REMARK    6  A    between atoms: S_22  and  C_25
REMARK    7  A    between atoms: C_30  and  C_31
REMARK                            x       y       z     vdW  Elec       q    Type
REMARK                         _______ _______ _______ _____ _____    ______ ____
ROOT
ATOM      1  O   UNL     1      -4.204   3.277  24.987  0.00  0.00    -0.271 OA
ATOM      2  C   UNL     1      -3.430   2.997  25.036  0.00  0.00    +0.270 C 
ATOM     11  N   UNL     1      -2.807   3.525  25.155  0.00  0.00    -0.276 N 
ATOM     12  C   UNL     1      -2.415   4.253  25.272  0.00  0.00    +0.095 C 
ATOM     13  C   UNL     1      -1.482   3.931  25.333  0.00  0.00    +0.043 C 
ATOM     14  C   UNL     1      -0.677   3.830  25.404  0.00  0.00    +0.011 C 
ATOM     15  C   UNL     1      -1.244   3.428  25.303  0.00  0.00    +0.058 C 
ATOM     16  C   UNL     1      -2.139   3.755  25.247  0.00  0.00    +0.099 C 
ATOM     17  C   UNL     1      -1.494   2.551  25.185  0.00  0.00    +0.041 A 
ATOM     18  C   UNL     1      -1.170   1.794  25.138  0.00  0.00    +0.014 A 
ATOM     19  C   UNL     1      -1.662   1.143  25.019  0.00  0.00    +0.024 A 
ATOM     20  C   UNL     1      -2.478   1.249  24.947  0.00  0.00    +0.147 A 
ATOM     33  C   UNL     1      -2.801   2.006  24.995  0.00  0.00    +0.277 A 
ATOM     34  O   UNL     1      -3.517   1.614  24.880  0.00  0.00    -0.266 OA
ATOM     35  N   UNL     1      -2.309   2.657  25.114  0.00  0.00    -0.298 N 
ATOM     36  C   UNL     1      -1.753   3.018  25.208  0.00  0.00    +0.110 C 
ENDROOT
BRANCH   2   3
ATOM      3  C   UNL     1      -3.278   2.188  24.965  0.00  0.00    +0.290 C 
BRANCH   3   4
ATOM      4  O   UNL     1      -3.887   1.671  24.761  0.00  0.00    -0.466 OA
BRANCH   4   5
ATOM      5  C   UNL     1      -4.663   1.839  24.981  0.00  0.00    +0.139 A 
ATOM      6  C   UNL     1      -5.209   2.083  24.412  0.00  0.00    +0.037 A 
ATOM      7  C   UNL     1      -5.987   2.251  24.632  0.00  0.00    +0.003 A 
ATOM      8  C   UNL     1      -6.218   2.174  25.420  0.00  0.00    +0.000 A 
ATOM      9  C   UNL     1      -5.672   1.930  25.989  0.00  0.00    +0.003 A 
ATOM     10  C   UNL     1      -4.895   1.763  25.769  0.00  0.00    +0.037 A 
ENDBRANCH   4   5
ENDBRANCH   3   4
ENDBRANCH   2   3
BRANCH  20  21
ATOM     21  N   UNL     1      -2.969   0.597  24.828  0.00  0.00    -0.092 NA
BRANCH  21  22
ATOM     22  S   UNL     1      -2.646  -0.161  24.783  0.00  0.00    +0.094 S 
ATOM     23  O   UNL     1      -2.516  -0.057  23.975  0.00  0.00    -0.148 OA
ATOM     24  O   UNL     1      -2.775  -0.264  25.591  0.00  0.00    -0.148 OA
BRANCH  22  25
ATOM     25  C   UNL     1      -2.322  -0.919  24.739  0.00  0.00    +0.137 A 
ATOM     26  C   UNL     1      -1.527  -1.040  24.922  0.00  0.00    +0.021 A 
ATOM     27  C   UNL     1      -1.205  -1.798  24.878  0.00  0.00    +0.001 A 
ATOM     28  C   UNL     1      -1.678  -2.435  24.649  0.00  0.00    +0.001 A 
ATOM     29  C   UNL     1      -2.473  -2.313  24.466  0.00  0.00    +0.012 A 
ATOM     30  C   UNL     1      -2.795  -1.556  24.510  0.00  0.00    +0.087 A 
BRANCH  30  31
ATOM     31  C   UNL     1      -3.591  -1.434  24.326  0.00  0.00    +0.102 C 
ATOM     32  N   UNL     1      -4.386  -1.313  24.143  0.00  0.00    -0.191 NA
ENDBRANCH  30  31
ENDBRANCH  22  25
ENDBRANCH  21  22
ENDBRANCH  20  21
TORSDOF 7
ENDMDL
