MODEL 1
REMARK VINA RESULT:      -8.2      0.000      0.000
REMARK  Name = 
REMARK  8 active torsions:
REMARK  status: ('A' for Active; 'I' for Inactive)
REMARK    1  A    between atoms: N_4  and  C_5
REMARK    2  A    between atoms: C_8  and  C_9
REMARK    3  A    between atoms: C_9  and  N_10
REMARK    4  A    between atoms: N_10  and  C_11
REMARK    5  A    between atoms: C_14  and  C_15
REMARK    6  A    between atoms: C_15  and  N_16
REMARK    7  A    between atoms: N_16  and  S_17
REMARK    8  A    between atoms: S_17  and  C_20
REMARK                            x       y       z     vdW  Elec       q    Type
REMARK                         _______ _______ _______ _____ _____    ______ ____
ROOT
ATOM     11  C   UNL     1       0.475   0.541  23.591  0.00  0.00    +0.135 C 
ATOM     12  C   UNL     1       0.067  -0.139  23.364  0.00  0.00    +0.162 C 
ATOM     13  O   UNL     1      -0.726  -0.040  23.567  0.00  0.00    -0.350 OA
ATOM     14  C   UNL     1      -0.808   0.701  23.921  0.00  0.00    +0.166 C 
ATOM     27  C   UNL     1      -0.066   1.060  23.936  0.00  0.00    +0.199 C 
ATOM     28  O   UNL     1       0.105   1.807  24.241  0.00  0.00    -0.219 OA
ENDROOT
BRANCH  11  10
ATOM     10  N   UNL     1       1.283   0.678  23.492  0.00  0.00    -0.209 NA
BRANCH  10   9
ATOM      9  C   UNL     1       1.695   0.298  22.888  0.00  0.00    +0.115 C 
BRANCH   9   8
ATOM      5  C   UNL     1       4.168   0.252  22.914  0.00  0.00    +0.073 A 
ATOM      6  C   UNL     1       3.771   0.960  22.770  0.00  0.00    +0.016 A 
ATOM      7  C   UNL     1       2.946   0.976  22.761  0.00  0.00    -0.002 A 
ATOM      8  C   UNL     1       2.519   0.282  22.896  0.00  0.00    -0.005 A 
ATOM     29  C   UNL     1       2.917  -0.425  23.040  0.00  0.00    -0.002 A 
ATOM     30  C   UNL     1       3.742  -0.441  23.049  0.00  0.00    +0.016 A 
BRANCH   5   4
ATOM      1  C   UNL     1       6.225   0.301  23.644  0.00  0.00    +0.097 C 
ATOM      2  C   UNL     1       5.400   0.317  23.635  0.00  0.00    +0.246 C 
ATOM      3  O   UNL     1       4.983   0.412  24.339  0.00  0.00    -0.273 OA
ATOM      4  N   UNL     1       4.994   0.236  22.922  0.00  0.00    -0.179 NA
ENDBRANCH   5   4
ENDBRANCH   9   8
ENDBRANCH  10   9
ENDBRANCH  11  10
BRANCH  14  15
ATOM     15  C   UNL     1      -1.511   1.025  24.208  0.00  0.00    +0.148 C 
BRANCH  15  16
ATOM     16  N   UNL     1      -2.234   0.673  24.025  0.00  0.00    -0.075 NA
BRANCH  16  17
ATOM     17  S   UNL     1      -2.938   1.022  24.275  0.00  0.00    +0.077 S 
ATOM     18  O   UNL     1      -3.081   1.286  23.507  0.00  0.00    -0.152 OA
ATOM     19  O   UNL     1      -2.794   0.757  25.044  0.00  0.00    -0.152 OA
BRANCH  17  20
ATOM     20  C   UNL     1      -3.642   1.371  24.526  0.00  0.00    +0.124 A 
ATOM     21  C   UNL     1      -3.711   2.193  24.543  0.00  0.00    +0.020 A 
ATOM     22  C   UNL     1      -4.415   2.543  24.794  0.00  0.00    -0.003 A 
ATOM     23  C   UNL     1      -5.050   2.070  25.028  0.00  0.00    -0.022 A 
ATOM     24  C   UNL     1      -5.754   2.420  25.279  0.00  0.00    +0.031 C 
ATOM     25  C   UNL     1      -4.980   1.249  25.011  0.00  0.00    -0.003 A 
ATOM     26  C   UNL     1      -4.276   0.899  24.760  0.00  0.00    +0.020 A 
ENDBRANCH  17  20
ENDBRANCH  16  17
ENDBRANCH  15  16
ENDBRANCH  14  15
TORSDOF 8
ENDMDL
MODEL 2
REMARK VINA RESULT:      -7.8      1.652      7.279
REMARK  Name = 
REMARK  8 active torsions:
REMARK  status: ('A' for Active; 'I' for Inactive)
REMARK    1  A    between atoms: N_4  and  C_5
REMARK    2  A    between atoms: C_8  and  C_9
REMARK    3  A    between atoms: C_9  and  N_10
REMARK    4  A    between atoms: N_10  and  C_11
REMARK    5  A    between atoms: C_14  and  C_15
REMARK    6  A    between atoms: C_15  and  N_16
REMARK    7  A    between atoms: N_16  and  S_17
REMARK    8  A    between atoms: S_17  and  C_20
REMARK                            x       y       z     vdW  Elec       q    Type
REMARK                         _______ _______ _______ _____ _____    ______ ____
ROOT
ATOM     11  C   UNL     1      -0.767   0.899  23.768  0.00  0.00    +0.135 C 
ATOM     12  C   UNL     1      -0.712   0.252  23.260  0.00  0.00    +0.162 C 
ATOM     13  O   UNL     1       0.088   0.109  23.116  0.00  0.00    -0.350 OA
ATOM     14  C   UNL     1       0.526   0.669  23.535  0.00  0.00    +0.166 C 
ATOM     27  C   UNL     1      -0.002   1.157  23.938  0.00  0.00    +0.199 C 
ATOM     28  O   UNL     1       0.200   1.791  24.425  0.00  0.00    -0.219 OA
ENDROOT
BRANCH  11  10
ATOM     10  N   UNL     1      -1.465   1.231  24.056  0.00  0.00    -0.209 NA
BRANCH  10   9
ATOM      9  C   UNL     1      -2.182   1.077  23.679  0.00  0.00    +0.115 C 
BRANCH   9   8
ATOM      5  C   UNL     1      -4.261   2.150  24.484  0.00  0.00    +0.073 A 
ATOM      6  C   UNL     1      -4.022   1.426  24.800  0.00  0.00    +0.016 A 
ATOM      7  C   UNL     1      -3.329   1.069  24.532  0.00  0.00    -0.002 A 
ATOM      8  C   UNL     1      -2.875   1.434  23.947  0.00  0.00    -0.005 A 
ATOM     29  C   UNL     1      -3.115   2.158  23.631  0.00  0.00    -0.002 A 
ATOM     30  C   UNL     1      -3.809   2.515  23.900  0.00  0.00    +0.016 A 
BRANCH   5   4
ATOM      1  C   UNL     1      -5.617   3.421  25.629  0.00  0.00    +0.097 C 
ATOM      2  C   UNL     1      -4.924   3.063  25.361  0.00  0.00    +0.246 C 
ATOM      3  O   UNL     1      -4.200   3.262  25.701  0.00  0.00    -0.273 OA
ATOM      4  N   UNL     1      -4.956   2.508  24.753  0.00  0.00    -0.179 NA
ENDBRANCH   5   4
ENDBRANCH   9   8
ENDBRANCH  10   9
ENDBRANCH  11  10
BRANCH  14  15
ATOM     15  C   UNL     1       1.349   0.729  23.547  0.00  0.00    +0.148 C 
BRANCH  15  16
ATOM     16  N   UNL     1       1.796   0.416  22.927  0.00  0.00    -0.075 NA
BRANCH  16  17
ATOM     17  S   UNL     1       2.613   0.342  23.005  0.00  0.00    +0.077 S 
ATOM     18  O   UNL     1       2.668   1.141  23.199  0.00  0.00    -0.152 OA
ATOM     19  O   UNL     1       2.558  -0.459  22.811  0.00  0.00    -0.152 OA
BRANCH  17  20
ATOM     20  C   UNL     1       3.431   0.267  23.083  0.00  0.00    +0.124 A 
ATOM     21  C   UNL     1       3.753  -0.421  23.406  0.00  0.00    +0.020 A 
ATOM     22  C   UNL     1       4.572  -0.496  23.484  0.00  0.00    -0.003 A 
ATOM     23  C   UNL     1       5.067   0.118  23.239  0.00  0.00    -0.022 A 
ATOM     24  C   UNL     1       5.885   0.042  23.317  0.00  0.00    +0.031 C 
ATOM     25  C   UNL     1       4.745   0.804  22.916  0.00  0.00    -0.003 A 
ATOM     26  C   UNL     1       3.926   0.879  22.838  0.00  0.00    +0.020 A 
ENDBRANCH  17  20
ENDBRANCH  16  17
ENDBRANCH  15  16
ENDBRANCH  14  15
TORSDOF 8
ENDMDL
MODEL 3
REMARK VINA RESULT:      -5.5     15.879     17.435
REMARK  Name = 
REMARK  8 active torsions:
REMARK  status: ('A' for Active; 'I' for Inactive)
REMARK    1  A    between atoms: N_4  and  C_5
REMARK    2  A    between atoms: C_8  and  C_9
REMARK    3  A    between atoms: C_9  and  N_10
REMARK    4  A    between atoms: N_10  and  C_11
REMARK    5  A    between atoms: C_14  and  C_15
REMARK    6  A    between atoms: C_15  and  N_16
REMARK    7  A    between atoms: N_16  and  S_17
REMARK    8  A    between atoms: S_17  and  C_20
REMARK                            x       y       z     vdW  Elec       q    Type
REMARK                         _______ _______ _______ _____ _____    ______ ____
ROOT
ATOM     11  C   UNL     1      -8.284  -9.799  14.440  0.00  0.00    +0.135 C 
ATOM     12  C   UNL     1      -8.733  -9.570  13.787  0.00  0.00    +0.162 C 
ATOM     13  O   UNL     1      -8.225  -9.502  13.141  0.00  0.00    -0.350 OA
ATOM     14  C   UNL     1      -7.463  -9.690  13.394  0.00  0.00    +0.166 C 
ATOM     27  C   UNL     1      -7.499  -9.874  14.197  0.00  0.00    +0.199 C 
ATOM     28  O   UNL     1      -6.863 -10.093  14.673  0.00  0.00    -0.219 OA
ENDROOT
BRANCH  11  10
ATOM     10  N   UNL     1      -8.570  -9.931  15.203  0.00  0.00    -0.209 NA
BRANCH  10   9
ATOM      9  C   UNL     1      -9.253  -9.547  15.460  0.00  0.00    +0.115 C 
BRANCH   9   8
ATOM      5  C   UNL     1     -10.086  -9.911  17.761  0.00  0.00    +0.073 A 
ATOM      6  C   UNL     1     -10.244 -10.468  17.173  0.00  0.00    +0.016 A 
ATOM      7  C   UNL     1      -9.966 -10.347  16.406  0.00  0.00    -0.002 A 
ATOM      8  C   UNL     1      -9.530  -9.668  16.227  0.00  0.00    -0.005 A 
ATOM     29  C   UNL     1      -9.373  -9.113  16.816  0.00  0.00    -0.002 A 
ATOM     30  C   UNL     1      -9.651  -9.234  17.583  0.00  0.00    +0.016 A 
BRANCH   5   4
ATOM      1  C   UNL     1     -10.192 -10.589  19.834  0.00  0.00    +0.097 C 
ATOM      2  C   UNL     1      -9.914 -10.468  19.067  0.00  0.00    +0.246 C 
ATOM      3  O   UNL     1      -9.187 -10.781  18.837  0.00  0.00    -0.273 OA
ATOM      4  N   UNL     1     -10.364 -10.033  18.529  0.00  0.00    -0.179 NA
ENDBRANCH   5   4
ENDBRANCH   9   8
ENDBRANCH  10   9
ENDBRANCH  11  10
BRANCH  14  15
ATOM     15  C   UNL     1      -6.784  -9.693  12.925  0.00  0.00    +0.148 C 
BRANCH  15  16
ATOM     16  N   UNL     1      -6.788  -9.320  12.189  0.00  0.00    -0.075 NA
BRANCH  16  17
ATOM     17  S   UNL     1      -6.095  -9.281  11.743  0.00  0.00    +0.077 S 
ATOM     18  O   UNL     1      -5.961  -8.516  12.019  0.00  0.00    -0.152 OA
ATOM     19  O   UNL     1      -6.231 -10.047  11.466  0.00  0.00    -0.152 OA
BRANCH  17  20
ATOM     20  C   UNL     1      -5.403  -9.241  11.297  0.00  0.00    +0.124 A 
ATOM     21  C   UNL     1      -5.349  -8.712  10.665  0.00  0.00    +0.020 A 
ATOM     22  C   UNL     1      -4.656  -8.673  10.219  0.00  0.00    -0.003 A 
ATOM     23  C   UNL     1      -4.017  -9.162  10.404  0.00  0.00    -0.022 A 
ATOM     24  C   UNL     1      -3.325  -9.122   9.957  0.00  0.00    +0.031 C 
ATOM     25  C   UNL     1      -4.072  -9.690  11.035  0.00  0.00    -0.003 A 
ATOM     26  C   UNL     1      -4.765  -9.730  11.481  0.00  0.00    +0.020 A 
ENDBRANCH  17  20
ENDBRANCH  16  17
ENDBRANCH  15  16
ENDBRANCH  14  15
TORSDOF 8
ENDMDL
MODEL 4
REMARK VINA RESULT:      -5.2     15.075     17.381
REMARK  Name = 
REMARK  8 active torsions:
REMARK  status: ('A' for Active; 'I' for Inactive)
REMARK    1  A    between atoms: N_4  and  C_5
REMARK    2  A    between atoms: C_8  and  C_9
REMARK    3  A    between atoms: C_9  and  N_10
REMARK    4  A    between atoms: N_10  and  C_11
REMARK    5  A    between atoms: C_14  and  C_15
REMARK    6  A    between atoms: C_15  and  N_16
REMARK    7  A    between atoms: N_16  and  S_17
REMARK    8  A    between atoms: S_17  and  C_20
REMARK                            x       y       z     vdW  Elec       q    Type
REMARK                         _______ _______ _______ _____ _____    ______ ____
ROOT
ATOM     11  C   UNL     1      11.348  -7.276  32.095  0.00  0.00    +0.135 C 
ATOM     12  C   UNL     1      11.622  -7.150  32.862  0.00  0.00    +0.162 C 
ATOM     13  O   UNL     1      12.272  -6.644  32.820  0.00  0.00    -0.350 OA
ATOM     14  C   UNL     1      12.399  -6.457  32.027  0.00  0.00    +0.166 C 
ATOM     27  C   UNL     1      11.828  -6.847  31.578  0.00  0.00    +0.199 C 
ATOM     28  O   UNL     1      11.750  -6.815  30.758  0.00  0.00    -0.219 OA
ENDROOT
BRANCH  11  10
ATOM     10  N   UNL     1      10.705  -7.748  31.881  0.00  0.00    -0.209 NA
BRANCH  10   9
ATOM      9  C   UNL     1      10.254  -8.120  32.462  0.00  0.00    +0.115 C 
BRANCH   9   8
ATOM      5  C   UNL     1       8.248  -9.421  31.829  0.00  0.00    +0.073 A 
ATOM      6  C   UNL     1       8.169  -8.641  32.085  0.00  0.00    +0.016 A 
ATOM      7  C   UNL     1       8.838  -8.207  32.296  0.00  0.00    -0.002 A 
ATOM      8  C   UNL     1       9.586  -8.553  32.251  0.00  0.00    -0.005 A 
ATOM     29  C   UNL     1       9.663  -9.334  31.996  0.00  0.00    -0.002 A 
ATOM     30  C   UNL     1       8.994  -9.768  31.785  0.00  0.00    +0.016 A 
BRANCH   5   4
ATOM      1  C   UNL     1       6.530 -10.141  30.690  0.00  0.00    +0.097 C 
ATOM      2  C   UNL     1       7.199  -9.707  30.901  0.00  0.00    +0.246 C 
ATOM      3  O   UNL     1       7.489  -9.125  30.395  0.00  0.00    -0.273 OA
ATOM      4  N   UNL     1       7.578  -9.856  31.618  0.00  0.00    -0.179 NA
ENDBRANCH   5   4
ENDBRANCH   9   8
ENDBRANCH  10   9
ENDBRANCH  11  10
BRANCH  14  15
ATOM     15  C   UNL     1      12.993  -5.965  31.734  0.00  0.00    +0.148 C 
BRANCH  15  16
ATOM     16  N   UNL     1      13.509  -5.585  32.255  0.00  0.00    -0.075 NA
BRANCH  16  17
ATOM     17  S   UNL     1      14.062  -5.045  31.967  0.00  0.00    +0.077 S 
ATOM     18  O   UNL     1      14.584  -5.664  31.810  0.00  0.00    -0.152 OA
ATOM     19  O   UNL     1      13.539  -4.427  32.125  0.00  0.00    -0.152 OA
BRANCH  17  20
ATOM     20  C   UNL     1      14.615  -4.506  31.679  0.00  0.00    +0.124 A 
ATOM     21  C   UNL     1      15.000  -4.652  30.964  0.00  0.00    +0.020 A 
ATOM     22  C   UNL     1      15.554  -4.112  30.675  0.00  0.00    -0.003 A 
ATOM     23  C   UNL     1      15.721  -3.426  31.102  0.00  0.00    -0.022 A 
ATOM     24  C   UNL     1      16.275  -2.885  30.813  0.00  0.00    +0.031 C 
ATOM     25  C   UNL     1      15.336  -3.280  31.816  0.00  0.00    -0.003 A 
ATOM     26  C   UNL     1      14.782  -3.820  32.105  0.00  0.00    +0.020 A 
ENDBRANCH  17  20
ENDBRANCH  16  17
ENDBRANCH  15  16
ENDBRANCH  14  15
TORSDOF 8
ENDMDL
MODEL 5
REMARK VINA RESULT:      -5.0     16.515     18.454
REMARK  Name = 
REMARK  8 active torsions:
REMARK  status: ('A' for Active; 'I' for Inactive)
REMARK    1  A    between atoms: N_4  and  C_5
REMARK    2  A    between atoms: C_8  and  C_9
REMARK    3  A    between atoms: C_9  and  N_10
REMARK    4  A    between atoms: N_10  and  C_11
REMARK    5  A    between atoms: C_14  and  C_15
REMARK    6  A    between atoms: C_15  and  N_16
REMARK    7  A    between atoms: N_16  and  S_17
REMARK    8  A    between atoms: S_17  and  C_20
REMARK                            x       y       z     vdW  Elec       q    Type
REMARK                         _______ _______ _______ _____ _____    ______ ____
ROOT
ATOM     11  C   UNL     1      15.765  -6.800  28.041  0.00  0.00    +0.135 C 
ATOM     12  C   UNL     1      16.558  -6.665  28.220  0.00  0.00    +0.162 C 
ATOM     13  O   UNL     1      16.925  -6.367  27.544  0.00  0.00    -0.350 OA
ATOM     14  C   UNL     1      16.357  -6.318  26.947  0.00  0.00    +0.166 C 
ATOM     27  C   UNL     1      15.640  -6.586  27.254  0.00  0.00    +0.199 C 
ATOM     28  O   UNL     1      14.925  -6.631  26.846  0.00  0.00    -0.219 OA
ENDROOT
BRANCH  11  10
ATOM     10  N   UNL     1      15.195  -7.098  28.558  0.00  0.00    -0.209 NA
BRANCH  10   9
ATOM      9  C   UNL     1      15.287  -7.005  29.373  0.00  0.00    +0.115 C 
BRANCH   9   8
ATOM      5  C   UNL     1      13.361  -7.356  30.886  0.00  0.00    +0.073 A 
ATOM      6  C   UNL     1      13.672  -7.992  30.461  0.00  0.00    +0.016 A 
ATOM      7  C   UNL     1      14.315  -7.875  29.956  0.00  0.00    -0.002 A 
ATOM      8  C   UNL     1      14.646  -7.122  29.877  0.00  0.00    -0.005 A 
ATOM     29  C   UNL     1      14.334  -6.488  30.302  0.00  0.00    -0.002 A 
ATOM     30  C   UNL     1      13.692  -6.605  30.806  0.00  0.00    +0.016 A 
BRANCH   5   4
ATOM      1  C   UNL     1      11.318  -7.377  31.653  0.00  0.00    +0.097 C 
ATOM      2  C   UNL     1      11.960  -7.260  31.149  0.00  0.00    +0.246 C 
ATOM      3  O   UNL     1      11.843  -6.929  30.402  0.00  0.00    -0.273 OA
ATOM      4  N   UNL     1      12.718  -7.473  31.391  0.00  0.00    -0.179 NA
ENDBRANCH   5   4
ENDBRANCH   9   8
ENDBRANCH  10   9
ENDBRANCH  11  10
BRANCH  14  15
ATOM     15  C   UNL     1      16.486  -6.048  26.178  0.00  0.00    +0.148 C 
BRANCH  15  16
ATOM     16  N   UNL     1      17.124  -5.550  26.016  0.00  0.00    -0.075 NA
BRANCH  16  17
ATOM     17  S   UNL     1      17.124  -5.090  25.331  0.00  0.00    +0.077 S 
ATOM     18  O   UNL     1      17.048  -4.408  25.789  0.00  0.00    -0.152 OA
ATOM     19  O   UNL     1      17.200  -5.773  24.874  0.00  0.00    -0.152 OA
BRANCH  17  20
ATOM     20  C   UNL     1      17.124  -4.631  24.647  0.00  0.00    +0.124 A 
ATOM     21  C   UNL     1      17.403  -4.948  23.937  0.00  0.00    +0.020 A 
ATOM     22  C   UNL     1      17.403  -4.489  23.251  0.00  0.00    -0.003 A 
ATOM     23  C   UNL     1      17.125  -3.712  23.276  0.00  0.00    -0.022 A 
ATOM     24  C   UNL     1      17.126  -3.252  22.590  0.00  0.00    +0.031 C 
ATOM     25  C   UNL     1      16.848  -3.395  23.985  0.00  0.00    -0.003 A 
ATOM     26  C   UNL     1      16.847  -3.855  24.670  0.00  0.00    +0.020 A 
ENDBRANCH  17  20
ENDBRANCH  16  17
ENDBRANCH  15  16
ENDBRANCH  14  15
TORSDOF 8
ENDMDL
MODEL 6
REMARK VINA RESULT:      -4.8     15.038     16.615
REMARK  Name = 
REMARK  8 active torsions:
REMARK  status: ('A' for Active; 'I' for Inactive)
REMARK    1  A    between atoms: N_4  and  C_5
REMARK    2  A    between atoms: C_8  and  C_9
REMARK    3  A    between atoms: C_9  and  N_10
REMARK    4  A    between atoms: N_10  and  C_11
REMARK    5  A    between atoms: C_14  and  C_15
REMARK    6  A    between atoms: C_15  and  N_16
REMARK    7  A    between atoms: N_16  and  S_17
REMARK    8  A    between atoms: S_17  and  C_20
REMARK                            x       y       z     vdW  Elec       q    Type
REMARK                         _______ _______ _______ _____ _____    ______ ____
ROOT
ATOM     11  C   UNL     1      -6.502 -10.055  14.684  0.00  0.00    +0.135 C 
ATOM     12  C   UNL     1      -7.199  -9.852  14.292  0.00  0.00    +0.162 C 
ATOM     13  O   UNL     1      -7.008  -9.672  13.510  0.00  0.00    -0.350 OA
ATOM     14  C   UNL     1      -6.193  -9.764  13.419  0.00  0.00    +0.166 C 
ATOM     27  C   UNL     1      -5.880 -10.000  14.145  0.00  0.00    +0.199 C 
ATOM     28  O   UNL     1      -5.086 -10.155  14.303  0.00  0.00    -0.219 OA
ENDROOT
BRANCH  11  10
ATOM     10  N   UNL     1      -6.438 -10.274  15.477  0.00  0.00    -0.209 NA
BRANCH  10   9
ATOM      9  C   UNL     1      -6.651  -9.743  16.071  0.00  0.00    +0.115 C 
BRANCH   9   8
ATOM      5  C   UNL     1      -6.748 -10.492  18.427  0.00  0.00    +0.073 A 
ATOM      6  C   UNL     1      -7.354 -10.025  18.118  0.00  0.00    +0.016 A 
ATOM      7  C   UNL     1      -7.322  -9.776  17.332  0.00  0.00    -0.002 A 
ATOM      8  C   UNL     1      -6.683  -9.992  16.856  0.00  0.00    -0.005 A 
ATOM     29  C   UNL     1      -6.078 -10.459  17.166  0.00  0.00    -0.002 A 
ATOM     30  C   UNL     1      -6.110 -10.709  17.952  0.00  0.00    +0.016 A 
BRANCH   5   4
ATOM      1  C   UNL     1      -6.212 -10.781  20.523  0.00  0.00    +0.097 C 
ATOM      2  C   UNL     1      -6.180 -10.531  19.738  0.00  0.00    +0.246 C 
ATOM      3  O   UNL     1      -5.547 -10.071  19.477  0.00  0.00    -0.273 OA
ATOM      4  N   UNL     1      -6.780 -10.742  19.214  0.00  0.00    -0.179 NA
ENDBRANCH   5   4
ENDBRANCH   9   8
ENDBRANCH  10   9
ENDBRANCH  11  10
BRANCH  14  15
ATOM     15  C   UNL     1      -5.765  -9.640  12.724  0.00  0.00    +0.148 C 
BRANCH  15  16
ATOM     16  N   UNL     1      -6.159  -9.431  12.029  0.00  0.00    -0.075 NA
BRANCH  16  17
ATOM     17  S   UNL     1      -5.735  -9.335  11.328  0.00  0.00    +0.077 S 
ATOM     18  O   UNL     1      -5.702  -8.522  11.460  0.00  0.00    -0.152 OA
ATOM     19  O   UNL     1      -5.769 -10.150  11.198  0.00  0.00    -0.152 OA
BRANCH  17  20
ATOM     20  C   UNL     1      -5.311  -9.240  10.627  0.00  0.00    +0.124 A 
ATOM     21  C   UNL     1      -5.694  -9.321   9.900  0.00  0.00    +0.020 A 
ATOM     22  C   UNL     1      -5.270  -9.225   9.198  0.00  0.00    -0.003 A 
ATOM     23  C   UNL     1      -4.464  -9.049   9.225  0.00  0.00    -0.022 A 
ATOM     24  C   UNL     1      -4.040  -8.954   8.523  0.00  0.00    +0.031 C 
ATOM     25  C   UNL     1      -4.083  -8.969   9.951  0.00  0.00    -0.003 A 
ATOM     26  C   UNL     1      -4.506  -9.064  10.653  0.00  0.00    +0.020 A 
ENDBRANCH  17  20
ENDBRANCH  16  17
ENDBRANCH  15  16
ENDBRANCH  14  15
TORSDOF 8
ENDMDL
MODEL 7
REMARK VINA RESULT:      -4.8     15.213     17.294
REMARK  Name = 
REMARK  8 active torsions:
REMARK  status: ('A' for Active; 'I' for Inactive)
REMARK    1  A    between atoms: N_4  and  C_5
REMARK    2  A    between atoms: C_8  and  C_9
REMARK    3  A    between atoms: C_9  and  N_10
REMARK    4  A    between atoms: N_10  and  C_11
REMARK    5  A    between atoms: C_14  and  C_15
REMARK    6  A    between atoms: C_15  and  N_16
REMARK    7  A    between atoms: N_16  and  S_17
REMARK    8  A    between atoms: S_17  and  C_20
REMARK                            x       y       z     vdW  Elec       q    Type
REMARK                         _______ _______ _______ _____ _____    ______ ____
ROOT
ATOM     11  C   UNL     1      -6.655 -10.364  14.122  0.00  0.00    +0.135 C 
ATOM     12  C   UNL     1      -6.783 -10.781  13.422  0.00  0.00    +0.162 C 
ATOM     13  O   UNL     1      -6.084 -10.769  12.986  0.00  0.00    -0.350 OA
ATOM     14  C   UNL     1      -5.522 -10.344  13.416  0.00  0.00    +0.166 C 
ATOM     27  C   UNL     1      -5.875 -10.094  14.118  0.00  0.00    +0.199 C 
ATOM     28  O   UNL     1      -5.512  -9.651  14.711  0.00  0.00    -0.219 OA
ENDROOT
BRANCH  11  10
ATOM     10  N   UNL     1      -7.208 -10.238  14.720  0.00  0.00    -0.209 NA
BRANCH  10   9
ATOM      9  C   UNL     1      -8.014 -10.231  14.543  0.00  0.00    +0.115 C 
BRANCH   9   8
ATOM      5  C   UNL     1      -9.657  -9.577  16.273  0.00  0.00    +0.073 A 
ATOM      6  C   UNL     1      -9.573  -9.120  15.591  0.00  0.00    +0.016 A 
ATOM      7  C   UNL     1      -9.025  -9.338  15.014  0.00  0.00    -0.002 A 
ATOM      8  C   UNL     1      -8.561 -10.013  15.119  0.00  0.00    -0.005 A 
ATOM     29  C   UNL     1      -8.646 -10.469  15.802  0.00  0.00    -0.002 A 
ATOM     30  C   UNL     1      -9.194 -10.250  16.379  0.00  0.00    +0.016 A 
BRANCH   5   4
ATOM      1  C   UNL     1     -10.547  -8.588  18.004  0.00  0.00    +0.097 C 
ATOM      2  C   UNL     1      -9.999  -8.806  17.427  0.00  0.00    +0.246 C 
ATOM      3  O   UNL     1      -9.246  -8.472  17.427  0.00  0.00    -0.273 OA
ATOM      4  N   UNL     1     -10.206  -9.358  16.851  0.00  0.00    -0.179 NA
ENDBRANCH   5   4
ENDBRANCH   9   8
ENDBRANCH  10   9
ENDBRANCH  11  10
BRANCH  14  15
ATOM     15  C   UNL     1      -4.744 -10.196  13.184  0.00  0.00    +0.148 C 
BRANCH  15  16
ATOM     16  N   UNL     1      -4.437 -10.562  12.510  0.00  0.00    -0.075 NA
BRANCH  16  17
ATOM     17  S   UNL     1      -3.702 -10.332  12.215  0.00  0.00    +0.077 S 
ATOM     18  O   UNL     1      -4.034 -10.234  11.466  0.00  0.00    -0.152 OA
ATOM     19  O   UNL     1      -3.371 -10.430  12.965  0.00  0.00    -0.152 OA
BRANCH  17  20
ATOM     20  C   UNL     1      -2.968 -10.102  11.920  0.00  0.00    +0.124 A 
ATOM     21  C   UNL     1      -2.923  -9.651  11.230  0.00  0.00    +0.020 A 
ATOM     22  C   UNL     1      -2.188  -9.421  10.934  0.00  0.00    -0.003 A 
ATOM     23  C   UNL     1      -1.497  -9.641  11.329  0.00  0.00    -0.022 A 
ATOM     24  C   UNL     1      -0.762  -9.411  11.033  0.00  0.00    +0.031 C 
ATOM     25  C   UNL     1      -1.542 -10.091  12.018  0.00  0.00    -0.003 A 
ATOM     26  C   UNL     1      -2.277 -10.322  12.314  0.00  0.00    +0.020 A 
ENDBRANCH  17  20
ENDBRANCH  16  17
ENDBRANCH  15  16
ENDBRANCH  14  15
TORSDOF 8
ENDMDL
