MODEL 1
REMARK VINA RESULT:      -7.7      0.000      0.000
REMARK  Name = 
REMARK  3 active torsions:
REMARK  status: ('A' for Active; 'I' for Inactive)
REMARK    1  A    between atoms: O_2  and  C_3
REMARK    2  A    between atoms: C_3  and  C_5
REMARK    3  A    between atoms: N_7  and  C_10
REMARK                            x       y       z     vdW  Elec       q    Type
REMARK                         _______ _______ _______ _____ _____    ______ ____
ROOT
ATOM      5  C   UNL     1      -4.591   1.475  24.820  0.00  0.00    +0.198 A 
ATOM      6  C   UNL     1      -4.574   0.719  25.151  0.00  0.00    +0.124 A 
ATOM      7  N   UNL     1      -3.957   0.300  24.797  0.00  0.00    -0.227 N 
ATOM      8  N   UNL     1      -3.594   0.796  24.248  0.00  0.00    -0.064 NA
ATOM      9  N   UNL     1      -3.985   1.522  24.262  0.00  0.00    -0.122 NA
ENDROOT
BRANCH   7  10
ATOM     10  C   UNL     1      -3.742  -0.479  24.964  0.00  0.00    +0.166 C 
ATOM     11  C   UNL     1      -3.309  -0.733  25.619  0.00  0.00    +0.169 C 
ATOM     12  O   UNL     1      -3.222  -1.551  25.564  0.00  0.00    -0.349 OA
ATOM     13  C   UNL     1      -3.600  -1.803  24.877  0.00  0.00    +0.177 C 
ATOM     14  C   UNL     1      -3.780  -2.464  24.417  0.00  0.00    +0.211 C 
ATOM     15  O   UNL     1      -3.565  -3.243  24.584  0.00  0.00    -0.218 OA
ATOM     16  C   UNL     1      -4.213  -2.211  23.762  0.00  0.00    +0.178 C 
ATOM     17  O   UNL     1      -4.300  -1.392  23.817  0.00  0.00    -0.349 OA
ATOM     18  C   UNL     1      -3.921  -1.140  24.506  0.00  0.00    +0.170 C 
ENDBRANCH   7  10
BRANCH   5   3
ATOM      3  C   UNL     1      -5.122   2.077  25.014  0.00  0.00    +0.363 C 
ATOM      4  O   UNL     1      -5.903   2.037  24.753  0.00  0.00    -0.243 OA
BRANCH   3   2
ATOM      1  C   UNL     1      -5.409   3.299  25.696  0.00  0.00    +0.256 C 
ATOM      2  O   UNL     1      -4.869   2.717  25.468  0.00  0.00    -0.440 OA
ENDBRANCH   3   2
ENDBRANCH   5   3
TORSDOF 3
ENDMDL
MODEL 2
REMARK VINA RESULT:      -7.6      0.771      4.252
REMARK  Name = 
REMARK  3 active torsions:
REMARK  status: ('A' for Active; 'I' for Inactive)
REMARK    1  A    between atoms: O_2  and  C_3
REMARK    2  A    between atoms: C_3  and  C_5
REMARK    3  A    between atoms: N_7  and  C_10
REMARK                            x       y       z     vdW  Elec       q    Type
REMARK                         _______ _______ _______ _____ _____    ______ ____
ROOT
ATOM      5  C   UNL     1      -3.800  -0.305  24.862  0.00  0.00    +0.198 A 
ATOM      6  C   UNL     1      -4.353   0.181  25.235  0.00  0.00    +0.124 A 
ATOM      7  N   UNL     1      -4.444   0.862  24.777  0.00  0.00    -0.227 N 
ATOM      8  N   UNL     1      -3.948   0.797  24.121  0.00  0.00    -0.064 NA
ATOM      9  N   UNL     1      -3.550   0.075  24.173  0.00  0.00    -0.122 NA
ENDROOT
BRANCH   7  10
ATOM     10  C   UNL     1      -4.944   1.496  24.946  0.00  0.00    +0.166 C 
ATOM     11  C   UNL     1      -5.767   1.491  24.896  0.00  0.00    +0.169 C 
ATOM     12  O   UNL     1      -6.040   2.239  25.113  0.00  0.00    -0.349 OA
ATOM     13  C   UNL     1      -5.386   2.705  25.298  0.00  0.00    +0.177 C 
ATOM     14  C   UNL     1      -5.149   3.455  25.547  0.00  0.00    +0.211 C 
ATOM     15  O   UNL     1      -5.649   4.090  25.716  0.00  0.00    -0.218 OA
ATOM     16  C   UNL     1      -4.326   3.460  25.597  0.00  0.00    +0.178 C 
ATOM     17  O   UNL     1      -4.053   2.713  25.379  0.00  0.00    -0.349 OA
ATOM     18  C   UNL     1      -4.708   2.246  25.195  0.00  0.00    +0.170 C 
ENDBRANCH   7  10
BRANCH   5   3
ATOM      3  C   UNL     1      -3.543  -1.042  25.130  0.00  0.00    +0.363 C 
ATOM      4  O   UNL     1      -3.063  -1.093  25.798  0.00  0.00    -0.243 OA
BRANCH   3   2
ATOM      1  C   UNL     1      -3.458  -2.458  24.957  0.00  0.00    +0.256 C 
ATOM      2  O   UNL     1      -3.767  -1.727  24.729  0.00  0.00    -0.440 OA
ENDBRANCH   3   2
ENDBRANCH   5   3
TORSDOF 3
ENDMDL
MODEL 3
REMARK VINA RESULT:      -7.3      3.261      4.134
REMARK  Name = 
REMARK  3 active torsions:
REMARK  status: ('A' for Active; 'I' for Inactive)
REMARK    1  A    between atoms: O_2  and  C_3
REMARK    2  A    between atoms: C_3  and  C_5
REMARK    3  A    between atoms: N_7  and  C_10
REMARK                            x       y       z     vdW  Elec       q    Type
REMARK                         _______ _______ _______ _____ _____    ______ ____
ROOT
ATOM      5  C   UNL     1      -4.118   2.927  24.831  0.00  0.00    +0.198 A 
ATOM      6  C   UNL     1      -3.482   3.046  25.343  0.00  0.00    +0.124 A 
ATOM      7  N   UNL     1      -2.799   3.127  24.886  0.00  0.00    -0.227 N 
ATOM      8  N   UNL     1      -3.013   3.059  24.092  0.00  0.00    -0.064 NA
ATOM      9  N   UNL     1      -3.828   2.936  24.058  0.00  0.00    -0.122 NA
ENDROOT
BRANCH   7  10
ATOM     10  C   UNL     1      -2.036   3.255  25.173  0.00  0.00    +0.166 C 
ATOM     11  C   UNL     1      -1.682   3.989  25.302  0.00  0.00    +0.169 C 
ATOM     12  O   UNL     1      -0.921   3.858  25.590  0.00  0.00    -0.349 OA
ATOM     13  C   UNL     1      -0.803   3.043  25.640  0.00  0.00    +0.177 C 
ATOM     14  C   UNL     1      -0.261   2.458  25.849  0.00  0.00    +0.211 C 
ATOM     15  O   UNL     1       0.503   2.585  26.136  0.00  0.00    -0.218 OA
ATOM     16  C   UNL     1      -0.614   1.724  25.720  0.00  0.00    +0.178 C 
ATOM     17  O   UNL     1      -1.375   1.855  25.432  0.00  0.00    -0.349 OA
ATOM     18  C   UNL     1      -1.493   2.671  25.382  0.00  0.00    +0.170 C 
ENDBRANCH   7  10
BRANCH   5   3
ATOM      3  C   UNL     1      -4.905   2.820  25.053  0.00  0.00    +0.363 C 
ATOM      4  O   UNL     1      -5.332   3.447  25.377  0.00  0.00    -0.243 OA
BRANCH   3   2
ATOM      1  C   UNL     1      -6.047   1.972  25.189  0.00  0.00    +0.256 C 
ATOM      2  O   UNL     1      -5.265   2.085  24.951  0.00  0.00    -0.440 OA
ENDBRANCH   3   2
ENDBRANCH   5   3
TORSDOF 3
ENDMDL
MODEL 4
REMARK VINA RESULT:      -7.2      2.050      2.765
REMARK  Name = 
REMARK  3 active torsions:
REMARK  status: ('A' for Active; 'I' for Inactive)
REMARK    1  A    between atoms: O_2  and  C_3
REMARK    2  A    between atoms: C_3  and  C_5
REMARK    3  A    between atoms: N_7  and  C_10
REMARK                            x       y       z     vdW  Elec       q    Type
REMARK                         _______ _______ _______ _____ _____    ______ ____
ROOT
ATOM      5  C   UNL     1      -3.165   3.572  24.960  0.00  0.00    +0.198 A 
ATOM      6  C   UNL     1      -3.329   2.808  25.224  0.00  0.00    +0.124 A 
ATOM      7  N   UNL     1      -3.890   2.478  24.716  0.00  0.00    -0.227 N 
ATOM      8  N   UNL     1      -4.073   3.037  24.139  0.00  0.00    -0.064 NA
ATOM      9  N   UNL     1      -3.625   3.714  24.289  0.00  0.00    -0.122 NA
ENDROOT
BRANCH   7  10
ATOM     10  C   UNL     1      -4.212   1.720  24.776  0.00  0.00    +0.166 C 
ATOM     11  C   UNL     1      -4.913   1.520  25.163  0.00  0.00    +0.169 C 
ATOM     12  O   UNL     1      -5.023   0.706  25.085  0.00  0.00    -0.349 OA
ATOM     13  C   UNL     1      -4.391   0.403  24.651  0.00  0.00    +0.177 C 
ATOM     14  C   UNL     1      -4.067  -0.287  24.335  0.00  0.00    +0.211 C 
ATOM     15  O   UNL     1      -4.389  -1.044  24.395  0.00  0.00    -0.218 OA
ATOM     16  C   UNL     1      -3.366  -0.087  23.949  0.00  0.00    +0.178 C 
ATOM     17  O   UNL     1      -3.256   0.727  24.026  0.00  0.00    -0.349 OA
ATOM     18  C   UNL     1      -3.889   1.030  24.460  0.00  0.00    +0.170 C 
ENDBRANCH   7  10
BRANCH   5   3
ATOM      3  C   UNL     1      -2.635   4.101  25.306  0.00  0.00    +0.363 C 
ATOM      4  O   UNL     1      -2.746   4.346  26.085  0.00  0.00    -0.243 OA
BRANCH   3   2
ATOM      1  C   UNL     1      -1.456   4.903  25.221  0.00  0.00    +0.256 C 
ATOM      2  O   UNL     1      -1.994   4.384  24.871  0.00  0.00    -0.440 OA
ENDBRANCH   3   2
ENDBRANCH   5   3
TORSDOF 3
ENDMDL
MODEL 5
REMARK VINA RESULT:      -7.2      2.651      4.442
REMARK  Name = 
REMARK  3 active torsions:
REMARK  status: ('A' for Active; 'I' for Inactive)
REMARK    1  A    between atoms: O_2  and  C_3
REMARK    2  A    between atoms: C_3  and  C_5
REMARK    3  A    between atoms: N_7  and  C_10
REMARK                            x       y       z     vdW  Elec       q    Type
REMARK                         _______ _______ _______ _____ _____    ______ ____
ROOT
ATOM      5  C   UNL     1      -1.866   1.481  23.907  0.00  0.00    +0.198 A 
ATOM      6  C   UNL     1      -2.261   1.898  24.499  0.00  0.00    +0.124 A 
ATOM      7  N   UNL     1      -2.890   2.302  24.150  0.00  0.00    -0.227 N 
ATOM      8  N   UNL     1      -2.884   2.135  23.342  0.00  0.00    -0.064 NA
ATOM      9  N   UNL     1      -2.251   1.628  23.192  0.00  0.00    -0.122 NA
ENDROOT
BRANCH   7  10
ATOM     10  C   UNL     1      -3.431   2.788  24.540  0.00  0.00    +0.166 C 
ATOM     11  C   UNL     1      -3.331   3.590  24.705  0.00  0.00    +0.169 C 
ATOM     12  O   UNL     1      -4.004   3.854  25.101  0.00  0.00    -0.349 OA
ATOM     13  C   UNL     1      -4.521   3.217  25.181  0.00  0.00    +0.177 C 
ATOM     14  C   UNL     1      -5.256   2.985  25.474  0.00  0.00    +0.211 C 
ATOM     15  O   UNL     1      -5.797   3.471  25.865  0.00  0.00    -0.218 OA
ATOM     16  C   UNL     1      -5.356   2.183  25.309  0.00  0.00    +0.178 C 
ATOM     17  O   UNL     1      -4.683   1.919  24.913  0.00  0.00    -0.349 OA
ATOM     18  C   UNL     1      -4.166   2.558  24.834  0.00  0.00    +0.170 C 
ENDBRANCH   7  10
BRANCH   5   3
ATOM      3  C   UNL     1      -1.202   1.002  24.012  0.00  0.00    +0.363 C 
ATOM      4  O   UNL     1      -0.448   1.308  23.878  0.00  0.00    -0.243 OA
BRANCH   3   2
ATOM      1  C   UNL     1      -0.629  -0.257  24.367  0.00  0.00    +0.256 C 
ATOM      2  O   UNL     1      -1.294   0.218  24.249  0.00  0.00    -0.440 OA
ENDBRANCH   3   2
ENDBRANCH   5   3
TORSDOF 3
ENDMDL
MODEL 6
REMARK VINA RESULT:      -7.0     18.332     18.696
REMARK  Name = 
REMARK  3 active torsions:
REMARK  status: ('A' for Active; 'I' for Inactive)
REMARK    1  A    between atoms: O_2  and  C_3
REMARK    2  A    between atoms: C_3  and  C_5
REMARK    3  A    between atoms: N_7  and  C_10
REMARK                            x       y       z     vdW  Elec       q    Type
REMARK                         _______ _______ _______ _____ _____    ______ ____
ROOT
ATOM      5  C   UNL     1      11.292   7.242  21.296  0.00  0.00    +0.198 A 
ATOM      6  C   UNL     1      11.869   7.563  20.802  0.00  0.00    +0.124 A 
ATOM      7  N   UNL     1      12.102   6.978  20.269  0.00  0.00    -0.227 N 
ATOM      8  N   UNL     1      11.670   6.295  20.434  0.00  0.00    -0.064 NA
ATOM      9  N   UNL     1      11.169   6.458  21.069  0.00  0.00    -0.122 NA
ENDROOT
BRANCH   7  10
ATOM     10  C   UNL     1      12.669   7.061  19.675  0.00  0.00    +0.166 C 
ATOM     11  C   UNL     1      13.478   6.923  19.755  0.00  0.00    +0.169 C 
ATOM     12  O   UNL     1      13.835   7.074  19.026  0.00  0.00    -0.349 OA
ATOM     13  C   UNL     1      13.247   7.304  18.497  0.00  0.00    +0.177 C 
ATOM     14  C   UNL     1      13.103   7.540  17.719  0.00  0.00    +0.211 C 
ATOM     15  O   UNL     1      13.670   7.623  17.125  0.00  0.00    -0.218 OA
ATOM     16  C   UNL     1      12.293   7.677  17.640  0.00  0.00    +0.178 C 
ATOM     17  O   UNL     1      11.937   7.527  18.368  0.00  0.00    -0.349 OA
ATOM     18  C   UNL     1      12.526   7.296  18.898  0.00  0.00    +0.170 C 
ENDBRANCH   7  10
BRANCH   5   3
ATOM      3  C   UNL     1      10.905   7.636  21.911  0.00  0.00    +0.363 C 
ATOM      4  O   UNL     1      10.197   7.339  22.210  0.00  0.00    -0.243 OA
BRANCH   3   2
ATOM      1  C   UNL     1      10.816   8.750  22.800  0.00  0.00    +0.256 C 
ATOM      2  O   UNL     1      11.229   8.327  22.224  0.00  0.00    -0.440 OA
ENDBRANCH   3   2
ENDBRANCH   5   3
TORSDOF 3
ENDMDL
MODEL 7
REMARK VINA RESULT:      -6.9     18.268     18.853
REMARK  Name = 
REMARK  3 active torsions:
REMARK  status: ('A' for Active; 'I' for Inactive)
REMARK    1  A    between atoms: O_2  and  C_3
REMARK    2  A    between atoms: C_3  and  C_5
REMARK    3  A    between atoms: N_7  and  C_10
REMARK                            x       y       z     vdW  Elec       q    Type
REMARK                         _______ _______ _______ _____ _____    ______ ____
ROOT
ATOM      5  C   UNL     1      13.509   6.944  19.615  0.00  0.00    +0.198 A 
ATOM      6  C   UNL     1      13.169   6.957  20.367  0.00  0.00    +0.124 A 
ATOM      7  N   UNL     1      12.353   6.865  20.279  0.00  0.00    -0.227 N 
ATOM      8  N   UNL     1      12.189   6.795  19.474  0.00  0.00    -0.064 NA
ATOM      9  N   UNL     1      12.903   6.844  19.063  0.00  0.00    -0.122 NA
ENDROOT
BRANCH   7  10
ATOM     10  C   UNL     1      11.799   6.846  20.891  0.00  0.00    +0.166 C 
ATOM     11  C   UNL     1      11.548   6.174  21.296  0.00  0.00    +0.169 C 
ATOM     12  O   UNL     1      10.993   6.409  21.859  0.00  0.00    -0.349 OA
ATOM     13  C   UNL     1      10.901   7.226  21.802  0.00  0.00    +0.177 C 
ATOM     14  C   UNL     1      10.502   7.877  22.114  0.00  0.00    +0.211 C 
ATOM     15  O   UNL     1       9.948   7.858  22.725  0.00  0.00    -0.218 OA
ATOM     16  C   UNL     1      10.753   8.550  21.708  0.00  0.00    +0.178 C 
ATOM     17  O   UNL     1      11.308   8.314  21.145  0.00  0.00    -0.349 OA
ATOM     18  C   UNL     1      11.400   7.496  21.203  0.00  0.00    +0.170 C 
ENDBRANCH   7  10
BRANCH   5   3
ATOM      3  C   UNL     1      14.313   7.018  19.445  0.00  0.00    +0.363 C 
ATOM      4  O   UNL     1      14.578   7.636  18.967  0.00  0.00    -0.243 OA
BRANCH   3   2
ATOM      1  C   UNL     1      15.649   6.523  19.550  0.00  0.00    +0.256 C 
ATOM      2  O   UNL     1      14.851   6.475  19.754  0.00  0.00    -0.440 OA
ENDBRANCH   3   2
ENDBRANCH   5   3
TORSDOF 3
ENDMDL
MODEL 8
REMARK VINA RESULT:      -6.9     19.139     19.529
REMARK  Name = 
REMARK  3 active torsions:
REMARK  status: ('A' for Active; 'I' for Inactive)
REMARK    1  A    between atoms: O_2  and  C_3
REMARK    2  A    between atoms: C_3  and  C_5
REMARK    3  A    between atoms: N_7  and  C_10
REMARK                            x       y       z     vdW  Elec       q    Type
REMARK                         _______ _______ _______ _____ _____    ______ ____
ROOT
ATOM      5  C   UNL     1      11.706   7.352  20.496  0.00  0.00    +0.198 A 
ATOM      6  C   UNL     1      12.456   7.633  20.297  0.00  0.00    +0.124 A 
ATOM      7  N   UNL     1      12.811   7.080  19.797  0.00  0.00    -0.227 N 
ATOM      8  N   UNL     1      12.280   6.457  19.689  0.00  0.00    -0.064 NA
ATOM      9  N   UNL     1      11.598   6.626  20.121  0.00  0.00    -0.122 NA
ENDROOT
BRANCH   7  10
ATOM     10  C   UNL     1      13.564   7.138  19.465  0.00  0.00    +0.166 C 
ATOM     11  C   UNL     1      13.748   7.486  18.740  0.00  0.00    +0.169 C 
ATOM     12  O   UNL     1      14.562   7.422  18.627  0.00  0.00    -0.349 OA
ATOM     13  C   UNL     1      14.882   7.036  19.281  0.00  0.00    +0.177 C 
ATOM     14  C   UNL     1      15.582   6.757  19.616  0.00  0.00    +0.211 C 
ATOM     15  O   UNL     1      16.335   6.816  19.284  0.00  0.00    -0.218 OA
ATOM     16  C   UNL     1      15.398   6.410  20.341  0.00  0.00    +0.178 C 
ATOM     17  O   UNL     1      14.584   6.474  20.454  0.00  0.00    -0.349 OA
ATOM     18  C   UNL     1      14.264   6.861  19.799  0.00  0.00    +0.170 C 
ENDBRANCH   7  10
BRANCH   5   3
ATOM      3  C   UNL     1      11.161   7.732  20.986  0.00  0.00    +0.363 C 
ATOM      4  O   UNL     1      10.611   8.254  20.663  0.00  0.00    -0.243 OA
BRANCH   3   2
ATOM      1  C   UNL     1      10.631   7.979  22.290  0.00  0.00    +0.256 C 
ATOM      2  O   UNL     1      11.168   7.589  21.798  0.00  0.00    -0.440 OA
ENDBRANCH   3   2
ENDBRANCH   5   3
TORSDOF 3
ENDMDL
MODEL 9
REMARK VINA RESULT:      -6.8     18.372     18.905
REMARK  Name = 
REMARK  3 active torsions:
REMARK  status: ('A' for Active; 'I' for Inactive)
REMARK    1  A    between atoms: O_2  and  C_3
REMARK    2  A    between atoms: C_3  and  C_5
REMARK    3  A    between atoms: N_7  and  C_10
REMARK                            x       y       z     vdW  Elec       q    Type
REMARK                         _______ _______ _______ _____ _____    ______ ____
ROOT
ATOM      5  C   UNL     1      11.356   7.740  20.319  0.00  0.00    +0.198 A 
ATOM      6  C   UNL     1      11.794   7.800  19.622  0.00  0.00    +0.124 A 
ATOM      7  N   UNL     1      11.445   8.380  19.150  0.00  0.00    -0.227 N 
ATOM      8  N   UNL     1      10.791   8.678  19.555  0.00  0.00    -0.064 NA
ATOM      9  N   UNL     1      10.736   8.283  20.277  0.00  0.00    -0.122 NA
ENDROOT
BRANCH   7  10
ATOM     10  C   UNL     1      11.704   8.619  18.404  0.00  0.00    +0.166 C 
ATOM     11  C   UNL     1      12.446   8.932  18.226  0.00  0.00    +0.169 C 
ATOM     12  O   UNL     1      12.467   9.093  17.418  0.00  0.00    -0.349 OA
ATOM     13  C   UNL     1      11.738   8.881  17.096  0.00  0.00    +0.177 C 
ATOM     14  C   UNL     1      11.300   8.849  16.398  0.00  0.00    +0.211 C 
ATOM     15  O   UNL     1      11.559   9.088  15.651  0.00  0.00    -0.218 OA
ATOM     16  C   UNL     1      10.558   8.536  16.575  0.00  0.00    +0.178 C 
ATOM     17  O   UNL     1      10.537   8.375  17.384  0.00  0.00    -0.349 OA
ATOM     18  C   UNL     1      11.267   8.588  17.706  0.00  0.00    +0.170 C 
ENDBRANCH   7  10
BRANCH   5   3
ATOM      3  C   UNL     1      11.511   7.227  20.946  0.00  0.00    +0.363 C 
ATOM      4  O   UNL     1      12.009   7.465  21.559  0.00  0.00    -0.243 OA
BRANCH   3   2
ATOM      1  C   UNL     1      11.342   5.955  21.575  0.00  0.00    +0.256 C 
ATOM      2  O   UNL     1      11.168   6.477  20.959  0.00  0.00    -0.440 OA
ENDBRANCH   3   2
ENDBRANCH   5   3
TORSDOF 3
ENDMDL
MODEL 10
REMARK VINA RESULT:      -6.7     18.619     19.115
REMARK  Name = 
REMARK  3 active torsions:
REMARK  status: ('A' for Active; 'I' for Inactive)
REMARK    1  A    between atoms: O_2  and  C_3
REMARK    2  A    between atoms: C_3  and  C_5
REMARK    3  A    between atoms: N_7  and  C_10
REMARK                            x       y       z     vdW  Elec       q    Type
REMARK                         _______ _______ _______ _____ _____    ______ ____
ROOT
ATOM      5  C   UNL     1      12.507   7.998  17.858  0.00  0.00    +0.198 A 
ATOM      6  C   UNL     1      12.536   8.182  18.661  0.00  0.00    +0.124 A 
ATOM      7  N   UNL     1      11.765   8.164  18.954  0.00  0.00    -0.227 N 
ATOM      8  N   UNL     1      11.260   7.969  18.332  0.00  0.00    -0.064 NA
ATOM      9  N   UNL     1      11.719   7.866  17.654  0.00  0.00    -0.122 NA
ENDROOT
BRANCH   7  10
ATOM     10  C   UNL     1      11.538   8.314  19.734  0.00  0.00    +0.166 C 
ATOM     11  C   UNL     1      11.405   9.058  20.065  0.00  0.00    +0.169 C 
ATOM     12  O   UNL     1      11.190   8.950  20.854  0.00  0.00    -0.349 OA
ATOM     13  C   UNL     1      11.190   8.141  21.011  0.00  0.00    +0.177 C 
ATOM     14  C   UNL     1      11.057   7.573  21.594  0.00  0.00    +0.211 C 
ATOM     15  O   UNL     1      10.831   7.724  22.374  0.00  0.00    -0.218 OA
ATOM     16  C   UNL     1      11.190   6.830  21.263  0.00  0.00    +0.178 C 
ATOM     17  O   UNL     1      11.405   6.937  20.474  0.00  0.00    -0.349 OA
ATOM     18  C   UNL     1      11.405   7.748  20.318  0.00  0.00    +0.170 C 
ENDBRANCH   7  10
BRANCH   5   3
ATOM      3  C   UNL     1      13.155   7.954  17.347  0.00  0.00    +0.363 C 
ATOM      4  O   UNL     1      13.506   7.225  17.190  0.00  0.00    -0.243 OA
BRANCH   3   2
ATOM      1  C   UNL     1      14.030   8.586  16.412  0.00  0.00    +0.256 C 
ATOM      2  O   UNL     1      13.449   8.639  16.995  0.00  0.00    -0.440 OA
ENDBRANCH   3   2
ENDBRANCH   5   3
TORSDOF 3
ENDMDL
