MODEL 1
REMARK VINA RESULT:     -10.9      0.000      0.000
REMARK  Name = 
REMARK  4 active torsions:
REMARK  status: ('A' for Active; 'I' for Inactive)
REMARK    1  A    between atoms: O_2  and  C_3
REMARK    2  A    between atoms: C_3  and  C_4
REMARK    3  A    between atoms: N_6  and  C_7
REMARK    4  A    between atoms: C_19  and  C_21
REMARK                            x       y       z     vdW  Elec       q    Type
REMARK                         _______ _______ _______ _____ _____    ______ ____
ROOT
ATOM      7  C   UNL     1      -4.248   0.141  24.416  0.00  0.00    +0.117 C 
ATOM      8  C   UNL     1      -4.886   0.532  24.765  0.00  0.00    +0.053 C 
ATOM      9  C   UNL     1      -4.642   1.297  24.955  0.00  0.00    +0.155 C 
ATOM     10  N   UNL     1      -3.854   1.379  24.724  0.00  0.00    -0.270 N 
ATOM     11  C   UNL     1      -3.611   0.664  24.391  0.00  0.00    +0.115 C 
ATOM     12  C   UNL     1      -3.363   2.038  24.794  0.00  0.00    +0.246 C 
ATOM     13  O   UNL     1      -2.595   1.945  24.508  0.00  0.00    -0.273 OA
ATOM     14  C   UNL     1      -3.539   2.778  25.114  0.00  0.00    +0.172 C 
ATOM     15  C   UNL     1      -4.249   3.042  25.442  0.00  0.00    +0.124 C 
ATOM     16  C   UNL     1      -4.144   3.823  25.683  0.00  0.00    +0.045 C 
ATOM     17  C   UNL     1      -3.368   4.044  25.504  0.00  0.00    +0.096 C 
ATOM     18  N   UNL     1      -2.995   3.397  25.153  0.00  0.00    -0.267 N 
ATOM     19  C   UNL     1      -2.215   3.374  24.887  0.00  0.00    +0.265 C 
ATOM     20  O   UNL     1      -1.915   2.685  24.545  0.00  0.00    -0.268 OA
ATOM     27  N   UNL     1      -4.959   2.630  25.531  0.00  0.00    -0.204 NA
ATOM     28  C   UNL     1      -5.134   1.854  25.314  0.00  0.00    +0.260 C 
ATOM     29  O   UNL     1      -5.901   1.601  25.478  0.00  0.00    -0.272 OA
ENDROOT
BRANCH  19  21
ATOM     21  C   UNL     1      -1.733   4.039  24.963  0.00  0.00    +0.114 A 
ATOM     22  C   UNL     1      -1.943   4.814  24.772  0.00  0.00    +0.023 A 
ATOM     23  C   UNL     1      -1.296   5.301  24.934  0.00  0.00    +0.020 A 
ATOM     24  C   UNL     1      -0.687   4.827  25.225  0.00  0.00    +0.076 A 
ATOM     25  N   UNL     1      -0.957   4.047  25.242  0.00  0.00    -0.320 N 
ATOM     26  C   UNL     1      -0.526   3.390  25.496  0.00  0.00    +0.131 C 
ENDBRANCH  19  21
BRANCH   7   6
ATOM      4  C   UNL     1      -3.964  -1.244  24.623  0.00  0.00    +0.272 C 
ATOM      5  O   UNL     1      -3.682  -1.073  25.379  0.00  0.00    -0.271 OA
ATOM      6  N   UNL     1      -4.247  -0.637  24.141  0.00  0.00    -0.203 NA
BRANCH   4   3
ATOM      3  C   UNL     1      -3.963  -2.023  24.349  0.00  0.00    +0.229 C 
BRANCH   3   2
ATOM      1  C   UNL     1      -3.421  -3.341  24.437  0.00  0.00    +0.175 C 
ATOM      2  O   UNL     1      -3.591  -2.614  24.786  0.00  0.00    -0.342 OA
ENDBRANCH   3   2
ENDBRANCH   4   3
ENDBRANCH   7   6
TORSDOF 4
ENDMDL
MODEL 2
REMARK VINA RESULT:     -10.2      1.153      4.831
REMARK  Name = 
REMARK  4 active torsions:
REMARK  status: ('A' for Active; 'I' for Inactive)
REMARK    1  A    between atoms: O_2  and  C_3
REMARK    2  A    between atoms: C_3  and  C_4
REMARK    3  A    between atoms: N_6  and  C_7
REMARK    4  A    between atoms: C_19  and  C_21
REMARK                            x       y       z     vdW  Elec       q    Type
REMARK                         _______ _______ _______ _____ _____    ______ ____
ROOT
ATOM      7  C   UNL     1      -3.143   3.622  24.788  0.00  0.00    +0.117 C 
ATOM      8  C   UNL     1      -3.912   3.659  25.084  0.00  0.00    +0.053 C 
ATOM      9  C   UNL     1      -4.219   2.893  25.096  0.00  0.00    +0.155 C 
ATOM     10  N   UNL     1      -3.638   2.382  24.806  0.00  0.00    -0.270 N 
ATOM     11  C   UNL     1      -2.973   2.833  24.616  0.00  0.00    +0.115 C 
ATOM     12  C   UNL     1      -3.675   1.564  24.708  0.00  0.00    +0.246 C 
ATOM     13  O   UNL     1      -2.996   1.208  24.403  0.00  0.00    -0.273 OA
ATOM     14  C   UNL     1      -4.302   1.054  24.876  0.00  0.00    +0.172 C 
ATOM     15  C   UNL     1      -5.047   1.236  25.182  0.00  0.00    +0.124 C 
ATOM     16  C   UNL     1      -5.474   0.535  25.248  0.00  0.00    +0.045 C 
ATOM     17  C   UNL     1      -4.995  -0.083  24.982  0.00  0.00    +0.096 C 
ATOM     18  N   UNL     1      -4.270   0.239  24.752  0.00  0.00    -0.267 N 
ATOM     19  C   UNL     1      -3.627  -0.180  24.452  0.00  0.00    +0.265 C 
ATOM     20  O   UNL     1      -2.935   0.217  24.244  0.00  0.00    -0.268 OA
ATOM     27  N   UNL     1      -5.347   1.974  25.397  0.00  0.00    -0.204 NA
ATOM     28  C   UNL     1      -4.979   2.712  25.358  0.00  0.00    +0.260 C 
ATOM     29  O   UNL     1      -5.431   3.352  25.617  0.00  0.00    -0.272 OA
ENDROOT
BRANCH  19  21
ATOM     21  C   UNL     1      -3.676  -0.999  24.358  0.00  0.00    +0.114 A 
ATOM     22  C   UNL     1      -4.221  -1.402  23.886  0.00  0.00    +0.023 A 
ATOM     23  C   UNL     1      -4.070  -2.210  23.957  0.00  0.00    +0.020 A 
ATOM     24  C   UNL     1      -3.433  -2.307  24.472  0.00  0.00    +0.076 A 
ATOM     25  N   UNL     1      -3.190  -1.558  24.720  0.00  0.00    -0.320 N 
ATOM     26  C   UNL     1      -2.569  -1.398  25.239  0.00  0.00    +0.131 C 
ENDBRANCH  19  21
BRANCH   7   6
ATOM      4  C   UNL     1      -2.066   4.435  25.257  0.00  0.00    +0.272 C 
ATOM      5  O   UNL     1      -2.011   3.971  25.936  0.00  0.00    -0.271 OA
ATOM      6  N   UNL     1      -2.633   4.261  24.683  0.00  0.00    -0.203 NA
BRANCH   4   3
ATOM      3  C   UNL     1      -1.555   5.075  25.152  0.00  0.00    +0.229 C 
BRANCH   3   2
ATOM      1  C   UNL     1      -0.301   5.499  24.616  0.00  0.00    +0.175 C 
ATOM      2  O   UNL     1      -0.750   4.944  25.028  0.00  0.00    -0.342 OA
ENDBRANCH   3   2
ENDBRANCH   4   3
ENDBRANCH   7   6
TORSDOF 4
ENDMDL
MODEL 3
REMARK VINA RESULT:     -10.1      2.604      4.329
REMARK  Name = 
REMARK  4 active torsions:
REMARK  status: ('A' for Active; 'I' for Inactive)
REMARK    1  A    between atoms: O_2  and  C_3
REMARK    2  A    between atoms: C_3  and  C_4
REMARK    3  A    between atoms: N_6  and  C_7
REMARK    4  A    between atoms: C_19  and  C_21
REMARK                            x       y       z     vdW  Elec       q    Type
REMARK                         _______ _______ _______ _____ _____    ______ ____
ROOT
ATOM      7  C   UNL     1      -0.280   0.068  24.273  0.00  0.00    +0.117 C 
ATOM      8  C   UNL     1      -0.568  -0.670  24.503  0.00  0.00    +0.053 C 
ATOM      9  C   UNL     1      -1.370  -0.586  24.680  0.00  0.00    +0.155 C 
ATOM     10  N   UNL     1      -1.577   0.204  24.559  0.00  0.00    -0.270 N 
ATOM     11  C   UNL     1      -0.903   0.608  24.307  0.00  0.00    +0.115 C 
ATOM     12  C   UNL     1      -2.312   0.564  24.659  0.00  0.00    +0.246 C 
ATOM     13  O   UNL     1      -2.341   1.371  24.491  0.00  0.00    -0.273 OA
ATOM     14  C   UNL     1      -3.022   0.224  24.905  0.00  0.00    +0.172 C 
ATOM     15  C   UNL     1      -3.173  -0.561  25.112  0.00  0.00    +0.124 C 
ATOM     16  C   UNL     1      -3.968  -0.623  25.319  0.00  0.00    +0.045 C 
ATOM     17  C   UNL     1      -4.311   0.124  25.240  0.00  0.00    +0.096 C 
ATOM     18  N   UNL     1      -3.725   0.647  24.984  0.00  0.00    -0.267 N 
ATOM     19  C   UNL     1      -3.826   1.452  24.834  0.00  0.00    +0.265 C 
ATOM     20  O   UNL     1      -3.187   1.907  24.580  0.00  0.00    -0.268 OA
ATOM     27  N   UNL     1      -2.649  -1.199  25.124  0.00  0.00    -0.204 NA
ATOM     28  C   UNL     1      -1.847  -1.211  24.931  0.00  0.00    +0.260 C 
ATOM     29  O   UNL     1      -1.473  -1.942  24.999  0.00  0.00    -0.272 OA
ENDROOT
BRANCH  19  21
ATOM     21  C   UNL     1      -4.567   1.801  24.938  0.00  0.00    +0.114 A 
ATOM     22  C   UNL     1      -5.287   1.497  24.674  0.00  0.00    +0.023 A 
ATOM     23  C   UNL     1      -5.882   2.025  24.897  0.00  0.00    +0.020 A 
ATOM     24  C   UNL     1      -5.529   2.653  25.298  0.00  0.00    +0.076 A 
ATOM     25  N   UNL     1      -4.716   2.514  25.323  0.00  0.00    -0.320 N 
ATOM     26  C   UNL     1      -4.151   3.005  25.673  0.00  0.00    +0.131 C 
ENDBRANCH  19  21
BRANCH   7   6
ATOM      4  C   UNL     1       0.747   0.073  23.280  0.00  0.00    +0.272 C 
ATOM      5  O   UNL     1       0.223  -0.261  22.737  0.00  0.00    -0.271 OA
ATOM      6  N   UNL     1       0.496   0.237  24.048  0.00  0.00    -0.203 NA
BRANCH   4   3
ATOM      3  C   UNL     1       1.523   0.242  23.054  0.00  0.00    +0.229 C 
BRANCH   3   2
ATOM      1  C   UNL     1       2.616   0.051  22.155  0.00  0.00    +0.175 C 
ATOM      2  O   UNL     1       1.824  -0.065  22.350  0.00  0.00    -0.342 OA
ENDBRANCH   3   2
ENDBRANCH   4   3
ENDBRANCH   7   6
TORSDOF 4
ENDMDL
MODEL 4
REMARK VINA RESULT:      -9.5      1.952      5.707
REMARK  Name = 
REMARK  4 active torsions:
REMARK  status: ('A' for Active; 'I' for Inactive)
REMARK    1  A    between atoms: O_2  and  C_3
REMARK    2  A    between atoms: C_3  and  C_4
REMARK    3  A    between atoms: N_6  and  C_7
REMARK    4  A    between atoms: C_19  and  C_21
REMARK                            x       y       z     vdW  Elec       q    Type
REMARK                         _______ _______ _______ _____ _____    ______ ____
ROOT
ATOM      7  C   UNL     1      -1.189   2.501  25.406  0.00  0.00    +0.117 C 
ATOM      8  C   UNL     1      -0.484   2.203  25.098  0.00  0.00    +0.053 C 
ATOM      9  C   UNL     1      -0.607   1.411  24.900  0.00  0.00    +0.155 C 
ATOM     10  N   UNL     1      -1.388   1.220  25.085  0.00  0.00    -0.270 N 
ATOM     11  C   UNL     1      -1.748   1.894  25.397  0.00  0.00    +0.115 C 
ATOM     12  C   UNL     1      -1.778   0.499  24.990  0.00  0.00    +0.246 C 
ATOM     13  O   UNL     1      -2.567   0.484  25.230  0.00  0.00    -0.273 OA
ATOM     14  C   UNL     1      -1.483  -0.209  24.688  0.00  0.00    +0.172 C 
ATOM     15  C   UNL     1      -0.724  -0.372  24.404  0.00  0.00    +0.124 C 
ATOM     16  C   UNL     1      -0.705  -1.160  24.163  0.00  0.00    +0.045 C 
ATOM     17  C   UNL     1      -1.452  -1.486  24.297  0.00  0.00    +0.096 C 
ATOM     18  N   UNL     1      -1.932  -0.897  24.621  0.00  0.00    -0.267 N 
ATOM     19  C   UNL     1      -2.722  -0.983  24.840  0.00  0.00    +0.265 C 
ATOM     20  O   UNL     1      -3.134  -0.344  25.158  0.00  0.00    -0.268 OA
ATOM     27  N   UNL     1      -0.074   0.135  24.355  0.00  0.00    -0.204 NA
ATOM     28  C   UNL     1      -0.022   0.928  24.575  0.00  0.00    +0.260 C 
ATOM     29  O   UNL     1       0.711   1.286  24.455  0.00  0.00    -0.272 OA
ENDROOT
BRANCH  19  21
ATOM     21  C   UNL     1      -3.102  -1.709  24.741  0.00  0.00    +0.114 A 
ATOM     22  C   UNL     1      -2.875  -2.426  25.083  0.00  0.00    +0.023 A 
ATOM     23  C   UNL     1      -3.408  -3.006  24.835  0.00  0.00    +0.020 A 
ATOM     24  C   UNL     1      -3.962  -2.648  24.341  0.00  0.00    +0.076 A 
ATOM     25  N   UNL     1      -3.773  -1.847  24.283  0.00  0.00    -0.320 N 
ATOM     26  C   UNL     1      -4.184  -1.282  23.843  0.00  0.00    +0.131 C 
ENDBRANCH  19  21
BRANCH   7   6
ATOM      4  C   UNL     1      -1.612   3.843  25.160  0.00  0.00    +0.272 C 
ATOM      5  O   UNL     1      -1.783   3.645  24.378  0.00  0.00    -0.271 OA
ATOM      6  N   UNL     1      -1.314   3.270  25.674  0.00  0.00    -0.203 NA
BRANCH   4   3
ATOM      3  C   UNL     1      -1.737   4.614  25.427  0.00  0.00    +0.229 C 
BRANCH   3   2
ATOM      1  C   UNL     1      -1.710   5.997  25.073  0.00  0.00    +0.175 C 
ATOM      2  O   UNL     1      -1.368   5.247  25.050  0.00  0.00    -0.342 OA
ENDBRANCH   3   2
ENDBRANCH   4   3
ENDBRANCH   7   6
TORSDOF 4
ENDMDL
MODEL 5
REMARK VINA RESULT:      -9.3      1.572      2.437
REMARK  Name = 
REMARK  4 active torsions:
REMARK  status: ('A' for Active; 'I' for Inactive)
REMARK    1  A    between atoms: O_2  and  C_3
REMARK    2  A    between atoms: C_3  and  C_4
REMARK    3  A    between atoms: N_6  and  C_7
REMARK    4  A    between atoms: C_19  and  C_21
REMARK                            x       y       z     vdW  Elec       q    Type
REMARK                         _______ _______ _______ _____ _____    ______ ____
ROOT
ATOM      7  C   UNL     1      -2.627  -0.422  24.316  0.00  0.00    +0.117 C 
ATOM      8  C   UNL     1      -1.983  -0.614  24.794  0.00  0.00    +0.053 C 
ATOM      9  C   UNL     1      -1.633   0.090  25.045  0.00  0.00    +0.155 C 
ATOM     10  N   UNL     1      -2.061   0.718  24.722  0.00  0.00    -0.270 N 
ATOM     11  C   UNL     1      -2.676   0.401  24.272  0.00  0.00    +0.115 C 
ATOM     12  C   UNL     1      -1.932   1.527  24.810  0.00  0.00    +0.246 C 
ATOM     13  O   UNL     1      -2.462   2.019  24.413  0.00  0.00    -0.273 OA
ATOM     14  C   UNL     1      -1.342   1.910  25.241  0.00  0.00    +0.172 C 
ATOM     15  C   UNL     1      -0.736   1.578  25.692  0.00  0.00    +0.124 C 
ATOM     16  C   UNL     1      -0.291   2.193  26.015  0.00  0.00    +0.045 C 
ATOM     17  C   UNL     1      -0.622   2.906  25.763  0.00  0.00    +0.096 C 
ATOM     18  N   UNL     1      -1.272   2.731  25.285  0.00  0.00    -0.267 N 
ATOM     19  C   UNL     1      -1.764   3.280  24.916  0.00  0.00    +0.265 C 
ATOM     20  O   UNL     1      -2.395   3.022  24.452  0.00  0.00    -0.268 OA
ATOM     27  N   UNL     1      -0.571   0.780  25.823  0.00  0.00    -0.204 NA
ATOM     28  C   UNL     1      -0.970   0.118  25.535  0.00  0.00    +0.260 C 
ATOM     29  O   UNL     1      -0.665  -0.613  25.767  0.00  0.00    -0.272 OA
ENDROOT
BRANCH  19  21
ATOM     21  C   UNL     1      -1.624   4.088  25.010  0.00  0.00    +0.114 A 
ATOM     22  C   UNL     1      -0.953   4.497  24.759  0.00  0.00    +0.023 A 
ATOM     23  C   UNL     1      -1.046   5.291  24.966  0.00  0.00    +0.020 A 
ATOM     24  C   UNL     1      -1.774   5.371  25.345  0.00  0.00    +0.076 A 
ATOM     25  N   UNL     1      -2.131   4.628  25.372  0.00  0.00    -0.320 N 
ATOM     26  C   UNL     1      -2.868   4.456  25.704  0.00  0.00    +0.131 C 
ENDBRANCH  19  21
BRANCH   7   6
ATOM      4  C   UNL     1      -3.788  -1.253  24.354  0.00  0.00    +0.272 C 
ATOM      5  O   UNL     1      -3.934  -1.014  25.130  0.00  0.00    -0.271 OA
ATOM      6  N   UNL     1      -3.134  -0.957  23.947  0.00  0.00    -0.203 NA
BRANCH   4   3
ATOM      3  C   UNL     1      -4.296  -1.789  23.986  0.00  0.00    +0.229 C 
BRANCH   3   2
ATOM      1  C   UNL     1      -4.569  -3.139  23.606  0.00  0.00    +0.175 C 
ATOM      2  O   UNL     1      -4.204  -2.599  24.110  0.00  0.00    -0.342 OA
ENDBRANCH   3   2
ENDBRANCH   4   3
ENDBRANCH   7   6
TORSDOF 4
ENDMDL
MODEL 6
REMARK VINA RESULT:      -9.2      2.470      4.138
REMARK  Name = 
REMARK  4 active torsions:
REMARK  status: ('A' for Active; 'I' for Inactive)
REMARK    1  A    between atoms: O_2  and  C_3
REMARK    2  A    between atoms: C_3  and  C_4
REMARK    3  A    between atoms: N_6  and  C_7
REMARK    4  A    between atoms: C_19  and  C_21
REMARK                            x       y       z     vdW  Elec       q    Type
REMARK                         _______ _______ _______ _____ _____    ______ ____
ROOT
ATOM      7  C   UNL     1      -4.209   0.991  24.827  0.00  0.00    +0.117 C 
ATOM      8  C   UNL     1      -4.172   0.265  25.218  0.00  0.00    +0.053 C 
ATOM      9  C   UNL     1      -3.416  -0.046  25.105  0.00  0.00    +0.155 C 
ATOM     10  N   UNL     1      -2.986   0.488  24.644  0.00  0.00    -0.270 N 
ATOM     11  C   UNL     1      -3.478   1.129  24.473  0.00  0.00    +0.115 C 
ATOM     12  C   UNL     1      -2.207   0.430  24.381  0.00  0.00    +0.246 C 
ATOM     13  O   UNL     1      -1.934   1.061  23.925  0.00  0.00    -0.273 OA
ATOM     14  C   UNL     1      -1.664  -0.177  24.513  0.00  0.00    +0.172 C 
ATOM     15  C   UNL     1      -1.766  -0.875  24.942  0.00  0.00    +0.124 C 
ATOM     16  C   UNL     1      -1.059  -1.299  24.910  0.00  0.00    +0.045 C 
ATOM     17  C   UNL     1      -0.520  -0.864  24.462  0.00  0.00    +0.096 C 
ATOM     18  N   UNL     1      -0.894  -0.170  24.217  0.00  0.00    -0.267 N 
ATOM     19  C   UNL     1      -0.557   0.426  23.757  0.00  0.00    +0.265 C 
ATOM     20  O   UNL     1      -1.000   1.091  23.554  0.00  0.00    -0.268 OA
ATOM     27  N   UNL     1      -2.437  -1.139  25.343  0.00  0.00    -0.204 NA
ATOM     28  C   UNL     1      -3.171  -0.770  25.416  0.00  0.00    +0.260 C 
ATOM     29  O   UNL     1      -3.735  -1.178  25.858  0.00  0.00    -0.272 OA
ENDROOT
BRANCH  19  21
ATOM     21  C   UNL     1       0.224   0.356  23.500  0.00  0.00    +0.114 A 
ATOM     22  C   UNL     1       0.528  -0.252  23.031  0.00  0.00    +0.023 A 
ATOM     23  C   UNL     1       1.330  -0.101  22.908  0.00  0.00    +0.020 A 
ATOM     24  C   UNL     1       1.521   0.599  23.299  0.00  0.00    +0.076 A 
ATOM     25  N   UNL     1       0.838   0.881  23.665  0.00  0.00    -0.320 N 
ATOM     26  C   UNL     1       0.779   1.570  24.117  0.00  0.00    +0.131 C 
ENDBRANCH  19  21
BRANCH   7   6
ATOM      4  C   UNL     1      -4.891   2.165  25.273  0.00  0.00    +0.272 C 
ATOM      5  O   UNL     1      -4.264   2.337  25.780  0.00  0.00    -0.271 OA
ATOM      6  N   UNL     1      -4.864   1.492  24.796  0.00  0.00    -0.203 NA
BRANCH   4   3
ATOM      3  C   UNL     1      -5.546   2.666  25.243  0.00  0.00    +0.229 C 
BRANCH   3   2
ATOM      1  C   UNL     1      -6.002   4.002  25.463  0.00  0.00    +0.175 C 
ATOM      2  O   UNL     1      -5.568   3.346  25.710  0.00  0.00    -0.342 OA
ENDBRANCH   3   2
ENDBRANCH   4   3
ENDBRANCH   7   6
TORSDOF 4
ENDMDL
MODEL 7
REMARK VINA RESULT:      -9.0      2.224      3.958
REMARK  Name = 
REMARK  4 active torsions:
REMARK  status: ('A' for Active; 'I' for Inactive)
REMARK    1  A    between atoms: O_2  and  C_3
REMARK    2  A    between atoms: C_3  and  C_4
REMARK    3  A    between atoms: N_6  and  C_7
REMARK    4  A    between atoms: C_19  and  C_21
REMARK                            x       y       z     vdW  Elec       q    Type
REMARK                         _______ _______ _______ _____ _____    ______ ____
ROOT
ATOM      7  C   UNL     1      -0.406   1.635  23.835  0.00  0.00    +0.117 C 
ATOM      8  C   UNL     1      -0.095   2.172  24.380  0.00  0.00    +0.053 C 
ATOM      9  C   UNL     1      -0.727   2.538  24.765  0.00  0.00    +0.155 C 
ATOM     10  N   UNL     1      -1.428   2.228  24.457  0.00  0.00    -0.270 N 
ATOM     11  C   UNL     1      -1.229   1.670  23.883  0.00  0.00    +0.115 C 
ATOM     12  C   UNL     1      -2.205   2.414  24.660  0.00  0.00    +0.246 C 
ATOM     13  O   UNL     1      -2.791   2.004  24.249  0.00  0.00    -0.273 OA
ATOM     14  C   UNL     1      -2.474   2.956  25.220  0.00  0.00    +0.172 C 
ATOM     15  C   UNL     1      -2.033   3.447  25.716  0.00  0.00    +0.124 C 
ATOM     16  C   UNL     1      -2.559   3.886  26.175  0.00  0.00    +0.045 C 
ATOM     17  C   UNL     1      -3.326   3.668  25.963  0.00  0.00    +0.096 C 
ATOM     18  N   UNL     1      -3.273   3.093  25.372  0.00  0.00    -0.267 N 
ATOM     19  C   UNL     1      -3.908   2.721  25.001  0.00  0.00    +0.265 C 
ATOM     20  O   UNL     1      -3.771   2.154  24.418  0.00  0.00    -0.268 OA
ATOM     27  N   UNL     1      -1.212   3.515  25.774  0.00  0.00    -0.204 NA
ATOM     28  C   UNL     1      -0.631   3.111  25.350  0.00  0.00    +0.260 C 
ATOM     29  O   UNL     1       0.148   3.305  25.537  0.00  0.00    -0.272 OA
ENDROOT
BRANCH  19  21
ATOM     21  C   UNL     1      -4.682   2.916  25.212  0.00  0.00    +0.114 A 
ATOM     22  C   UNL     1      -4.995   3.678  25.259  0.00  0.00    +0.023 A 
ATOM     23  C   UNL     1      -5.785   3.615  25.489  0.00  0.00    +0.020 A 
ATOM     24  C   UNL     1      -5.960   2.816  25.585  0.00  0.00    +0.076 A 
ATOM     25  N   UNL     1      -5.278   2.383  25.414  0.00  0.00    -0.320 N 
ATOM     26  C   UNL     1      -5.206   1.561  25.439  0.00  0.00    +0.131 C 
ENDBRANCH  19  21
BRANCH   7   6
ATOM      4  C   UNL     1       0.229   0.384  23.566  0.00  0.00    +0.272 C 
ATOM      5  O   UNL     1      -0.007   0.105  24.305  0.00  0.00    -0.271 OA
ATOM      6  N   UNL     1       0.030   1.150  23.330  0.00  0.00    -0.203 NA
BRANCH   4   3
ATOM      3  C   UNL     1       0.665  -0.103  23.062  0.00  0.00    +0.229 C 
BRANCH   3   2
ATOM      1  C   UNL     1       1.913  -0.333  22.405  0.00  0.00    +0.175 C 
ATOM      2  O   UNL     1       1.489  -0.062  23.058  0.00  0.00    -0.342 OA
ENDBRANCH   3   2
ENDBRANCH   4   3
ENDBRANCH   7   6
TORSDOF 4
ENDMDL
MODEL 8
REMARK VINA RESULT:      -8.9      1.563      5.200
REMARK  Name = 
REMARK  4 active torsions:
REMARK  status: ('A' for Active; 'I' for Inactive)
REMARK    1  A    between atoms: O_2  and  C_3
REMARK    2  A    between atoms: C_3  and  C_4
REMARK    3  A    between atoms: N_6  and  C_7
REMARK    4  A    between atoms: C_19  and  C_21
REMARK                            x       y       z     vdW  Elec       q    Type
REMARK                         _______ _______ _______ _____ _____    ______ ____
ROOT
ATOM      7  C   UNL     1      -3.653   2.797  24.688  0.00  0.00    +0.117 C 
ATOM      8  C   UNL     1      -2.829   2.811  24.724  0.00  0.00    +0.053 C 
ATOM      9  C   UNL     1      -2.561   2.031  24.747  0.00  0.00    +0.155 C 
ATOM     10  N   UNL     1      -3.221   1.534  24.726  0.00  0.00    -0.270 N 
ATOM     11  C   UNL     1      -3.895   2.009  24.689  0.00  0.00    +0.115 C 
ATOM     12  C   UNL     1      -3.245   0.710  24.736  0.00  0.00    +0.246 C 
ATOM     13  O   UNL     1      -3.997   0.373  24.708  0.00  0.00    -0.273 OA
ATOM     14  C   UNL     1      -2.615   0.178  24.772  0.00  0.00    +0.172 C 
ATOM     15  C   UNL     1      -1.806   0.339  24.805  0.00  0.00    +0.124 C 
ATOM     16  C   UNL     1      -1.404  -0.380  24.833  0.00  0.00    +0.045 C 
ATOM     17  C   UNL     1      -1.964  -0.987  24.817  0.00  0.00    +0.096 C 
ATOM     18  N   UNL     1      -2.713  -0.641  24.779  0.00  0.00    -0.267 N 
ATOM     19  C   UNL     1      -3.431  -1.044  24.753  0.00  0.00    +0.265 C 
ATOM     20  O   UNL     1      -4.139  -0.623  24.716  0.00  0.00    -0.268 OA
ATOM     27  N   UNL     1      -1.427   1.072  24.811  0.00  0.00    -0.204 NA
ATOM     28  C   UNL     1      -1.764   1.825  24.785  0.00  0.00    +0.260 C 
ATOM     29  O   UNL     1      -1.232   2.455  24.800  0.00  0.00    -0.272 OA
ENDROOT
BRANCH  19  21
ATOM     21  C   UNL     1      -3.443  -1.869  24.765  0.00  0.00    +0.114 A 
ATOM     22  C   UNL     1      -3.089  -2.351  25.334  0.00  0.00    +0.023 A 
ATOM     23  C   UNL     1      -3.237  -3.137  25.129  0.00  0.00    +0.020 A 
ATOM     24  C   UNL     1      -3.683  -3.140  24.436  0.00  0.00    +0.076 A 
ATOM     25  N   UNL     1      -3.810  -2.357  24.211  0.00  0.00    -0.320 N 
ATOM     26  C   UNL     1      -4.230  -2.105  23.546  0.00  0.00    +0.131 C 
ENDBRANCH  19  21
BRANCH   7   6
ATOM      4  C   UNL     1      -4.555   3.698  25.333  0.00  0.00    +0.272 C 
ATOM      5  O   UNL     1      -4.465   3.282  26.040  0.00  0.00    -0.271 OA
ATOM      6  N   UNL     1      -4.149   3.456  24.657  0.00  0.00    -0.203 NA
BRANCH   4   3
ATOM      3  C   UNL     1      -5.051   4.357  25.303  0.00  0.00    +0.229 C 
BRANCH   3   2
ATOM      1  C   UNL     1      -6.288   4.991  25.632  0.00  0.00    +0.175 C 
ATOM      2  O   UNL     1      -5.785   4.339  25.678  0.00  0.00    -0.342 OA
ENDBRANCH   3   2
ENDBRANCH   4   3
ENDBRANCH   7   6
TORSDOF 4
ENDMDL
