MODEL 1
REMARK VINA RESULT:     -11.8      0.000      0.000
REMARK  Name = 
REMARK  4 active torsions:
REMARK  status: ('A' for Active; 'I' for Inactive)
REMARK    1  A    between atoms: C_2  and  C_4
REMARK    2  A    between atoms: C_6  and  C_7
REMARK    3  A    between atoms: C_7  and  C_8
REMARK    4  A    between atoms: C_20  and  C_21
REMARK                            x       y       z     vdW  Elec       q    Type
REMARK                         _______ _______ _______ _____ _____    ______ ____
ROOT
ATOM      4  C   UNL     1      -3.330   2.072  23.920  0.00  0.00    +0.007 C 
ATOM      5  C   UNL     1      -3.548   1.289  24.066  0.00  0.00    +0.005 C 
ATOM      6  C   UNL     1      -4.255   1.123  24.455  0.00  0.00    +0.027 C 
ATOM     17  C   UNL     1      -4.747   1.741  24.699  0.00  0.00    -0.048 C 
ATOM     18  C   UNL     1      -5.455   1.575  25.088  0.00  0.00    +0.026 C 
ATOM     19  C   UNL     1      -4.529   2.524  24.553  0.00  0.00    -0.032 C 
ATOM     20  C   UNL     1      -3.821   2.689  24.164  0.00  0.00    +0.054 C 
ENDROOT
BRANCH   4   2
ATOM      1  C   UNL     1      -2.577   2.169  22.710  0.00  0.00    +0.000 C 
ATOM      2  C   UNL     1      -2.622   2.237  23.531  0.00  0.00    +0.000 C 
ATOM      3  C   UNL     1      -1.959   2.471  23.963  0.00  0.00    +0.000 C 
ENDBRANCH   4   2
BRANCH  20  21
ATOM     21  C   UNL     1      -3.603   3.471  24.018  0.00  0.00    +0.186 C 
ATOM     22  O   UNL     1      -4.059   4.088  24.321  0.00  0.00    -0.220 OA
ENDBRANCH  20  21
BRANCH   6   7
ATOM      7  C   UNL     1      -4.474   0.341  24.601  0.00  0.00    +0.089 C 
BRANCH   7   8
ATOM      8  C   UNL     1      -3.977  -0.151  25.038  0.00  0.00    +0.226 C 
ATOM      9  O   UNL     1      -3.573   0.147  25.692  0.00  0.00    -0.275 OA
ATOM     10  N   UNL     1      -3.886  -0.941  24.822  0.00  0.00    -0.280 N 
ATOM     11  C   UNL     1      -4.290  -1.240  24.168  0.00  0.00    +0.093 C 
ATOM     12  C   UNL     1      -4.199  -2.030  23.952  0.00  0.00    +0.022 C 
ATOM     13  C   UNL     1      -3.702  -2.524  24.390  0.00  0.00    +0.003 C 
ATOM     14  C   UNL     1      -3.610  -3.315  24.173  0.00  0.00    +0.000 C 
ATOM     15  C   UNL     1      -3.298  -2.225  25.044  0.00  0.00    +0.022 C 
ATOM     16  C   UNL     1      -3.389  -1.434  25.261  0.00  0.00    +0.093 C 
ENDBRANCH   7   8
ENDBRANCH   6   7
TORSDOF 4
ENDMDL
MODEL 2
REMARK VINA RESULT:     -11.6      1.594      4.164
REMARK  Name = 
REMARK  4 active torsions:
REMARK  status: ('A' for Active; 'I' for Inactive)
REMARK    1  A    between atoms: C_2  and  C_4
REMARK    2  A    between atoms: C_6  and  C_7
REMARK    3  A    between atoms: C_7  and  C_8
REMARK    4  A    between atoms: C_20  and  C_21
REMARK                            x       y       z     vdW  Elec       q    Type
REMARK                         _______ _______ _______ _____ _____    ______ ____
ROOT
ATOM      4  C   UNL     1      -2.214  -0.949  24.961  0.00  0.00    +0.007 C 
ATOM      5  C   UNL     1      -2.821  -0.390  24.943  0.00  0.00    +0.005 C 
ATOM      6  C   UNL     1      -3.552  -0.586  24.618  0.00  0.00    +0.027 C 
ATOM     17  C   UNL     1      -3.678  -1.343  24.311  0.00  0.00    -0.048 C 
ATOM     18  C   UNL     1      -4.411  -1.539  23.986  0.00  0.00    +0.026 C 
ATOM     19  C   UNL     1      -3.071  -1.902  24.330  0.00  0.00    -0.032 C 
ATOM     20  C   UNL     1      -2.340  -1.705  24.655  0.00  0.00    +0.054 C 
ENDROOT
BRANCH   4   2
ATOM      1  C   UNL     1      -0.853  -0.547  24.793  0.00  0.00    +0.000 C 
ATOM      2  C   UNL     1      -1.481  -0.753  25.287  0.00  0.00    +0.000 C 
ATOM      3  C   UNL     1      -1.378  -0.762  26.105  0.00  0.00    +0.000 C 
ENDBRANCH   4   2
BRANCH  20  21
ATOM     21  C   UNL     1      -1.733  -2.264  24.674  0.00  0.00    +0.186 C 
ATOM     22  O   UNL     1      -1.829  -2.989  24.292  0.00  0.00    -0.220 OA
ENDBRANCH  20  21
BRANCH   6   7
ATOM      7  C   UNL     1      -4.159  -0.028  24.599  0.00  0.00    +0.089 C 
BRANCH   7   8
ATOM      8  C   UNL     1      -4.017   0.726  24.296  0.00  0.00    +0.226 C 
ATOM      9  O   UNL     1      -3.479   0.828  23.680  0.00  0.00    -0.275 OA
ATOM     10  N   UNL     1      -4.413   1.378  24.611  0.00  0.00    -0.280 N 
ATOM     11  C   UNL     1      -4.951   1.276  25.228  0.00  0.00    +0.093 C 
ATOM     12  C   UNL     1      -5.347   1.927  25.542  0.00  0.00    +0.022 C 
ATOM     13  C   UNL     1      -5.205   2.682  25.239  0.00  0.00    +0.003 C 
ATOM     14  C   UNL     1      -5.601   3.334  25.554  0.00  0.00    +0.000 C 
ATOM     15  C   UNL     1      -4.667   2.784  24.623  0.00  0.00    +0.022 C 
ATOM     16  C   UNL     1      -4.271   2.133  24.308  0.00  0.00    +0.093 C 
ENDBRANCH   7   8
ENDBRANCH   6   7
TORSDOF 4
ENDMDL
MODEL 3
REMARK VINA RESULT:     -11.1      1.553      2.284
REMARK  Name = 
REMARK  4 active torsions:
REMARK  status: ('A' for Active; 'I' for Inactive)
REMARK    1  A    between atoms: C_2  and  C_4
REMARK    2  A    between atoms: C_6  and  C_7
REMARK    3  A    between atoms: C_7  and  C_8
REMARK    4  A    between atoms: C_20  and  C_21
REMARK                            x       y       z     vdW  Elec       q    Type
REMARK                         _______ _______ _______ _____ _____    ______ ____
ROOT
ATOM      4  C   UNL     1      -1.713   3.129  25.171  0.00  0.00    +0.007 C 
ATOM      5  C   UNL     1      -2.246   2.509  25.053  0.00  0.00    +0.005 C 
ATOM      6  C   UNL     1      -3.052   2.664  24.989  0.00  0.00    +0.027 C 
ATOM     17  C   UNL     1      -3.329   3.441  25.044  0.00  0.00    -0.048 C 
ATOM     18  C   UNL     1      -4.136   3.596  24.980  0.00  0.00    +0.026 C 
ATOM     19  C   UNL     1      -2.796   4.061  25.162  0.00  0.00    -0.032 C 
ATOM     20  C   UNL     1      -1.990   3.905  25.225  0.00  0.00    +0.054 C 
ENDROOT
BRANCH   4   2
ATOM      1  C   UNL     1      -0.420   3.037  24.570  0.00  0.00    +0.000 C 
ATOM      2  C   UNL     1      -0.906   2.973  25.234  0.00  0.00    +0.000 C 
ATOM      3  C   UNL     1      -0.585   2.752  25.962  0.00  0.00    +0.000 C 
ENDBRANCH   4   2
BRANCH  20  21
ATOM     21  C   UNL     1      -1.458   4.524  25.344  0.00  0.00    +0.186 C 
ATOM     22  O   UNL     1      -1.725   5.304  25.334  0.00  0.00    -0.220 OA
ENDBRANCH  20  21
BRANCH   6   7
ATOM      7  C   UNL     1      -3.585   2.045  24.871  0.00  0.00    +0.089 C 
BRANCH   7   8
ATOM      8  C   UNL     1      -3.494   1.541  24.225  0.00  0.00    +0.226 C 
ATOM      9  O   UNL     1      -3.257   1.843  23.496  0.00  0.00    -0.275 OA
ATOM     10  N   UNL     1      -3.641   0.734  24.308  0.00  0.00    -0.280 N 
ATOM     11  C   UNL     1      -3.879   0.430  25.038  0.00  0.00    +0.093 C 
ATOM     12  C   UNL     1      -4.026  -0.376  25.122  0.00  0.00    +0.022 C 
ATOM     13  C   UNL     1      -3.936  -0.882  24.475  0.00  0.00    +0.003 C 
ATOM     14  C   UNL     1      -4.083  -1.689  24.559  0.00  0.00    +0.000 C 
ATOM     15  C   UNL     1      -3.698  -0.579  23.745  0.00  0.00    +0.022 C 
ATOM     16  C   UNL     1      -3.551   0.228  23.661  0.00  0.00    +0.093 C 
ENDBRANCH   7   8
ENDBRANCH   6   7
TORSDOF 4
ENDMDL
MODEL 4
REMARK VINA RESULT:     -10.5      1.739      4.459
REMARK  Name = 
REMARK  4 active torsions:
REMARK  status: ('A' for Active; 'I' for Inactive)
REMARK    1  A    between atoms: C_2  and  C_4
REMARK    2  A    between atoms: C_6  and  C_7
REMARK    3  A    between atoms: C_7  and  C_8
REMARK    4  A    between atoms: C_20  and  C_21
REMARK                            x       y       z     vdW  Elec       q    Type
REMARK                         _______ _______ _______ _____ _____    ______ ____
ROOT
ATOM      4  C   UNL     1      -2.514  -0.638  25.098  0.00  0.00    +0.007 C 
ATOM      5  C   UNL     1      -2.513   0.186  25.047  0.00  0.00    +0.005 C 
ATOM      6  C   UNL     1      -3.209   0.588  24.865  0.00  0.00    +0.027 C 
ATOM     17  C   UNL     1      -3.907   0.167  24.734  0.00  0.00    -0.048 C 
ATOM     18  C   UNL     1      -4.603   0.570  24.552  0.00  0.00    +0.026 C 
ATOM     19  C   UNL     1      -3.907  -0.657  24.785  0.00  0.00    -0.032 C 
ATOM     20  C   UNL     1      -3.212  -1.059  24.967  0.00  0.00    +0.054 C 
ENDROOT
BRANCH   4   2
ATOM      1  C   UNL     1      -1.532  -1.041  26.055  0.00  0.00    +0.000 C 
ATOM      2  C   UNL     1      -1.817  -1.041  25.280  0.00  0.00    +0.000 C 
ATOM      3  C   UNL     1      -1.406  -1.443  24.688  0.00  0.00    +0.000 C 
ENDBRANCH   4   2
BRANCH  20  21
ATOM     21  C   UNL     1      -3.212  -1.882  25.018  0.00  0.00    +0.186 C 
ATOM     22  O   UNL     1      -3.889  -2.307  24.813  0.00  0.00    -0.220 OA
ENDBRANCH  20  21
BRANCH   6   7
ATOM      7  C   UNL     1      -3.209   1.411  24.814  0.00  0.00    +0.089 C 
BRANCH   7   8
ATOM      8  C   UNL     1      -2.624   1.798  24.379  0.00  0.00    +0.226 C 
ATOM      9  O   UNL     1      -2.312   1.445  23.702  0.00  0.00    -0.275 OA
ATOM     10  N   UNL     1      -2.352   2.538  24.620  0.00  0.00    -0.280 N 
ATOM     11  C   UNL     1      -2.664   2.892  25.297  0.00  0.00    +0.093 C 
ATOM     12  C   UNL     1      -2.391   3.631  25.539  0.00  0.00    +0.022 C 
ATOM     13  C   UNL     1      -1.806   4.018  25.104  0.00  0.00    +0.003 C 
ATOM     14  C   UNL     1      -1.534   4.759  25.346  0.00  0.00    +0.000 C 
ATOM     15  C   UNL     1      -1.494   3.665  24.427  0.00  0.00    +0.022 C 
ATOM     16  C   UNL     1      -1.766   2.925  24.185  0.00  0.00    +0.093 C 
ENDBRANCH   7   8
ENDBRANCH   6   7
TORSDOF 4
ENDMDL
