MODEL 1
REMARK VINA RESULT:      -9.6      0.000      0.000
REMARK  Name = 
REMARK  7 active torsions:
REMARK  status: ('A' for Active; 'I' for Inactive)
REMARK    1  A    between atoms: C_2  and  N_3
REMARK    2  A    between atoms: N_3  and  C_4
REMARK    3  A    between atoms: C_6  and  C_8
REMARK    4  A    between atoms: C_8  and  C_10
REMARK    5  A    between atoms: C_17  and  N_18
REMARK    6  A    between atoms: C_19  and  C_21
REMARK    7  A    between atoms: C_24  and  C_27
REMARK                            x       y       z     vdW  Elec       q    Type
REMARK                         _______ _______ _______ _____ _____    ______ ____
ROOT
ATOM     10  C   UNL     1      -3.428   1.478  24.502  0.00  0.00    +0.039 C 
ATOM     11  C   UNL     1      -3.613   0.770  24.885  0.00  0.00    +0.003 C 
ATOM     12  C   UNL     1      -3.035   0.190  24.979  0.00  0.00    +0.000 C 
ATOM     13  C   UNL     1      -2.272   0.316  24.691  0.00  0.00    +0.002 C 
ATOM     14  C   UNL     1      -2.457  -0.392  25.074  0.00  0.00    +0.000 C 
ATOM     15  C   UNL     1      -1.694  -0.265  24.785  0.00  0.00    +0.002 C 
ATOM     16  C   UNL     1      -0.931  -0.139  24.498  0.00  0.00    +0.022 C 
ATOM     17  C   UNL     1      -0.746   0.568  24.115  0.00  0.00    +0.096 C 
ATOM     29  C   UNL     1      -1.325   1.150  24.021  0.00  0.00    +0.022 C 
ATOM     30  C   UNL     1      -1.140   1.856  23.639  0.00  0.00    +0.002 C 
ATOM     31  C   UNL     1      -2.087   1.023  24.309  0.00  0.00    +0.032 C 
ATOM     32  C   UNL     1      -2.666   1.605  24.214  0.00  0.00    +0.152 C 
ATOM     33  O   UNL     1      -2.481   2.311  23.832  0.00  0.00    -0.223 OA
ENDROOT
BRANCH  17  18
ATOM     18  N   UNL     1       0.016   0.695  23.827  0.00  0.00    -0.203 NA
ATOM     19  C   UNL     1       0.450   0.064  23.518  0.00  0.00    +0.265 C 
ATOM     20  O   UNL     1       0.121  -0.692  23.497  0.00  0.00    -0.268 OA
BRANCH  19  21
ATOM     21  C   UNL     1       1.212   0.191  23.230  0.00  0.00    +0.055 A 
ATOM     22  C   UNL     1       1.702   0.746  23.593  0.00  0.00    +0.005 A 
ATOM     23  C   UNL     1       2.466   0.873  23.305  0.00  0.00    +0.010 A 
ATOM     24  C   UNL     1       2.737   0.446  22.655  0.00  0.00    +0.068 A 
ATOM     25  C   UNL     1       2.247  -0.109  22.291  0.00  0.00    +0.010 A 
ATOM     26  C   UNL     1       1.484  -0.236  22.580  0.00  0.00    +0.005 A 
BRANCH  24  27
ATOM     27  C   UNL     1       3.501   0.573  22.367  0.00  0.00    +0.100 C 
ATOM     28  N   UNL     1       4.263   0.700  22.079  0.00  0.00    -0.191 NA
ENDBRANCH  24  27
ENDBRANCH  19  21
ENDBRANCH  17  18
BRANCH  10   8
ATOM      8  C   UNL     1      -4.006   2.059  24.408  0.00  0.00    +0.079 C 
ATOM      9  C   UNL     1      -4.305   2.226  23.658  0.00  0.00    +0.010 C 
BRANCH   8   6
ATOM      3  N   UNL     1      -5.096   2.517  25.211  0.00  0.00    -0.280 N 
ATOM      6  C   UNL     1      -4.285   2.473  25.065  0.00  0.00    +0.225 C 
ATOM      7  O   UNL     1      -3.753   2.844  25.575  0.00  0.00    -0.275 OA
BRANCH   3   2
ATOM      1  C   UNL     1      -5.727   3.671  25.769  0.00  0.00    +0.023 C 
ATOM      2  C   UNL     1      -5.375   2.931  25.868  0.00  0.00    +0.093 C 
ENDBRANCH   3   2
BRANCH   3   4
ATOM      4  C   UNL     1      -5.627   2.146  24.701  0.00  0.00    +0.093 C 
ATOM      5  C   UNL     1      -6.366   1.905  24.978  0.00  0.00    +0.023 C 
ENDBRANCH   3   4
ENDBRANCH   8   6
ENDBRANCH  10   8
TORSDOF 7
ENDMDL
MODEL 2
REMARK VINA RESULT:      -8.6      3.111      4.899
REMARK  Name = 
REMARK  7 active torsions:
REMARK  status: ('A' for Active; 'I' for Inactive)
REMARK    1  A    between atoms: C_2  and  N_3
REMARK    2  A    between atoms: N_3  and  C_4
REMARK    3  A    between atoms: C_6  and  C_8
REMARK    4  A    between atoms: C_8  and  C_10
REMARK    5  A    between atoms: C_17  and  N_18
REMARK    6  A    between atoms: C_19  and  C_21
REMARK    7  A    between atoms: C_24  and  C_27
REMARK                            x       y       z     vdW  Elec       q    Type
REMARK                         _______ _______ _______ _____ _____    ______ ____
ROOT
ATOM     10  C   UNL     1      -2.772   3.452  25.548  0.00  0.00    +0.039 C 
ATOM     11  C   UNL     1      -3.527   3.784  25.570  0.00  0.00    +0.003 C 
ATOM     12  C   UNL     1      -4.182   3.329  25.361  0.00  0.00    +0.000 C 
ATOM     13  C   UNL     1      -4.084   2.543  25.130  0.00  0.00    +0.002 C 
ATOM     14  C   UNL     1      -4.839   2.875  25.152  0.00  0.00    +0.000 C 
ATOM     15  C   UNL     1      -4.739   2.089  24.921  0.00  0.00    +0.002 C 
ATOM     16  C   UNL     1      -4.641   1.303  24.689  0.00  0.00    +0.022 C 
ATOM     17  C   UNL     1      -3.886   0.972  24.667  0.00  0.00    +0.096 C 
ATOM     29  C   UNL     1      -3.229   1.427  24.876  0.00  0.00    +0.022 C 
ATOM     30  C   UNL     1      -2.474   1.096  24.854  0.00  0.00    +0.002 C 
ATOM     31  C   UNL     1      -3.329   2.212  25.107  0.00  0.00    +0.032 C 
ATOM     32  C   UNL     1      -2.672   2.667  25.316  0.00  0.00    +0.152 C 
ATOM     33  O   UNL     1      -1.917   2.336  25.294  0.00  0.00    -0.223 OA
ENDROOT
BRANCH  17  18
ATOM     18  N   UNL     1      -3.786   0.186  24.436  0.00  0.00    -0.203 NA
ATOM     19  C   UNL     1      -4.116  -0.421  24.887  0.00  0.00    +0.265 C 
ATOM     20  O   UNL     1      -4.546  -0.242  25.569  0.00  0.00    -0.268 OA
BRANCH  19  21
ATOM     21  C   UNL     1      -4.016  -1.207  24.656  0.00  0.00    +0.055 A 
ATOM     22  C   UNL     1      -4.363  -1.477  23.958  0.00  0.00    +0.005 A 
ATOM     23  C   UNL     1      -4.264  -2.263  23.726  0.00  0.00    +0.010 A 
ATOM     24  C   UNL     1      -3.818  -2.777  24.192  0.00  0.00    +0.068 A 
ATOM     25  C   UNL     1      -3.471  -2.506  24.890  0.00  0.00    +0.010 A 
ATOM     26  C   UNL     1      -3.571  -1.720  25.122  0.00  0.00    +0.005 A 
BRANCH  24  27
ATOM     27  C   UNL     1      -3.718  -3.563  23.960  0.00  0.00    +0.100 C 
ATOM     28  N   UNL     1      -3.619  -4.348  23.729  0.00  0.00    -0.191 NA
ENDBRANCH  24  27
ENDBRANCH  19  21
ENDBRANCH  17  18
BRANCH  10   8
ATOM      8  C   UNL     1      -2.115   3.907  25.757  0.00  0.00    +0.079 C 
ATOM      9  C   UNL     1      -1.518   3.580  26.221  0.00  0.00    +0.010 C 
BRANCH   8   6
ATOM      3  N   UNL     1      -1.391   4.937  25.081  0.00  0.00    -0.280 N 
ATOM      6  C   UNL     1      -2.057   4.689  25.501  0.00  0.00    +0.225 C 
ATOM      7  O   UNL     1      -2.664   5.223  25.664  0.00  0.00    -0.275 OA
BRANCH   3   2
ATOM      1  C   UNL     1      -0.590   6.062  24.714  0.00  0.00    +0.023 C 
ATOM      2  C   UNL     1      -1.333   5.719  24.825  0.00  0.00    +0.093 C 
ENDBRANCH   3   2
BRANCH   3   4
ATOM      4  C   UNL     1      -0.784   4.404  24.919  0.00  0.00    +0.093 C 
ATOM      5  C   UNL     1      -0.255   4.555  24.304  0.00  0.00    +0.023 C 
ENDBRANCH   3   4
ENDBRANCH   8   6
ENDBRANCH  10   8
TORSDOF 7
ENDMDL
MODEL 3
REMARK VINA RESULT:      -8.5      1.470      2.106
REMARK  Name = 
REMARK  7 active torsions:
REMARK  status: ('A' for Active; 'I' for Inactive)
REMARK    1  A    between atoms: C_2  and  N_3
REMARK    2  A    between atoms: N_3  and  C_4
REMARK    3  A    between atoms: C_6  and  C_8
REMARK    4  A    between atoms: C_8  and  C_10
REMARK    5  A    between atoms: C_17  and  N_18
REMARK    6  A    between atoms: C_19  and  C_21
REMARK    7  A    between atoms: C_24  and  C_27
REMARK                            x       y       z     vdW  Elec       q    Type
REMARK                         _______ _______ _______ _____ _____    ______ ____
ROOT
ATOM     10  C   UNL     1      -3.788   3.323  25.169  0.00  0.00    +0.039 C 
ATOM     11  C   UNL     1      -3.512   3.800  25.783  0.00  0.00    +0.003 C 
ATOM     12  C   UNL     1      -2.703   3.854  25.931  0.00  0.00    +0.000 C 
ATOM     13  C   UNL     1      -2.168   3.431  25.466  0.00  0.00    +0.002 C 
ATOM     14  C   UNL     1      -1.892   3.908  26.080  0.00  0.00    +0.000 C 
ATOM     15  C   UNL     1      -1.359   3.484  25.614  0.00  0.00    +0.002 C 
ATOM     16  C   UNL     1      -0.825   3.061  25.149  0.00  0.00    +0.022 C 
ATOM     17  C   UNL     1      -1.101   2.584  24.535  0.00  0.00    +0.096 C 
ATOM     29  C   UNL     1      -1.912   2.530  24.386  0.00  0.00    +0.022 C 
ATOM     30  C   UNL     1      -2.187   2.054  23.773  0.00  0.00    +0.002 C 
ATOM     31  C   UNL     1      -2.445   2.954  24.852  0.00  0.00    +0.032 C 
ATOM     32  C   UNL     1      -3.255   2.900  24.703  0.00  0.00    +0.152 C 
ATOM     33  O   UNL     1      -3.531   2.424  24.090  0.00  0.00    -0.223 OA
ENDROOT
BRANCH  17  18
ATOM     18  N   UNL     1      -0.568   2.161  24.069  0.00  0.00    -0.203 NA
ATOM     19  C   UNL     1      -0.036   1.638  24.423  0.00  0.00    +0.265 C 
ATOM     20  O   UNL     1      -0.037   1.540  25.243  0.00  0.00    -0.268 OA
BRANCH  19  21
ATOM     21  C   UNL     1       0.497   1.215  23.958  0.00  0.00    +0.055 A 
ATOM     22  C   UNL     1       1.239   1.534  23.787  0.00  0.00    +0.005 A 
ATOM     23  C   UNL     1       1.773   1.111  23.321  0.00  0.00    +0.010 A 
ATOM     24  C   UNL     1       1.565   0.370  23.026  0.00  0.00    +0.068 A 
ATOM     25  C   UNL     1       0.823   0.051  23.197  0.00  0.00    +0.010 A 
ATOM     26  C   UNL     1       0.290   0.474  23.663  0.00  0.00    +0.005 A 
BRANCH  24  27
ATOM     27  C   UNL     1       2.099  -0.054  22.560  0.00  0.00    +0.100 C 
ATOM     28  N   UNL     1       2.632  -0.476  22.094  0.00  0.00    -0.191 NA
ENDBRANCH  24  27
ENDBRANCH  19  21
ENDBRANCH  17  18
BRANCH  10   8
ATOM      8  C   UNL     1      -4.598   3.270  25.020  0.00  0.00    +0.079 C 
ATOM      9  C   UNL     1      -4.882   3.342  24.250  0.00  0.00    +0.010 C 
BRANCH   8   6
ATOM      3  N   UNL     1      -5.690   2.544  25.591  0.00  0.00    -0.280 N 
ATOM      6  C   UNL     1      -5.124   3.143  25.644  0.00  0.00    +0.225 C 
ATOM      7  O   UNL     1      -5.084   3.615  26.319  0.00  0.00    -0.275 OA
BRANCH   3   2
ATOM      1  C   UNL     1      -6.237   1.685  26.592  0.00  0.00    +0.023 C 
ATOM      2  C   UNL     1      -6.215   2.418  26.214  0.00  0.00    +0.093 C 
ENDBRANCH   3   2
BRANCH   3   4
ATOM      4  C   UNL     1      -5.729   2.073  24.916  0.00  0.00    +0.093 C 
ATOM      5  C   UNL     1      -6.404   1.624  24.765  0.00  0.00    +0.023 C 
ENDBRANCH   3   4
ENDBRANCH   8   6
ENDBRANCH  10   8
TORSDOF 7
ENDMDL
MODEL 4
REMARK VINA RESULT:      -8.0      3.149      4.711
REMARK  Name = 
REMARK  7 active torsions:
REMARK  status: ('A' for Active; 'I' for Inactive)
REMARK    1  A    between atoms: C_2  and  N_3
REMARK    2  A    between atoms: N_3  and  C_4
REMARK    3  A    between atoms: C_6  and  C_8
REMARK    4  A    between atoms: C_8  and  C_10
REMARK    5  A    between atoms: C_17  and  N_18
REMARK    6  A    between atoms: C_19  and  C_21
REMARK    7  A    between atoms: C_24  and  C_27
REMARK                            x       y       z     vdW  Elec       q    Type
REMARK                         _______ _______ _______ _____ _____    ______ ____
ROOT
ATOM     10  C   UNL     1      -4.310  -0.292  24.574  0.00  0.00    +0.039 C 
ATOM     11  C   UNL     1      -5.035  -0.105  24.921  0.00  0.00    +0.003 C 
ATOM     12  C   UNL     1      -5.196   0.671  25.146  0.00  0.00    +0.000 C 
ATOM     13  C   UNL     1      -4.633   1.263  25.023  0.00  0.00    +0.002 C 
ATOM     14  C   UNL     1      -5.358   1.449  25.371  0.00  0.00    +0.000 C 
ATOM     15  C   UNL     1      -4.795   2.039  25.248  0.00  0.00    +0.002 C 
ATOM     16  C   UNL     1      -4.232   2.630  25.125  0.00  0.00    +0.022 C 
ATOM     17  C   UNL     1      -3.508   2.444  24.777  0.00  0.00    +0.096 C 
ATOM     29  C   UNL     1      -3.346   1.666  24.552  0.00  0.00    +0.022 C 
ATOM     30  C   UNL     1      -2.622   1.480  24.205  0.00  0.00    +0.002 C 
ATOM     31  C   UNL     1      -3.909   1.076  24.675  0.00  0.00    +0.032 C 
ATOM     32  C   UNL     1      -3.747   0.298  24.450  0.00  0.00    +0.152 C 
ATOM     33  O   UNL     1      -3.024   0.112  24.103  0.00  0.00    -0.223 OA
ENDROOT
BRANCH  17  18
ATOM     18  N   UNL     1      -2.945   3.034  24.654  0.00  0.00    -0.203 NA
ATOM     19  C   UNL     1      -2.667   3.478  25.292  0.00  0.00    +0.265 C 
ATOM     20  O   UNL     1      -2.952   3.332  26.052  0.00  0.00    -0.268 OA
BRANCH  19  21
ATOM     21  C   UNL     1      -2.104   4.068  25.169  0.00  0.00    +0.055 A 
ATOM     22  C   UNL     1      -1.312   3.864  25.057  0.00  0.00    +0.005 A 
ATOM     23  C   UNL     1      -0.748   4.454  24.933  0.00  0.00    +0.010 A 
ATOM     24  C   UNL     1      -0.976   5.246  24.922  0.00  0.00    +0.068 A 
ATOM     25  C   UNL     1      -1.768   5.450  25.034  0.00  0.00    +0.010 A 
ATOM     26  C   UNL     1      -2.331   4.860  25.157  0.00  0.00    +0.005 A 
BRANCH  24  27
ATOM     27  C   UNL     1      -0.412   5.837  24.798  0.00  0.00    +0.100 C 
ATOM     28  N   UNL     1       0.151   6.426  24.676  0.00  0.00    -0.191 NA
ENDBRANCH  24  27
ENDBRANCH  19  21
ENDBRANCH  17  18
BRANCH  10   8
ATOM      8  C   UNL     1      -4.148  -1.070  24.349  0.00  0.00    +0.079 C 
ATOM      9  C   UNL     1      -4.291  -1.313  23.574  0.00  0.00    +0.010 C 
BRANCH   8   6
ATOM      3  N   UNL     1      -3.700  -2.385  24.679  0.00  0.00    -0.280 N 
ATOM      6  C   UNL     1      -3.843  -1.602  24.899  0.00  0.00    +0.225 C 
ATOM      7  O   UNL     1      -3.682  -1.354  25.669  0.00  0.00    -0.275 OA
BRANCH   3   2
ATOM      1  C   UNL     1      -2.601  -3.142  25.192  0.00  0.00    +0.023 C 
ATOM      2  C   UNL     1      -3.395  -2.918  25.230  0.00  0.00    +0.093 C 
ENDBRANCH   3   2
BRANCH   3   4
ATOM      4  C   UNL     1      -3.861  -2.634  23.910  0.00  0.00    +0.093 C 
ATOM      5  C   UNL     1      -3.946  -3.437  23.745  0.00  0.00    +0.023 C 
ENDBRANCH   3   4
ENDBRANCH   8   6
ENDBRANCH  10   8
TORSDOF 7
ENDMDL
MODEL 5
REMARK VINA RESULT:      -8.0      1.091      6.239
REMARK  Name = 
REMARK  7 active torsions:
REMARK  status: ('A' for Active; 'I' for Inactive)
REMARK    1  A    between atoms: C_2  and  N_3
REMARK    2  A    between atoms: N_3  and  C_4
REMARK    3  A    between atoms: C_6  and  C_8
REMARK    4  A    between atoms: C_8  and  C_10
REMARK    5  A    between atoms: C_17  and  N_18
REMARK    6  A    between atoms: C_19  and  C_21
REMARK    7  A    between atoms: C_24  and  C_27
REMARK                            x       y       z     vdW  Elec       q    Type
REMARK                         _______ _______ _______ _____ _____    ______ ____
ROOT
ATOM     10  C   UNL     1       0.362   0.308  23.764  0.00  0.00    +0.039 C 
ATOM     11  C   UNL     1       0.206  -0.490  23.903  0.00  0.00    +0.003 C 
ATOM     12  C   UNL     1      -0.512  -0.717  24.239  0.00  0.00    +0.000 C 
ATOM     13  C   UNL     1      -1.074  -0.146  24.438  0.00  0.00    +0.002 C 
ATOM     14  C   UNL     1      -1.230  -0.945  24.576  0.00  0.00    +0.000 C 
ATOM     15  C   UNL     1      -1.791  -0.374  24.774  0.00  0.00    +0.002 C 
ATOM     16  C   UNL     1      -2.354   0.197  24.973  0.00  0.00    +0.022 C 
ATOM     17  C   UNL     1      -2.198   0.995  24.834  0.00  0.00    +0.096 C 
ATOM     29  C   UNL     1      -1.479   1.223  24.497  0.00  0.00    +0.022 C 
ATOM     30  C   UNL     1      -1.323   2.020  24.359  0.00  0.00    +0.002 C 
ATOM     31  C   UNL     1      -0.918   0.652  24.299  0.00  0.00    +0.032 C 
ATOM     32  C   UNL     1      -0.199   0.879  23.962  0.00  0.00    +0.152 C 
ATOM     33  O   UNL     1      -0.043   1.677  23.824  0.00  0.00    -0.223 OA
ENDROOT
BRANCH  17  18
ATOM     18  N   UNL     1      -2.759   1.566  25.032  0.00  0.00    -0.203 NA
ATOM     19  C   UNL     1      -3.540   1.481  24.779  0.00  0.00    +0.265 C 
ATOM     20  O   UNL     1      -3.759   0.825  24.329  0.00  0.00    -0.268 OA
BRANCH  19  21
ATOM     21  C   UNL     1      -4.101   2.052  24.977  0.00  0.00    +0.055 A 
ATOM     22  C   UNL     1      -4.804   1.828  25.346  0.00  0.00    +0.005 A 
ATOM     23  C   UNL     1      -5.366   2.399  25.545  0.00  0.00    +0.010 A 
ATOM     24  C   UNL     1      -5.225   3.193  25.374  0.00  0.00    +0.068 A 
ATOM     25  C   UNL     1      -4.522   3.417  25.005  0.00  0.00    +0.010 A 
ATOM     26  C   UNL     1      -3.960   2.846  24.807  0.00  0.00    +0.005 A 
BRANCH  24  27
ATOM     27  C   UNL     1      -5.787   3.764  25.573  0.00  0.00    +0.100 C 
ATOM     28  N   UNL     1      -6.349   4.334  25.771  0.00  0.00    -0.191 NA
ENDBRANCH  24  27
ENDBRANCH  19  21
ENDBRANCH  17  18
BRANCH  10   8
ATOM      8  C   UNL     1       1.081   0.536  23.427  0.00  0.00    +0.079 C 
ATOM      9  C   UNL     1       1.510   1.159  23.754  0.00  0.00    +0.010 C 
BRANCH   8   6
ATOM      3  N   UNL     1       2.177   0.139  22.601  0.00  0.00    -0.280 N 
ATOM      6  C   UNL     1       1.368   0.140  22.763  0.00  0.00    +0.225 C 
ATOM      7  O   UNL     1       0.846  -0.255  22.260  0.00  0.00    -0.275 OA
BRANCH   3   2
ATOM      1  C   UNL     1       3.055   0.089  21.475  0.00  0.00    +0.023 C 
ATOM      2  C   UNL     1       2.464  -0.257  21.937  0.00  0.00    +0.093 C 
ENDBRANCH   3   2
BRANCH   3   4
ATOM      4  C   UNL     1       2.698   0.534  23.104  0.00  0.00    +0.093 C 
ATOM      5  C   UNL     1       3.511   0.408  23.037  0.00  0.00    +0.023 C 
ENDBRANCH   3   4
ENDBRANCH   8   6
ENDBRANCH  10   8
TORSDOF 7
ENDMDL
MODEL 6
REMARK VINA RESULT:      -7.3      2.679      4.646
REMARK  Name = 
REMARK  7 active torsions:
REMARK  status: ('A' for Active; 'I' for Inactive)
REMARK    1  A    between atoms: C_2  and  N_3
REMARK    2  A    between atoms: N_3  and  C_4
REMARK    3  A    between atoms: C_6  and  C_8
REMARK    4  A    between atoms: C_8  and  C_10
REMARK    5  A    between atoms: C_17  and  N_18
REMARK    6  A    between atoms: C_19  and  C_21
REMARK    7  A    between atoms: C_24  and  C_27
REMARK                            x       y       z     vdW  Elec       q    Type
REMARK                         _______ _______ _______ _____ _____    ______ ____
ROOT
ATOM     10  C   UNL     1      -2.179  -1.247  25.060  0.00  0.00    +0.039 C 
ATOM     11  C   UNL     1      -1.409  -1.527  24.967  0.00  0.00    +0.003 C 
ATOM     12  C   UNL     1      -0.790  -0.997  24.842  0.00  0.00    +0.000 C 
ATOM     13  C   UNL     1      -0.941  -0.186  24.808  0.00  0.00    +0.002 C 
ATOM     14  C   UNL     1      -0.171  -0.466  24.715  0.00  0.00    +0.000 C 
ATOM     15  C   UNL     1      -0.323   0.344  24.682  0.00  0.00    +0.002 C 
ATOM     16  C   UNL     1      -0.473   1.155  24.649  0.00  0.00    +0.022 C 
ATOM     17  C   UNL     1      -1.244   1.434  24.741  0.00  0.00    +0.096 C 
ATOM     29  C   UNL     1      -1.864   0.904  24.867  0.00  0.00    +0.022 C 
ATOM     30  C   UNL     1      -2.633   1.183  24.960  0.00  0.00    +0.002 C 
ATOM     31  C   UNL     1      -1.712   0.094  24.901  0.00  0.00    +0.032 C 
ATOM     32  C   UNL     1      -2.331  -0.437  25.027  0.00  0.00    +0.152 C 
ATOM     33  O   UNL     1      -3.101  -0.158  25.119  0.00  0.00    -0.223 OA
ENDROOT
BRANCH  17  18
ATOM     18  N   UNL     1      -1.396   2.244  24.708  0.00  0.00    -0.203 NA
ATOM     19  C   UNL     1      -0.949   2.767  25.165  0.00  0.00    +0.265 C 
ATOM     20  O   UNL     1      -0.350   2.479  25.654  0.00  0.00    -0.268 OA
BRANCH  19  21
ATOM     21  C   UNL     1      -1.101   3.577  25.132  0.00  0.00    +0.055 A 
ATOM     22  C   UNL     1      -1.776   3.884  25.493  0.00  0.00    +0.005 A 
ATOM     23  C   UNL     1      -1.929   4.695  25.460  0.00  0.00    +0.010 A 
ATOM     24  C   UNL     1      -1.407   5.196  25.066  0.00  0.00    +0.068 A 
ATOM     25  C   UNL     1      -0.731   4.889  24.705  0.00  0.00    +0.010 A 
ATOM     26  C   UNL     1      -0.579   4.079  24.738  0.00  0.00    +0.005 A 
BRANCH  24  27
ATOM     27  C   UNL     1      -1.560   6.007  25.033  0.00  0.00    +0.100 C 
ATOM     28  N   UNL     1      -1.712   6.817  25.000  0.00  0.00    -0.191 NA
ENDBRANCH  24  27
ENDBRANCH  19  21
ENDBRANCH  17  18
BRANCH  10   8
ATOM      8  C   UNL     1      -2.799  -1.778  25.186  0.00  0.00    +0.079 C 
ATOM      9  C   UNL     1      -3.378  -1.610  25.748  0.00  0.00    +0.010 C 
BRANCH   8   6
ATOM      3  N   UNL     1      -3.496  -2.631  24.276  0.00  0.00    -0.280 N 
ATOM      6  C   UNL     1      -2.838  -2.477  24.750  0.00  0.00    +0.225 C 
ATOM      7  O   UNL     1      -2.220  -3.022  24.786  0.00  0.00    -0.275 OA
BRANCH   3   2
ATOM      1  C   UNL     1      -4.220  -3.790  23.859  0.00  0.00    +0.023 C 
ATOM      2  C   UNL     1      -3.535  -3.329  23.839  0.00  0.00    +0.093 C 
ENDBRANCH   3   2
BRANCH   3   4
ATOM      4  C   UNL     1      -4.114  -2.086  24.239  0.00  0.00    +0.093 C 
ATOM      5  C   UNL     1      -4.651  -2.113  23.614  0.00  0.00    +0.023 C 
ENDBRANCH   3   4
ENDBRANCH   8   6
ENDBRANCH  10   8
TORSDOF 7
ENDMDL
MODEL 7
REMARK VINA RESULT:      -6.9      2.972      4.702
REMARK  Name = 
REMARK  7 active torsions:
REMARK  status: ('A' for Active; 'I' for Inactive)
REMARK    1  A    between atoms: C_2  and  N_3
REMARK    2  A    between atoms: N_3  and  C_4
REMARK    3  A    between atoms: C_6  and  C_8
REMARK    4  A    between atoms: C_8  and  C_10
REMARK    5  A    between atoms: C_17  and  N_18
REMARK    6  A    between atoms: C_19  and  C_21
REMARK    7  A    between atoms: C_24  and  C_27
REMARK                            x       y       z     vdW  Elec       q    Type
REMARK                         _______ _______ _______ _____ _____    ______ ____
ROOT
ATOM     10  C   UNL     1      -1.281   2.969  25.609  0.00  0.00    +0.039 C 
ATOM     11  C   UNL     1      -0.625   2.714  26.039  0.00  0.00    +0.003 C 
ATOM     12  C   UNL     1      -0.457   1.909  26.095  0.00  0.00    +0.000 C 
ATOM     13  C   UNL     1      -0.944   1.357  25.721  0.00  0.00    +0.002 C 
ATOM     14  C   UNL     1      -0.288   1.102  26.151  0.00  0.00    +0.000 C 
ATOM     15  C   UNL     1      -0.775   0.552  25.776  0.00  0.00    +0.002 C 
ATOM     16  C   UNL     1      -1.262   0.001  25.402  0.00  0.00    +0.022 C 
ATOM     17  C   UNL     1      -1.918   0.257  24.972  0.00  0.00    +0.096 C 
ATOM     29  C   UNL     1      -2.087   1.063  24.916  0.00  0.00    +0.022 C 
ATOM     30  C   UNL     1      -2.743   1.318  24.486  0.00  0.00    +0.002 C 
ATOM     31  C   UNL     1      -1.600   1.613  25.290  0.00  0.00    +0.032 C 
ATOM     32  C   UNL     1      -1.769   2.419  25.235  0.00  0.00    +0.152 C 
ATOM     33  O   UNL     1      -2.424   2.674  24.805  0.00  0.00    -0.223 OA
ENDROOT
BRANCH  17  18
ATOM     18  N   UNL     1      -2.406  -0.293  24.597  0.00  0.00    -0.203 NA
ATOM     19  C   UNL     1      -2.706  -0.935  25.022  0.00  0.00    +0.265 C 
ATOM     20  O   UNL     1      -2.519  -1.025  25.820  0.00  0.00    -0.268 OA
BRANCH  19  21
ATOM     21  C   UNL     1      -3.194  -1.484  24.647  0.00  0.00    +0.055 A 
ATOM     22  C   UNL     1      -3.864  -1.229  24.240  0.00  0.00    +0.005 A 
ATOM     23  C   UNL     1      -4.353  -1.779  23.865  0.00  0.00    +0.010 A 
ATOM     24  C   UNL     1      -4.170  -2.582  23.897  0.00  0.00    +0.068 A 
ATOM     25  C   UNL     1      -3.499  -2.837  24.305  0.00  0.00    +0.010 A 
ATOM     26  C   UNL     1      -3.011  -2.287  24.680  0.00  0.00    +0.005 A 
BRANCH  24  27
ATOM     27  C   UNL     1      -4.659  -3.132  23.522  0.00  0.00    +0.100 C 
ATOM     28  N   UNL     1      -5.146  -3.681  23.148  0.00  0.00    -0.191 NA
ENDBRANCH  24  27
ENDBRANCH  19  21
ENDBRANCH  17  18
BRANCH  10   8
ATOM      8  C   UNL     1      -1.450   3.775  25.553  0.00  0.00    +0.079 C 
ATOM      9  C   UNL     1      -2.142   4.075  25.885  0.00  0.00    +0.010 C 
BRANCH   8   6
ATOM      3  N   UNL     1      -1.151   5.056  24.995  0.00  0.00    -0.280 N 
ATOM      6  C   UNL     1      -0.926   4.280  25.165  0.00  0.00    +0.225 C 
ATOM      7  O   UNL     1      -0.178   4.009  24.946  0.00  0.00    -0.275 OA
BRANCH   3   2
ATOM      1  C   UNL     1      -0.628   5.601  23.781  0.00  0.00    +0.023 C 
ATOM      2  C   UNL     1      -0.627   5.560  24.606  0.00  0.00    +0.093 C 
ENDBRANCH   3   2
BRANCH   3   4
ATOM      4  C   UNL     1      -1.898   5.326  25.213  0.00  0.00    +0.093 C 
ATOM      5  C   UNL     1      -2.097   6.119  25.108  0.00  0.00    +0.023 C 
ENDBRANCH   3   4
ENDBRANCH   8   6
ENDBRANCH  10   8
TORSDOF 7
ENDMDL
MODEL 8
REMARK VINA RESULT:      -6.8      1.969      2.916
REMARK  Name = 
REMARK  7 active torsions:
REMARK  status: ('A' for Active; 'I' for Inactive)
REMARK    1  A    between atoms: C_2  and  N_3
REMARK    2  A    between atoms: N_3  and  C_4
REMARK    3  A    between atoms: C_6  and  C_8
REMARK    4  A    between atoms: C_8  and  C_10
REMARK    5  A    between atoms: C_17  and  N_18
REMARK    6  A    between atoms: C_19  and  C_21
REMARK    7  A    between atoms: C_24  and  C_27
REMARK                            x       y       z     vdW  Elec       q    Type
REMARK                         _______ _______ _______ _____ _____    ______ ____
ROOT
ATOM     10  C   UNL     1      -2.731  -0.179  24.685  0.00  0.00    +0.039 C 
ATOM     11  C   UNL     1      -3.088   0.505  24.394  0.00  0.00    +0.003 C 
ATOM     12  C   UNL     1      -2.627   1.096  24.050  0.00  0.00    +0.000 C 
ATOM     13  C   UNL     1      -1.809   1.003  23.996  0.00  0.00    +0.002 C 
ATOM     14  C   UNL     1      -2.166   1.687  23.705  0.00  0.00    +0.000 C 
ATOM     15  C   UNL     1      -1.348   1.593  23.652  0.00  0.00    +0.002 C 
ATOM     16  C   UNL     1      -0.530   1.501  23.598  0.00  0.00    +0.022 C 
ATOM     17  C   UNL     1      -0.173   0.816  23.889  0.00  0.00    +0.096 C 
ATOM     29  C   UNL     1      -0.634   0.224  24.234  0.00  0.00    +0.022 C 
ATOM     30  C   UNL     1      -0.278  -0.459  24.524  0.00  0.00    +0.002 C 
ATOM     31  C   UNL     1      -1.452   0.318  24.287  0.00  0.00    +0.032 C 
ATOM     32  C   UNL     1      -1.913  -0.273  24.632  0.00  0.00    +0.152 C 
ATOM     33  O   UNL     1      -1.557  -0.957  24.922  0.00  0.00    -0.223 OA
ENDROOT
BRANCH  17  18
ATOM     18  N   UNL     1       0.645   0.722  23.836  0.00  0.00    -0.203 NA
ATOM     19  C   UNL     1       1.004   0.652  23.096  0.00  0.00    +0.265 C 
ATOM     20  O   UNL     1       0.546   0.675  22.410  0.00  0.00    -0.268 OA
BRANCH  19  21
ATOM     21  C   UNL     1       1.822   0.558  23.043  0.00  0.00    +0.055 A 
ATOM     22  C   UNL     1       2.138  -0.164  22.801  0.00  0.00    +0.005 A 
ATOM     23  C   UNL     1       2.957  -0.259  22.747  0.00  0.00    +0.010 A 
ATOM     24  C   UNL     1       3.457   0.368  22.936  0.00  0.00    +0.068 A 
ATOM     25  C   UNL     1       3.140   1.091  23.178  0.00  0.00    +0.010 A 
ATOM     26  C   UNL     1       2.323   1.185  23.231  0.00  0.00    +0.005 A 
BRANCH  24  27
ATOM     27  C   UNL     1       4.276   0.274  22.882  0.00  0.00    +0.100 C 
ATOM     28  N   UNL     1       5.093   0.179  22.829  0.00  0.00    -0.191 NA
ENDBRANCH  24  27
ENDBRANCH  19  21
ENDBRANCH  17  18
BRANCH  10   8
ATOM      8  C   UNL     1      -3.192  -0.771  25.030  0.00  0.00    +0.079 C 
ATOM      9  C   UNL     1      -3.032  -1.024  25.797  0.00  0.00    +0.010 C 
BRANCH   8   6
ATOM      3  N   UNL     1      -3.881  -1.930  24.556  0.00  0.00    -0.280 N 
ATOM      6  C   UNL     1      -3.813  -1.109  24.605  0.00  0.00    +0.225 C 
ATOM      7  O   UNL     1      -4.367  -0.626  24.230  0.00  0.00    -0.275 OA
BRANCH   3   2
ATOM      1  C   UNL     1      -4.346  -2.699  23.445  0.00  0.00    +0.023 C 
ATOM      2  C   UNL     1      -4.502  -2.268  24.131  0.00  0.00    +0.093 C 
ENDBRANCH   3   2
BRANCH   3   4
ATOM      4  C   UNL     1      -3.327  -2.412  24.931  0.00  0.00    +0.093 C 
ATOM      5  C   UNL     1      -3.460  -3.224  24.991  0.00  0.00    +0.023 C 
ENDBRANCH   3   4
ENDBRANCH   8   6
ENDBRANCH  10   8
TORSDOF 7
ENDMDL
