MODEL 1
REMARK VINA RESULT:      -8.8      0.000      0.000
REMARK  Name = 
REMARK  7 active torsions:
REMARK  status: ('A' for Active; 'I' for Inactive)
REMARK    1  A    between atoms: N_2  and  C_4
REMARK    2  A    between atoms: C_7  and  C_8
REMARK    3  A    between atoms: C_8  and  N_9
REMARK    4  A    between atoms: N_9  and  C_10
REMARK    5  A    between atoms: C_10  and  C_11
REMARK    6  A    between atoms: C_18  and  C_19
REMARK    7  A    between atoms: C_21  and  C_25
REMARK                            x       y       z     vdW  Elec       q    Type
REMARK                         _______ _______ _______ _____ _____    ______ ____
ROOT
ATOM     11  C   UNL     1       0.236   0.180  23.376  0.00  0.00    +0.075 C 
ATOM     12  C   UNL     1      -0.168  -0.006  24.014  0.00  0.00    +0.018 C 
ATOM     13  C   UNL     1      -0.816   0.391  24.294  0.00  0.00    +0.010 C 
ATOM     14  C   UNL     1      -1.139   0.017  25.043  0.00  0.00    +0.018 C 
ATOM     15  C   UNL     1      -0.731   0.077  24.536  0.00  0.00    +0.072 C 
ATOM     16  N   UNL     1      -0.424   0.580  23.668  0.00  0.00    -0.272 NA
ATOM     17  C   UNL     1      -0.873   1.316  23.371  0.00  0.00    +0.078 C 
ATOM     18  C   UNL     1      -1.243   1.100  24.003  0.00  0.00    +0.056 C 
ENDROOT
BRANCH  18  19
ATOM     19  C   UNL     1      -1.906   1.458  24.341  0.00  0.00    +0.058 A 
ATOM     20  C   UNL     1      -2.672   1.155  24.341  0.00  0.00    +0.036 A 
ATOM     21  C   UNL     1      -3.158   1.691  24.737  0.00  0.00    +0.108 A 
ATOM     22  N   UNL     1      -2.691   2.325  24.983  0.00  0.00    -0.169 NA
ATOM     23  N   UNL     1      -1.916   2.181  24.737  0.00  0.00    -0.253 N 
ATOM     24  C   UNL     1      -1.266   2.673  24.866  0.00  0.00    +0.153 C 
BRANCH  21  25
ATOM     25  C   UNL     1      -3.968   1.608  24.867  0.00  0.00    +0.049 A 
ATOM     26  C   UNL     1      -4.368   0.898  24.999  0.00  0.00    +0.009 A 
ATOM     27  C   UNL     1      -5.169   1.072  25.101  0.00  0.00    +0.008 A 
ATOM     28  C   UNL     1      -5.263   1.888  25.032  0.00  0.00    +0.035 A 
ATOM     29  S   UNL     1      -4.522   2.220  24.887  0.00  0.00    -0.085 S 
ENDBRANCH  21  25
ENDBRANCH  18  19
BRANCH  11  10
ATOM     10  C   UNL     1       0.847   0.068  22.833  0.00  0.00    +0.105 C 
BRANCH  10   9
ATOM      9  N   UNL     1       1.632   0.087  23.085  0.00  0.00    -0.212 NA
BRANCH   9   8
ATOM      8  C   UNL     1       2.243   0.082  22.531  0.00  0.00    +0.115 C 
BRANCH   8   7
ATOM      4  C   UNL     1       4.599   0.144  23.287  0.00  0.00    +0.048 A 
ATOM      5  C   UNL     1       4.151  -0.541  23.389  0.00  0.00    +0.014 A 
ATOM      6  C   UNL     1       3.366  -0.562  23.137  0.00  0.00    -0.002 A 
ATOM      7  C   UNL     1       3.028   0.103  22.783  0.00  0.00    -0.005 A 
ATOM     30  C   UNL     1       3.476   0.788  22.681  0.00  0.00    -0.002 A 
ATOM     31  C   UNL     1       4.262   0.808  22.933  0.00  0.00    +0.014 A 
BRANCH   4   2
ATOM      1  C   UNL     1       5.578   0.534  24.251  0.00  0.00    +0.112 C 
ATOM      2  N   UNL     1       5.384   0.164  23.539  0.00  0.00    -0.304 N 
ATOM      3  C   UNL     1       5.974  -0.184  23.081  0.00  0.00    +0.112 C 
ENDBRANCH   4   2
ENDBRANCH   8   7
ENDBRANCH   9   8
ENDBRANCH  10   9
ENDBRANCH  11  10
TORSDOF 7
ENDMDL
MODEL 2
REMARK VINA RESULT:      -8.3      1.942      7.038
REMARK  Name = 
REMARK  7 active torsions:
REMARK  status: ('A' for Active; 'I' for Inactive)
REMARK    1  A    between atoms: N_2  and  C_4
REMARK    2  A    between atoms: C_7  and  C_8
REMARK    3  A    between atoms: C_8  and  N_9
REMARK    4  A    between atoms: N_9  and  C_10
REMARK    5  A    between atoms: C_10  and  C_11
REMARK    6  A    between atoms: C_18  and  C_19
REMARK    7  A    between atoms: C_21  and  C_25
REMARK                            x       y       z     vdW  Elec       q    Type
REMARK                         _______ _______ _______ _____ _____    ______ ____
ROOT
ATOM     11  C   UNL     1      -0.925   0.297  24.119  0.00  0.00    +0.075 C 
ATOM     12  C   UNL     1      -0.368   0.840  24.091  0.00  0.00    +0.018 C 
ATOM     13  C   UNL     1       0.355   0.756  23.736  0.00  0.00    +0.010 C 
ATOM     14  C   UNL     1       0.853   1.497  23.813  0.00  0.00    +0.018 C 
ATOM     15  C   UNL     1       0.323   1.125  23.899  0.00  0.00    +0.072 C 
ATOM     16  N   UNL     1      -0.186   0.219  23.760  0.00  0.00    -0.272 NA
ATOM     17  C   UNL     1       0.203  -0.472  23.309  0.00  0.00    +0.078 C 
ATOM     18  C   UNL     1       0.723   0.087  23.303  0.00  0.00    +0.056 C 
ENDROOT
BRANCH  18  19
ATOM     19  C   UNL     1       1.474   0.066  22.961  0.00  0.00    +0.058 A 
ATOM     20  C   UNL     1       2.184   0.239  23.342  0.00  0.00    +0.036 A 
ATOM     21  C   UNL     1       2.795   0.149  22.796  0.00  0.00    +0.108 A 
ATOM     22  N   UNL     1       2.462  -0.079  22.076  0.00  0.00    -0.169 NA
ATOM     23  N   UNL     1       1.645  -0.130  22.179  0.00  0.00    -0.253 N 
ATOM     24  C   UNL     1       1.096  -0.341  21.600  0.00  0.00    +0.153 C 
BRANCH  21  25
ATOM     25  C   UNL     1       3.598   0.267  22.942  0.00  0.00    +0.049 A 
ATOM     26  C   UNL     1       4.091  -0.234  23.376  0.00  0.00    +0.009 A 
ATOM     27  C   UNL     1       4.848   0.095  23.382  0.00  0.00    +0.008 A 
ATOM     28  C   UNL     1       4.823   0.799  22.952  0.00  0.00    +0.035 A 
ATOM     29  S   UNL     1       4.052   0.905  22.680  0.00  0.00    -0.085 S 
ENDBRANCH  21  25
ENDBRANCH  18  19
BRANCH  11  10
ATOM     10  C   UNL     1      -1.670   0.018  24.338  0.00  0.00    +0.105 C 
BRANCH  10   9
ATOM      9  N   UNL     1      -2.303   0.542  24.404  0.00  0.00    -0.212 NA
BRANCH   9   8
ATOM      8  C   UNL     1      -3.076   0.268  24.312  0.00  0.00    +0.115 C 
BRANCH   8   7
ATOM      4  C   UNL     1      -4.983   1.703  24.964  0.00  0.00    +0.048 A 
ATOM      5  C   UNL     1      -4.902   0.951  25.294  0.00  0.00    +0.014 A 
ATOM      6  C   UNL     1      -4.266   0.473  25.077  0.00  0.00    -0.002 A 
ATOM      7  C   UNL     1      -3.712   0.746  24.529  0.00  0.00    -0.005 A 
ATOM     30  C   UNL     1      -3.794   1.498  24.200  0.00  0.00    -0.002 A 
ATOM     31  C   UNL     1      -4.430   1.976  24.417  0.00  0.00    +0.014 A 
BRANCH   4   2
ATOM      1  C   UNL     1      -5.482   2.906  25.551  0.00  0.00    +0.112 C 
ATOM      2  N   UNL     1      -5.620   2.181  25.182  0.00  0.00    -0.304 N 
ATOM      3  C   UNL     1      -6.392   1.936  25.030  0.00  0.00    +0.112 C 
ENDBRANCH   4   2
ENDBRANCH   8   7
ENDBRANCH   9   8
ENDBRANCH  10   9
ENDBRANCH  11  10
TORSDOF 7
ENDMDL
MODEL 3
REMARK VINA RESULT:      -8.0      4.354      5.837
REMARK  Name = 
REMARK  7 active torsions:
REMARK  status: ('A' for Active; 'I' for Inactive)
REMARK    1  A    between atoms: N_2  and  C_4
REMARK    2  A    between atoms: C_7  and  C_8
REMARK    3  A    between atoms: C_8  and  N_9
REMARK    4  A    between atoms: N_9  and  C_10
REMARK    5  A    between atoms: C_10  and  C_11
REMARK    6  A    between atoms: C_18  and  C_19
REMARK    7  A    between atoms: C_21  and  C_25
REMARK                            x       y       z     vdW  Elec       q    Type
REMARK                         _______ _______ _______ _____ _____    ______ ____
ROOT
ATOM     11  C   UNL     1      -4.749   1.486  24.703  0.00  0.00    +0.075 C 
ATOM     12  C   UNL     1      -4.630   2.143  24.304  0.00  0.00    +0.018 C 
ATOM     13  C   UNL     1      -4.134   2.745  24.522  0.00  0.00    +0.010 C 
ATOM     14  C   UNL     1      -4.139   3.415  23.926  0.00  0.00    +0.018 C 
ATOM     15  C   UNL     1      -4.314   2.835  24.171  0.00  0.00    +0.072 C 
ATOM     16  N   UNL     1      -4.245   2.104  24.919  0.00  0.00    -0.272 NA
ATOM     17  C   UNL     1      -3.698   2.221  25.640  0.00  0.00    +0.078 C 
ATOM     18  C   UNL     1      -3.610   2.852  25.218  0.00  0.00    +0.056 C 
ENDROOT
BRANCH  18  19
ATOM     19  C   UNL     1      -3.124   3.498  25.382  0.00  0.00    +0.058 A 
ATOM     20  C   UNL     1      -2.452   3.718  24.959  0.00  0.00    +0.036 A 
ATOM     21  C   UNL     1      -2.137   4.393  25.313  0.00  0.00    +0.108 A 
ATOM     22  N   UNL     1      -2.614   4.590  25.956  0.00  0.00    -0.169 NA
ATOM     23  N   UNL     1      -3.225   4.036  25.999  0.00  0.00    -0.253 N 
ATOM     24  C   UNL     1      -3.830   4.023  26.560  0.00  0.00    +0.153 C 
BRANCH  21  25
ATOM     25  C   UNL     1      -1.463   4.800  25.068  0.00  0.00    +0.049 A 
ATOM     26  C   UNL     1      -1.404   5.616  24.953  0.00  0.00    +0.009 A 
ATOM     27  C   UNL     1      -0.633   5.784  24.709  0.00  0.00    +0.008 A 
ATOM     28  C   UNL     1      -0.217   5.073  24.673  0.00  0.00    +0.035 A 
ATOM     29  S   UNL     1      -0.728   4.465  24.895  0.00  0.00    -0.085 S 
ENDBRANCH  21  25
ENDBRANCH  18  19
BRANCH  11  10
ATOM     10  C   UNL     1      -5.102   0.750  24.820  0.00  0.00    +0.105 C 
BRANCH  10   9
ATOM      9  N   UNL     1      -4.800   0.083  24.440  0.00  0.00    -0.212 NA
BRANCH   9   8
ATOM      8  C   UNL     1      -4.788  -0.644  24.830  0.00  0.00    +0.115 C 
BRANCH   8   7
ATOM      4  C   UNL     1      -2.889  -2.195  24.496  0.00  0.00    +0.048 A 
ATOM      5  C   UNL     1      -3.404  -2.033  23.872  0.00  0.00    +0.014 A 
ATOM      6  C   UNL     1      -4.037  -1.516  23.983  0.00  0.00    -0.002 A 
ATOM      7  C   UNL     1      -4.155  -1.161  24.719  0.00  0.00    -0.005 A 
ATOM     30  C   UNL     1      -3.640  -1.323  25.342  0.00  0.00    -0.002 A 
ATOM     31  C   UNL     1      -3.007  -1.840  25.231  0.00  0.00    +0.014 A 
BRANCH   4   2
ATOM      1  C   UNL     1      -1.490  -2.472  24.573  0.00  0.00    +0.112 C 
ATOM      2  N   UNL     1      -2.256  -2.712  24.384  0.00  0.00    -0.304 N 
ATOM      3  C   UNL     1      -2.389  -3.468  24.082  0.00  0.00    +0.112 C 
ENDBRANCH   4   2
ENDBRANCH   8   7
ENDBRANCH   9   8
ENDBRANCH  10   9
ENDBRANCH  11  10
TORSDOF 7
ENDMDL
MODEL 4
REMARK VINA RESULT:      -6.6      3.103      6.089
REMARK  Name = 
REMARK  7 active torsions:
REMARK  status: ('A' for Active; 'I' for Inactive)
REMARK    1  A    between atoms: N_2  and  C_4
REMARK    2  A    between atoms: C_7  and  C_8
REMARK    3  A    between atoms: C_8  and  N_9
REMARK    4  A    between atoms: N_9  and  C_10
REMARK    5  A    between atoms: C_10  and  C_11
REMARK    6  A    between atoms: C_18  and  C_19
REMARK    7  A    between atoms: C_21  and  C_25
REMARK                            x       y       z     vdW  Elec       q    Type
REMARK                         _______ _______ _______ _____ _____    ______ ____
ROOT
ATOM     11  C   UNL     1      -0.922   2.099  25.321  0.00  0.00    +0.075 C 
ATOM     12  C   UNL     1      -0.842   1.451  25.744  0.00  0.00    +0.018 C 
ATOM     13  C   UNL     1      -1.000   0.699  25.490  0.00  0.00    +0.010 C 
ATOM     14  C   UNL     1      -0.843   0.090  26.130  0.00  0.00    +0.018 C 
ATOM     15  C   UNL     1      -0.871   0.690  25.873  0.00  0.00    +0.072 C 
ATOM     16  N   UNL     1      -1.082   1.329  25.069  0.00  0.00    -0.272 NA
ATOM     17  C   UNL     1      -1.383   0.997  24.274  0.00  0.00    +0.078 C 
ATOM     18  C   UNL     1      -1.290   0.386  24.723  0.00  0.00    +0.056 C 
ENDROOT
BRANCH  18  19
ATOM     19  C   UNL     1      -1.433  -0.403  24.527  0.00  0.00    +0.058 A 
ATOM     20  C   UNL     1      -2.115  -0.831  24.706  0.00  0.00    +0.036 A 
ATOM     21  C   UNL     1      -2.022  -1.594  24.409  0.00  0.00    +0.108 A 
ATOM     22  N   UNL     1      -1.283  -1.639  24.046  0.00  0.00    -0.169 NA
ATOM     23  N   UNL     1      -0.918  -0.902  24.119  0.00  0.00    -0.253 N 
ATOM     24  C   UNL     1      -0.171  -0.699  23.834  0.00  0.00    +0.153 C 
BRANCH  21  25
ATOM     25  C   UNL     1      -2.572  -2.207  24.464  0.00  0.00    +0.049 A 
ATOM     26  C   UNL     1      -2.410  -2.985  24.687  0.00  0.00    +0.009 A 
ATOM     27  C   UNL     1      -3.118  -3.408  24.666  0.00  0.00    +0.008 A 
ATOM     28  C   UNL     1      -3.717  -2.892  24.431  0.00  0.00    +0.035 A 
ATOM     29  S   UNL     1      -3.380  -2.150  24.306  0.00  0.00    -0.085 S 
ENDBRANCH  21  25
ENDBRANCH  18  19
BRANCH  11  10
ATOM     10  C   UNL     1      -0.881   2.915  25.210  0.00  0.00    +0.105 C 
BRANCH  10   9
ATOM      9  N   UNL     1      -1.388   3.414  25.627  0.00  0.00    -0.212 NA
BRANCH   9   8
ATOM      8  C   UNL     1      -1.851   3.964  25.221  0.00  0.00    +0.115 C 
BRANCH   8   7
ATOM      4  C   UNL     1      -4.315   3.900  25.436  0.00  0.00    +0.048 A 
ATOM      5  C   UNL     1      -3.844   3.950  26.111  0.00  0.00    +0.014 A 
ATOM      6  C   UNL     1      -3.022   3.971  26.040  0.00  0.00    -0.002 A 
ATOM      7  C   UNL     1      -2.672   3.943  25.293  0.00  0.00    -0.005 A 
ATOM     30  C   UNL     1      -3.144   3.893  24.618  0.00  0.00    -0.002 A 
ATOM     31  C   UNL     1      -3.966   3.872  24.690  0.00  0.00    +0.014 A 
BRANCH   4   2
ATOM      1  C   UNL     1      -5.521   3.159  25.634  0.00  0.00    +0.112 C 
ATOM      2  N   UNL     1      -5.137   3.879  25.509  0.00  0.00    -0.304 N 
ATOM      3  C   UNL     1      -5.575   4.576  25.456  0.00  0.00    +0.112 C 
ENDBRANCH   4   2
ENDBRANCH   8   7
ENDBRANCH   9   8
ENDBRANCH  10   9
ENDBRANCH  11  10
TORSDOF 7
ENDMDL
MODEL 5
REMARK VINA RESULT:      -6.4     16.139     17.667
REMARK  Name = 
REMARK  7 active torsions:
REMARK  status: ('A' for Active; 'I' for Inactive)
REMARK    1  A    between atoms: N_2  and  C_4
REMARK    2  A    between atoms: C_7  and  C_8
REMARK    3  A    between atoms: C_8  and  N_9
REMARK    4  A    between atoms: N_9  and  C_10
REMARK    5  A    between atoms: C_10  and  C_11
REMARK    6  A    between atoms: C_18  and  C_19
REMARK    7  A    between atoms: C_21  and  C_25
REMARK                            x       y       z     vdW  Elec       q    Type
REMARK                         _______ _______ _______ _____ _____    ______ ____
ROOT
ATOM     11  C   UNL     1      16.668  -6.023  26.445  0.00  0.00    +0.075 C 
ATOM     12  C   UNL     1      16.095  -6.542  26.530  0.00  0.00    +0.018 C 
ATOM     13  C   UNL     1      15.785  -6.791  27.235  0.00  0.00    +0.010 C 
ATOM     14  C   UNL     1      15.131  -7.394  27.117  0.00  0.00    +0.018 C 
ATOM     15  C   UNL     1      15.598  -6.977  26.928  0.00  0.00    +0.072 C 
ATOM     16  N   UNL     1      16.347  -6.282  27.160  0.00  0.00    -0.272 NA
ATOM     17  C   UNL     1      16.535  -6.068  28.027  0.00  0.00    +0.078 C 
ATOM     18  C   UNL     1      15.971  -6.581  28.066  0.00  0.00    +0.056 C 
ENDROOT
BRANCH  18  19
ATOM     19  C   UNL     1      15.611  -6.876  28.748  0.00  0.00    +0.058 A 
ATOM     20  C   UNL     1      14.821  -6.776  28.961  0.00  0.00    +0.036 A 
ATOM     21  C   UNL     1      14.700  -7.161  29.680  0.00  0.00    +0.108 A 
ATOM     22  N   UNL     1      15.416  -7.498  29.913  0.00  0.00    -0.169 NA
ATOM     23  N   UNL     1      15.980  -7.322  29.336  0.00  0.00    -0.253 N 
ATOM     24  C   UNL     1      16.773  -7.551  29.346  0.00  0.00    +0.153 C 
BRANCH  21  25
ATOM     25  C   UNL     1      13.989  -7.201  30.096  0.00  0.00    +0.049 A 
ATOM     26  C   UNL     1      13.625  -7.891  30.368  0.00  0.00    +0.009 A 
ATOM     27  C   UNL     1      12.927  -7.675  30.753  0.00  0.00    +0.008 A 
ATOM     28  C   UNL     1      12.860  -6.854  30.718  0.00  0.00    +0.035 A 
ATOM     29  S   UNL     1      13.515  -6.561  30.312  0.00  0.00    -0.085 S 
ENDBRANCH  21  25
ENDBRANCH  18  19
BRANCH  11  10
ATOM     10  C   UNL     1      17.189  -5.569  25.995  0.00  0.00    +0.105 C 
BRANCH  10   9
ATOM      9  N   UNL     1      16.907  -5.126  25.359  0.00  0.00    -0.212 NA
BRANCH   9   8
ATOM      8  C   UNL     1      17.395  -4.569  24.995  0.00  0.00    +0.115 C 
BRANCH   8   7
ATOM      4  C   UNL     1      16.428  -2.902  23.443  0.00  0.00    +0.048 A 
ATOM      5  C   UNL     1      16.739  -3.608  23.149  0.00  0.00    +0.014 A 
ATOM      6  C   UNL     1      17.062  -4.163  23.666  0.00  0.00    -0.002 A 
ATOM      7  C   UNL     1      17.073  -4.013  24.478  0.00  0.00    -0.005 A 
ATOM     30  C   UNL     1      16.761  -3.308  24.771  0.00  0.00    -0.002 A 
ATOM     31  C   UNL     1      16.439  -2.753  24.254  0.00  0.00    +0.014 A 
BRANCH   4   2
ATOM      1  C   UNL     1      15.380  -2.497  22.560  0.00  0.00    +0.112 C 
ATOM      2  N   UNL     1      16.105  -2.347  22.924  0.00  0.00    -0.304 N 
ATOM      3  C   UNL     1      16.506  -1.644  22.771  0.00  0.00    +0.112 C 
ENDBRANCH   4   2
ENDBRANCH   8   7
ENDBRANCH   9   8
ENDBRANCH  10   9
ENDBRANCH  11  10
TORSDOF 7
ENDMDL
MODEL 6
REMARK VINA RESULT:      -6.4      2.042      7.012
REMARK  Name = 
REMARK  7 active torsions:
REMARK  status: ('A' for Active; 'I' for Inactive)
REMARK    1  A    between atoms: N_2  and  C_4
REMARK    2  A    between atoms: C_7  and  C_8
REMARK    3  A    between atoms: C_8  and  N_9
REMARK    4  A    between atoms: N_9  and  C_10
REMARK    5  A    between atoms: C_10  and  C_11
REMARK    6  A    between atoms: C_18  and  C_19
REMARK    7  A    between atoms: C_21  and  C_25
REMARK                            x       y       z     vdW  Elec       q    Type
REMARK                         _______ _______ _______ _____ _____    ______ ____
ROOT
ATOM     11  C   UNL     1      -1.392   3.057  24.882  0.00  0.00    +0.075 C 
ATOM     12  C   UNL     1      -0.705   2.797  25.139  0.00  0.00    +0.018 C 
ATOM     13  C   UNL     1      -0.281   2.188  24.816  0.00  0.00    +0.010 C 
ATOM     14  C   UNL     1       0.485   2.043  25.259  0.00  0.00    +0.018 C 
ATOM     15  C   UNL     1      -0.083   2.340  25.134  0.00  0.00    +0.072 C 
ATOM     16  N   UNL     1      -0.954   2.437  24.559  0.00  0.00    -0.272 NA
ATOM     17  C   UNL     1      -1.109   1.886  23.848  0.00  0.00    +0.078 C 
ATOM     18  C   UNL     1      -0.436   1.661  24.131  0.00  0.00    +0.056 C 
ENDROOT
BRANCH  18  19
ATOM     19  C   UNL     1       0.044   1.051  23.852  0.00  0.00    +0.058 A 
ATOM     20  C   UNL     1       0.755   1.142  23.443  0.00  0.00    +0.036 A 
ATOM     21  C   UNL     1       1.048   0.391  23.271  0.00  0.00    +0.108 A 
ATOM     22  N   UNL     1       0.518  -0.165  23.574  0.00  0.00    -0.169 NA
ATOM     23  N   UNL     1      -0.102   0.243  23.933  0.00  0.00    -0.253 N 
ATOM     24  C   UNL     1      -0.755  -0.096  24.308  0.00  0.00    +0.153 C 
BRANCH  21  25
ATOM     25  C   UNL     1       1.747   0.223  22.868  0.00  0.00    +0.049 A 
ATOM     26  C   UNL     1       1.807  -0.162  22.140  0.00  0.00    +0.009 A 
ATOM     27  C   UNL     1       2.607  -0.212  21.943  0.00  0.00    +0.008 A 
ATOM     28  C   UNL     1       3.041   0.142  22.549  0.00  0.00    +0.035 A 
ATOM     29  S   UNL     1       2.511   0.411  23.120  0.00  0.00    -0.085 S 
ENDBRANCH  21  25
ENDBRANCH  18  19
BRANCH  11  10
ATOM     10  C   UNL     1      -2.046   3.559  24.909  0.00  0.00    +0.105 C 
BRANCH  10   9
ATOM      9  N   UNL     1      -2.795   3.272  24.719  0.00  0.00    -0.212 NA
BRANCH   9   8
ATOM      8  C   UNL     1      -3.469   3.676  24.972  0.00  0.00    +0.115 C 
BRANCH   8   7
ATOM      4  C   UNL     1      -5.569   2.438  25.393  0.00  0.00    +0.048 A 
ATOM      5  C   UNL     1      -5.262   2.938  25.974  0.00  0.00    +0.014 A 
ATOM      6  C   UNL     1      -4.562   3.350  25.833  0.00  0.00    -0.002 A 
ATOM      7  C   UNL     1      -4.169   3.263  25.113  0.00  0.00    -0.005 A 
ATOM     30  C   UNL     1      -4.476   2.764  24.533  0.00  0.00    -0.002 A 
ATOM     31  C   UNL     1      -5.176   2.351  24.674  0.00  0.00    +0.014 A 
BRANCH   4   2
ATOM      1  C   UNL     1      -6.693   1.705  24.903  0.00  0.00    +0.112 C 
ATOM      2  N   UNL     1      -6.270   2.025  25.534  0.00  0.00    -0.304 N 
ATOM      3  C   UNL     1      -6.547   1.933  26.306  0.00  0.00    +0.112 C 
ENDBRANCH   4   2
ENDBRANCH   8   7
ENDBRANCH   9   8
ENDBRANCH  10   9
ENDBRANCH  11  10
TORSDOF 7
ENDMDL
MODEL 7
REMARK VINA RESULT:      -5.9     16.644     18.494
REMARK  Name = 
REMARK  7 active torsions:
REMARK  status: ('A' for Active; 'I' for Inactive)
REMARK    1  A    between atoms: N_2  and  C_4
REMARK    2  A    between atoms: C_7  and  C_8
REMARK    3  A    between atoms: C_8  and  N_9
REMARK    4  A    between atoms: N_9  and  C_10
REMARK    5  A    between atoms: C_10  and  C_11
REMARK    6  A    between atoms: C_18  and  C_19
REMARK    7  A    between atoms: C_21  and  C_25
REMARK                            x       y       z     vdW  Elec       q    Type
REMARK                         _______ _______ _______ _____ _____    ______ ____
ROOT
ATOM     11  C   UNL     1      16.732  -6.594  25.419  0.00  0.00    +0.075 C 
ATOM     12  C   UNL     1      16.267  -6.606  26.042  0.00  0.00    +0.018 C 
ATOM     13  C   UNL     1      15.997  -7.271  26.416  0.00  0.00    +0.010 C 
ATOM     14  C   UNL     1      15.472  -7.072  27.115  0.00  0.00    +0.018 C 
ATOM     15  C   UNL     1      15.854  -6.942  26.601  0.00  0.00    +0.072 C 
ATOM     16  N   UNL     1      16.453  -7.268  25.806  0.00  0.00    -0.272 NA
ATOM     17  C   UNL     1      16.582  -8.158  25.651  0.00  0.00    +0.078 C 
ATOM     18  C   UNL     1      16.125  -8.126  26.262  0.00  0.00    +0.056 C 
ENDROOT
BRANCH  18  19
ATOM     19  C   UNL     1      15.816  -8.762  26.688  0.00  0.00    +0.058 A 
ATOM     20  C   UNL     1      15.907  -8.893  27.497  0.00  0.00    +0.036 A 
ATOM     21  C   UNL     1      15.510  -9.589  27.689  0.00  0.00    +0.108 A 
ATOM     22  N   UNL     1      15.173  -9.890  26.998  0.00  0.00    -0.169 NA
ATOM     23  N   UNL     1      15.363  -9.378  26.379  0.00  0.00    -0.253 N 
ATOM     24  C   UNL     1      15.138  -9.466  25.590  0.00  0.00    +0.153 C 
BRANCH  21  25
ATOM     25  C   UNL     1      15.458  -9.928  28.439  0.00  0.00    +0.049 A 
ATOM     26  C   UNL     1      14.828  -9.843  28.966  0.00  0.00    +0.009 A 
ATOM     27  C   UNL     1      15.007 -10.274  29.648  0.00  0.00    +0.008 A 
ATOM     28  C   UNL     1      15.746 -10.623  29.542  0.00  0.00    +0.035 A 
ATOM     29  S   UNL     1      16.025 -10.410  28.796  0.00  0.00    -0.085 S 
ENDBRANCH  21  25
ENDBRANCH  18  19
BRANCH  11  10
ATOM     10  C   UNL     1      17.165  -6.210  24.831  0.00  0.00    +0.105 C 
BRANCH  10   9
ATOM      9  N   UNL     1      17.030  -5.412  24.673  0.00  0.00    -0.212 NA
BRANCH   9   8
ATOM      8  C   UNL     1      17.388  -5.054  24.022  0.00  0.00    +0.115 C 
BRANCH   8   7
ATOM      4  C   UNL     1      16.747  -2.755  23.368  0.00  0.00    +0.048 A 
ATOM      5  C   UNL     1      17.186  -2.881  24.055  0.00  0.00    +0.014 A 
ATOM      6  C   UNL     1      17.399  -3.647  24.273  0.00  0.00    -0.002 A 
ATOM      7  C   UNL     1      17.174  -4.288  23.804  0.00  0.00    -0.005 A 
ATOM     30  C   UNL     1      16.736  -4.161  23.117  0.00  0.00    -0.002 A 
ATOM     31  C   UNL     1      16.523  -3.395  22.899  0.00  0.00    +0.014 A 
BRANCH   4   2
ATOM      1  C   UNL     1      15.805  -1.851  22.788  0.00  0.00    +0.112 C 
ATOM      2  N   UNL     1      16.534  -1.988  23.150  0.00  0.00    -0.304 N 
ATOM      3  C   UNL     1      17.048  -1.360  23.294  0.00  0.00    +0.112 C 
ENDBRANCH   4   2
ENDBRANCH   8   7
ENDBRANCH   9   8
ENDBRANCH  10   9
ENDBRANCH  11  10
TORSDOF 7
ENDMDL
