MODEL 1
REMARK VINA RESULT:     -10.2      0.000      0.000
REMARK  Name = 
REMARK  7 active torsions:
REMARK  status: ('A' for Active; 'I' for Inactive)
REMARK    1  A    between atoms: S_2  and  C_5
REMARK    2  A    between atoms: C_8  and  C_9
REMARK    3  A    between atoms: C_9  and  N_10
REMARK    4  A    between atoms: N_10  and  C_11
REMARK    5  A    between atoms: C_14  and  C_15
REMARK    6  A    between atoms: C_15  and  N_16
REMARK    7  A    between atoms: C_17  and  C_19
REMARK                            x       y       z     vdW  Elec       q    Type
REMARK                         _______ _______ _______ _____ _____    ______ ____
ROOT
ATOM     11  C   UNL     1      -4.174   1.545  24.636  0.00  0.00    +0.135 C 
ATOM     12  C   UNL     1      -4.820   1.944  24.962  0.00  0.00    +0.162 C 
ATOM     13  O   UNL     1      -4.557   2.679  25.228  0.00  0.00    -0.350 OA
ATOM     14  C   UNL     1      -3.749   2.735  25.068  0.00  0.00    +0.169 C 
ATOM     26  C   UNL     1      -3.513   2.034  24.702  0.00  0.00    +0.199 C 
ATOM     27  O   UNL     1      -2.750   1.853  24.446  0.00  0.00    -0.219 OA
ENDROOT
BRANCH  11  10
ATOM     10  N   UNL     1      -4.189   0.790  24.304  0.00  0.00    -0.209 NA
BRANCH  10   9
ATOM      9  C   UNL     1      -4.524   0.162  24.722  0.00  0.00    +0.115 C 
BRANCH   9   8
ATOM      5  C   UNL     1      -3.613  -2.124  24.457  0.00  0.00    +0.106 A 
ATOM      6  C   UNL     1      -4.002  -1.760  23.828  0.00  0.00    +0.018 A 
ATOM      7  C   UNL     1      -4.306  -0.998  23.916  0.00  0.00    -0.002 A 
ATOM      8  C   UNL     1      -4.220  -0.600  24.634  0.00  0.00    -0.005 A 
ATOM     28  C   UNL     1      -3.831  -0.965  25.264  0.00  0.00    -0.002 A 
ATOM     29  C   UNL     1      -3.527  -1.727  25.176  0.00  0.00    +0.018 A 
BRANCH   5   2
ATOM      1  C   UNL     1      -3.006  -3.648  24.281  0.00  0.00    +0.182 C 
ATOM      2  S   UNL     1      -3.310  -2.886  24.369  0.00  0.00    +0.010 S 
ATOM      3  O   UNL     1      -4.074  -3.178  24.263  0.00  0.00    -0.169 OA
ATOM      4  O   UNL     1      -2.545  -2.594  24.475  0.00  0.00    -0.169 OA
ENDBRANCH   5   2
ENDBRANCH   9   8
ENDBRANCH  10   9
ENDBRANCH  11  10
BRANCH  14  15
ATOM     15  C   UNL     1      -3.263   3.378  25.242  0.00  0.00    +0.148 C 
BRANCH  15  16
ATOM     16  N   UNL     1      -3.402   3.829  25.919  0.00  0.00    -0.199 NA
ATOM     17  C   UNL     1      -2.865   4.414  26.141  0.00  0.00    +0.265 C 
ATOM     18  O   UNL     1      -3.003   4.865  26.819  0.00  0.00    -0.268 OA
BRANCH  17  19
ATOM     19  C   UNL     1      -2.189   4.548  25.688  0.00  0.00    +0.055 A 
ATOM     20  C   UNL     1      -2.186   5.147  25.120  0.00  0.00    +0.007 A 
ATOM     21  C   UNL     1      -1.510   5.282  24.667  0.00  0.00    +0.030 A 
ATOM     22  C   UNL     1      -0.837   4.818  24.781  0.00  0.00    +0.140 A 
ATOM     23  F   UNL     1      -0.161   4.953  24.327  0.00  0.00    -0.204 F 
ATOM     24  C   UNL     1      -0.840   4.220  25.348  0.00  0.00    +0.030 A 
ATOM     25  C   UNL     1      -1.516   4.084  25.802  0.00  0.00    +0.007 A 
ENDBRANCH  17  19
ENDBRANCH  15  16
ENDBRANCH  14  15
TORSDOF 7
ENDMDL
MODEL 2
REMARK VINA RESULT:      -9.6      4.588      6.398
REMARK  Name = 
REMARK  7 active torsions:
REMARK  status: ('A' for Active; 'I' for Inactive)
REMARK    1  A    between atoms: S_2  and  C_5
REMARK    2  A    between atoms: C_8  and  C_9
REMARK    3  A    between atoms: C_9  and  N_10
REMARK    4  A    between atoms: N_10  and  C_11
REMARK    5  A    between atoms: C_14  and  C_15
REMARK    6  A    between atoms: C_15  and  N_16
REMARK    7  A    between atoms: C_17  and  C_19
REMARK                            x       y       z     vdW  Elec       q    Type
REMARK                         _______ _______ _______ _____ _____    ______ ____
ROOT
ATOM     11  C   UNL     1      -0.312   0.329  23.951  0.00  0.00    +0.135 C 
ATOM     12  C   UNL     1      -0.763   1.007  23.813  0.00  0.00    +0.162 C 
ATOM     13  O   UNL     1      -1.545   0.838  24.016  0.00  0.00    -0.350 OA
ATOM     14  C   UNL     1      -1.577   0.057  24.279  0.00  0.00    +0.169 C 
ATOM     26  C   UNL     1      -0.815  -0.257  24.239  0.00  0.00    +0.199 C 
ATOM     27  O   UNL     1      -0.595  -1.024  24.450  0.00  0.00    -0.219 OA
ENDROOT
BRANCH  11  10
ATOM     10  N   UNL     1       0.499   0.253  23.823  0.00  0.00    -0.209 NA
BRANCH  10   9
ATOM      9  C   UNL     1       0.840   0.567  23.141  0.00  0.00    +0.115 C 
BRANCH   9   8
ATOM      5  C   UNL     1       3.292   0.453  22.819  0.00  0.00    +0.106 A 
ATOM      6  C   UNL     1       2.805  -0.122  22.483  0.00  0.00    +0.018 A 
ATOM      7  C   UNL     1       1.988  -0.083  22.590  0.00  0.00    -0.002 A 
ATOM      8  C   UNL     1       1.657   0.529  23.033  0.00  0.00    -0.005 A 
ATOM     28  C   UNL     1       2.145   1.104  23.370  0.00  0.00    -0.002 A 
ATOM     29  C   UNL     1       2.962   1.066  23.262  0.00  0.00    +0.018 A 
BRANCH   5   2
ATOM      1  C   UNL     1       4.926   0.376  22.604  0.00  0.00    +0.182 C 
ATOM      2  S   UNL     1       4.109   0.414  22.711  0.00  0.00    +0.010 S 
ATOM      3  O   UNL     1       4.164  -0.131  23.328  0.00  0.00    -0.169 OA
ATOM      4  O   UNL     1       4.053   0.960  22.095  0.00  0.00    -0.169 OA
ENDBRANCH   5   2
ENDBRANCH   9   8
ENDBRANCH  10   9
ENDBRANCH  11  10
BRANCH  14  15
ATOM     15  C   UNL     1      -2.252  -0.340  24.537  0.00  0.00    +0.148 C 
BRANCH  15  16
ATOM     16  N   UNL     1      -2.865   0.078  24.899  0.00  0.00    -0.199 NA
ATOM     17  C   UNL     1      -3.588  -0.292  25.041  0.00  0.00    +0.265 C 
ATOM     18  O   UNL     1      -4.201   0.127  25.403  0.00  0.00    -0.268 OA
BRANCH  17  19
ATOM     19  C   UNL     1      -3.700  -1.079  24.824  0.00  0.00    +0.055 A 
ATOM     20  C   UNL     1      -3.471  -1.685  25.336  0.00  0.00    +0.007 A 
ATOM     21  C   UNL     1      -3.583  -2.473  25.118  0.00  0.00    +0.030 A 
ATOM     22  C   UNL     1      -3.923  -2.655  24.389  0.00  0.00    +0.140 A 
ATOM     23  F   UNL     1      -4.034  -3.444  24.172  0.00  0.00    -0.204 F 
ATOM     24  C   UNL     1      -4.151  -2.050  23.877  0.00  0.00    +0.030 A 
ATOM     25  C   UNL     1      -4.040  -1.262  24.095  0.00  0.00    +0.007 A 
ENDBRANCH  17  19
ENDBRANCH  15  16
ENDBRANCH  14  15
TORSDOF 7
ENDMDL
MODEL 3
REMARK VINA RESULT:      -9.4      2.446      6.038
REMARK  Name = 
REMARK  7 active torsions:
REMARK  status: ('A' for Active; 'I' for Inactive)
REMARK    1  A    between atoms: S_2  and  C_5
REMARK    2  A    between atoms: C_8  and  C_9
REMARK    3  A    between atoms: C_9  and  N_10
REMARK    4  A    between atoms: N_10  and  C_11
REMARK    5  A    between atoms: C_14  and  C_15
REMARK    6  A    between atoms: C_15  and  N_16
REMARK    7  A    between atoms: C_17  and  C_19
REMARK                            x       y       z     vdW  Elec       q    Type
REMARK                         _______ _______ _______ _____ _____    ______ ____
ROOT
ATOM     11  C   UNL     1      -4.112   1.494  24.599  0.00  0.00    +0.135 C 
ATOM     12  C   UNL     1      -4.791   1.237  24.991  0.00  0.00    +0.162 C 
ATOM     13  O   UNL     1      -4.792   0.412  24.986  0.00  0.00    -0.350 OA
ATOM     14  C   UNL     1      -4.114   0.158  24.590  0.00  0.00    +0.169 C 
ATOM     26  C   UNL     1      -3.694   0.827  24.351  0.00  0.00    +0.199 C 
ATOM     27  O   UNL     1      -2.980   0.829  23.936  0.00  0.00    -0.219 OA
ENDROOT
BRANCH  11  10
ATOM     10  N   UNL     1      -3.890   2.279  24.475  0.00  0.00    -0.209 NA
BRANCH  10   9
ATOM      9  C   UNL     1      -3.768   2.778  25.121  0.00  0.00    +0.115 C 
BRANCH   9   8
ATOM      5  C   UNL     1      -1.952   4.459  25.055  0.00  0.00    +0.106 A 
ATOM      6  C   UNL     1      -2.481   4.399  24.426  0.00  0.00    +0.018 A 
ATOM      7  C   UNL     1      -3.086   3.839  24.448  0.00  0.00    -0.002 A 
ATOM      8  C   UNL     1      -3.163   3.339  25.099  0.00  0.00    -0.005 A 
ATOM     28  C   UNL     1      -2.633   3.399  25.729  0.00  0.00    -0.002 A 
ATOM     29  C   UNL     1      -2.028   3.959  25.708  0.00  0.00    +0.018 A 
BRANCH   5   2
ATOM      1  C   UNL     1      -0.742   5.580  25.012  0.00  0.00    +0.182 C 
ATOM      2  S   UNL     1      -1.347   5.020  25.033  0.00  0.00    +0.010 S 
ATOM      3  O   UNL     1      -0.826   4.446  24.750  0.00  0.00    -0.169 OA
ATOM      4  O   UNL     1      -1.868   5.593  25.317  0.00  0.00    -0.169 OA
ENDBRANCH   5   2
ENDBRANCH   9   8
ENDBRANCH  10   9
ENDBRANCH  11  10
BRANCH  14  15
ATOM     15  C   UNL     1      -3.895  -0.625  24.457  0.00  0.00    +0.148 C 
BRANCH  15  16
ATOM     16  N   UNL     1      -4.428  -1.150  24.108  0.00  0.00    -0.199 NA
ATOM     17  C   UNL     1      -4.235  -1.949  24.041  0.00  0.00    +0.265 C 
ATOM     18  O   UNL     1      -4.769  -2.474  23.692  0.00  0.00    -0.268 OA
BRANCH  17  19
ATOM     19  C   UNL     1      -3.510  -2.224  24.322  0.00  0.00    +0.055 A 
ATOM     20  C   UNL     1      -2.861  -2.267  23.814  0.00  0.00    +0.007 A 
ATOM     21  C   UNL     1      -2.136  -2.543  24.095  0.00  0.00    +0.030 A 
ATOM     22  C   UNL     1      -2.060  -2.775  24.882  0.00  0.00    +0.140 A 
ATOM     23  F   UNL     1      -1.334  -3.051  25.162  0.00  0.00    -0.204 F 
ATOM     24  C   UNL     1      -2.708  -2.733  25.390  0.00  0.00    +0.030 A 
ATOM     25  C   UNL     1      -3.434  -2.457  25.109  0.00  0.00    +0.007 A 
ENDBRANCH  17  19
ENDBRANCH  15  16
ENDBRANCH  14  15
TORSDOF 7
ENDMDL
MODEL 4
REMARK VINA RESULT:      -9.2      2.977      6.378
REMARK  Name = 
REMARK  7 active torsions:
REMARK  status: ('A' for Active; 'I' for Inactive)
REMARK    1  A    between atoms: S_2  and  C_5
REMARK    2  A    between atoms: C_8  and  C_9
REMARK    3  A    between atoms: C_9  and  N_10
REMARK    4  A    between atoms: N_10  and  C_11
REMARK    5  A    between atoms: C_14  and  C_15
REMARK    6  A    between atoms: C_15  and  N_16
REMARK    7  A    between atoms: C_17  and  C_19
REMARK                            x       y       z     vdW  Elec       q    Type
REMARK                         _______ _______ _______ _____ _____    ______ ____
ROOT
ATOM     11  C   UNL     1      -0.884   0.746  24.723  0.00  0.00    +0.135 C 
ATOM     12  C   UNL     1      -0.421   0.207  25.141  0.00  0.00    +0.162 C 
ATOM     13  O   UNL     1      -0.885  -0.455  25.305  0.00  0.00    -0.350 OA
ATOM     14  C   UNL     1      -1.636  -0.325  24.987  0.00  0.00    +0.169 C 
ATOM     26  C   UNL     1      -1.635   0.418  24.628  0.00  0.00    +0.199 C 
ATOM     27  O   UNL     1      -2.273   0.770  24.241  0.00  0.00    -0.219 OA
ENDROOT
BRANCH  11  10
ATOM     10  N   UNL     1      -0.640   1.485  24.448  0.00  0.00    -0.209 NA
BRANCH  10   9
ATOM      9  C   UNL     1      -0.277   2.017  24.963  0.00  0.00    +0.115 C 
BRANCH   9   8
ATOM      5  C   UNL     1      -0.970   4.393  24.978  0.00  0.00    +0.106 A 
ATOM      6  C   UNL     1      -0.640   4.064  24.298  0.00  0.00    +0.018 A 
ATOM      7  C   UNL     1      -0.409   3.272  24.293  0.00  0.00    -0.002 A 
ATOM      8  C   UNL     1      -0.508   2.809  24.968  0.00  0.00    -0.005 A 
ATOM     28  C   UNL     1      -0.838   3.138  25.650  0.00  0.00    -0.002 A 
ATOM     29  C   UNL     1      -1.069   3.930  25.655  0.00  0.00    +0.018 A 
BRANCH   5   2
ATOM      1  C   UNL     1      -1.432   5.977  24.988  0.00  0.00    +0.182 C 
ATOM      2  S   UNL     1      -1.201   5.185  24.983  0.00  0.00    +0.010 S 
ATOM      3  O   UNL     1      -0.484   5.396  24.633  0.00  0.00    -0.169 OA
ATOM      4  O   UNL     1      -1.917   4.974  25.334  0.00  0.00    -0.169 OA
ENDBRANCH   5   2
ENDBRANCH   9   8
ENDBRANCH  10   9
ENDBRANCH  11  10
BRANCH  14  15
ATOM     15  C   UNL     1      -2.274  -0.846  25.023  0.00  0.00    +0.148 C 
BRANCH  15  16
ATOM     16  N   UNL     1      -2.614  -1.033  25.752  0.00  0.00    -0.199 NA
ATOM     17  C   UNL     1      -3.259  -1.546  25.786  0.00  0.00    +0.265 C 
ATOM     18  O   UNL     1      -3.599  -1.733  26.514  0.00  0.00    -0.268 OA
BRANCH  17  19
ATOM     19  C   UNL     1      -3.565  -1.871  25.092  0.00  0.00    +0.055 A 
ATOM     20  C   UNL     1      -3.314  -2.616  24.841  0.00  0.00    +0.007 A 
ATOM     21  C   UNL     1      -3.620  -2.942  24.147  0.00  0.00    +0.030 A 
ATOM     22  C   UNL     1      -4.177  -2.524  23.706  0.00  0.00    +0.140 A 
ATOM     23  F   UNL     1      -4.483  -2.850  23.012  0.00  0.00    -0.204 F 
ATOM     24  C   UNL     1      -4.428  -1.779  23.957  0.00  0.00    +0.030 A 
ATOM     25  C   UNL     1      -4.122  -1.453  24.651  0.00  0.00    +0.007 A 
ENDBRANCH  17  19
ENDBRANCH  15  16
ENDBRANCH  14  15
TORSDOF 7
ENDMDL
MODEL 5
REMARK VINA RESULT:      -8.6      4.592      6.004
REMARK  Name = 
REMARK  7 active torsions:
REMARK  status: ('A' for Active; 'I' for Inactive)
REMARK    1  A    between atoms: S_2  and  C_5
REMARK    2  A    between atoms: C_8  and  C_9
REMARK    3  A    between atoms: C_9  and  N_10
REMARK    4  A    between atoms: N_10  and  C_11
REMARK    5  A    between atoms: C_14  and  C_15
REMARK    6  A    between atoms: C_15  and  N_16
REMARK    7  A    between atoms: C_17  and  C_19
REMARK                            x       y       z     vdW  Elec       q    Type
REMARK                         _______ _______ _______ _____ _____    ______ ____
ROOT
ATOM     11  C   UNL     1      -0.211   0.774  24.087  0.00  0.00    +0.135 C 
ATOM     12  C   UNL     1      -0.295  -0.035  23.944  0.00  0.00    +0.162 C 
ATOM     13  O   UNL     1       0.391  -0.301  23.570  0.00  0.00    -0.350 OA
ATOM     14  C   UNL     1       0.898   0.344  23.481  0.00  0.00    +0.169 C 
ATOM     26  C   UNL     1       0.526   1.008  23.800  0.00  0.00    +0.199 C 
ATOM     27  O   UNL     1       0.837   1.772  23.829  0.00  0.00    -0.219 OA
ENDROOT
BRANCH  11  10
ATOM     10  N   UNL     1      -0.767   1.262  24.451  0.00  0.00    -0.209 NA
BRANCH  10   9
ATOM      9  C   UNL     1      -1.545   1.003  24.544  0.00  0.00    +0.115 C 
BRANCH   9   8
ATOM      5  C   UNL     1      -3.359   2.645  24.918  0.00  0.00    +0.106 A 
ATOM      6  C   UNL     1      -2.680   2.668  25.384  0.00  0.00    +0.018 A 
ATOM      7  C   UNL     1      -2.075   2.120  25.260  0.00  0.00    -0.002 A 
ATOM      8  C   UNL     1      -2.150   1.550  24.669  0.00  0.00    -0.005 A 
ATOM     28  C   UNL     1      -2.830   1.528  24.201  0.00  0.00    -0.002 A 
ATOM     29  C   UNL     1      -3.435   2.075  24.326  0.00  0.00    +0.018 A 
BRANCH   5   2
ATOM      1  C   UNL     1      -4.568   3.740  25.167  0.00  0.00    +0.182 C 
ATOM      2  S   UNL     1      -3.963   3.192  25.042  0.00  0.00    +0.010 S 
ATOM      3  O   UNL     1      -4.389   2.626  25.464  0.00  0.00    -0.169 OA
ATOM      4  O   UNL     1      -3.537   3.759  24.620  0.00  0.00    -0.169 OA
ENDBRANCH   5   2
ENDBRANCH   9   8
ENDBRANCH  10   9
ENDBRANCH  11  10
BRANCH  14  15
ATOM     15  C   UNL     1       1.646   0.328  23.134  0.00  0.00    +0.148 C 
BRANCH  15  16
ATOM     16  N   UNL     1       1.734   0.082  22.351  0.00  0.00    -0.199 NA
ATOM     17  C   UNL     1       2.486   0.005  22.025  0.00  0.00    +0.265 C 
ATOM     18  O   UNL     1       2.574  -0.241  21.242  0.00  0.00    -0.268 OA
BRANCH  17  19
ATOM     19  C   UNL     1       3.153   0.174  22.480  0.00  0.00    +0.055 A 
ATOM     20  C   UNL     1       3.488  -0.413  22.954  0.00  0.00    +0.007 A 
ATOM     21  C   UNL     1       4.155  -0.244  23.410  0.00  0.00    +0.030 A 
ATOM     22  C   UNL     1       4.487   0.511  23.390  0.00  0.00    +0.140 A 
ATOM     23  F   UNL     1       5.155   0.679  23.846  0.00  0.00    -0.204 F 
ATOM     24  C   UNL     1       4.153   1.097  22.916  0.00  0.00    +0.030 A 
ATOM     25  C   UNL     1       3.486   0.928  22.461  0.00  0.00    +0.007 A 
ENDBRANCH  17  19
ENDBRANCH  15  16
ENDBRANCH  14  15
TORSDOF 7
ENDMDL
MODEL 6
REMARK VINA RESULT:      -8.6      3.895      5.039
REMARK  Name = 
REMARK  7 active torsions:
REMARK  status: ('A' for Active; 'I' for Inactive)
REMARK    1  A    between atoms: S_2  and  C_5
REMARK    2  A    between atoms: C_8  and  C_9
REMARK    3  A    between atoms: C_9  and  N_10
REMARK    4  A    between atoms: N_10  and  C_11
REMARK    5  A    between atoms: C_14  and  C_15
REMARK    6  A    between atoms: C_15  and  N_16
REMARK    7  A    between atoms: C_17  and  C_19
REMARK                            x       y       z     vdW  Elec       q    Type
REMARK                         _______ _______ _______ _____ _____    ______ ____
ROOT
ATOM     11  C   UNL     1      -1.134   0.737  24.063  0.00  0.00    +0.135 C 
ATOM     12  C   UNL     1      -1.373   0.114  24.549  0.00  0.00    +0.162 C 
ATOM     13  O   UNL     1      -2.158   0.247  24.767  0.00  0.00    -0.350 OA
ATOM     14  C   UNL     1      -2.404   0.952  24.415  0.00  0.00    +0.169 C 
ATOM     26  C   UNL     1      -1.771   1.254  23.980  0.00  0.00    +0.199 C 
ATOM     27  O   UNL     1      -1.775   1.952  23.540  0.00  0.00    -0.219 OA
ENDROOT
BRANCH  11  10
ATOM     10  N   UNL     1      -0.389   0.826  23.720  0.00  0.00    -0.209 NA
BRANCH  10   9
ATOM      9  C   UNL     1       0.107   0.172  23.638  0.00  0.00    +0.115 C 
BRANCH   9   8
ATOM      5  C   UNL     1       2.417   0.471  22.801  0.00  0.00    +0.106 A 
ATOM      6  C   UNL     1       2.119   0.978  23.379  0.00  0.00    +0.018 A 
ATOM      7  C   UNL     1       1.349   0.878  23.658  0.00  0.00    -0.002 A 
ATOM      8  C   UNL     1       0.877   0.272  23.359  0.00  0.00    -0.005 A 
ATOM     28  C   UNL     1       1.176  -0.236  22.780  0.00  0.00    -0.002 A 
ATOM     29  C   UNL     1       1.946  -0.136  22.501  0.00  0.00    +0.018 A 
BRANCH   5   2
ATOM      1  C   UNL     1       3.957   0.671  22.243  0.00  0.00    +0.182 C 
ATOM      2  S   UNL     1       3.187   0.571  22.522  0.00  0.00    +0.010 S 
ATOM      3  O   UNL     1       3.379   0.996  23.203  0.00  0.00    -0.169 OA
ATOM      4  O   UNL     1       2.995   0.146  21.841  0.00  0.00    -0.169 OA
ENDBRANCH   5   2
ENDBRANCH   9   8
ENDBRANCH  10   9
ENDBRANCH  11  10
BRANCH  14  15
ATOM     15  C   UNL     1      -3.151   1.294  24.486  0.00  0.00    +0.148 C 
BRANCH  15  16
ATOM     16  N   UNL     1      -3.825   0.817  24.498  0.00  0.00    -0.199 NA
ATOM     17  C   UNL     1      -4.559   1.146  24.679  0.00  0.00    +0.265 C 
ATOM     18  O   UNL     1      -5.232   0.669  24.691  0.00  0.00    -0.268 OA
BRANCH  17  19
ATOM     19  C   UNL     1      -4.621   1.951  24.846  0.00  0.00    +0.055 A 
ATOM     20  C   UNL     1      -4.610   2.211  25.630  0.00  0.00    +0.007 A 
ATOM     21  C   UNL     1      -4.672   3.016  25.798  0.00  0.00    +0.030 A 
ATOM     22  C   UNL     1      -4.746   3.561  25.183  0.00  0.00    +0.140 A 
ATOM     23  F   UNL     1      -4.808   4.367  25.352  0.00  0.00    -0.204 F 
ATOM     24  C   UNL     1      -4.757   3.302  24.401  0.00  0.00    +0.030 A 
ATOM     25  C   UNL     1      -4.695   2.496  24.232  0.00  0.00    +0.007 A 
ENDBRANCH  17  19
ENDBRANCH  15  16
ENDBRANCH  14  15
TORSDOF 7
ENDMDL
MODEL 7
REMARK VINA RESULT:      -8.5      5.061      6.209
REMARK  Name = 
REMARK  7 active torsions:
REMARK  status: ('A' for Active; 'I' for Inactive)
REMARK    1  A    between atoms: S_2  and  C_5
REMARK    2  A    between atoms: C_8  and  C_9
REMARK    3  A    between atoms: C_9  and  N_10
REMARK    4  A    between atoms: N_10  and  C_11
REMARK    5  A    between atoms: C_14  and  C_15
REMARK    6  A    between atoms: C_15  and  N_16
REMARK    7  A    between atoms: C_17  and  C_19
REMARK                            x       y       z     vdW  Elec       q    Type
REMARK                         _______ _______ _______ _____ _____    ______ ____
ROOT
ATOM     11  C   UNL     1       0.790   0.516  23.392  0.00  0.00    +0.135 C 
ATOM     12  C   UNL     1       0.426  -0.178  23.134  0.00  0.00    +0.162 C 
ATOM     13  O   UNL     1      -0.372  -0.140  23.344  0.00  0.00    -0.350 OA
ATOM     14  C   UNL     1      -0.499   0.576  23.733  0.00  0.00    +0.169 C 
ATOM     26  C   UNL     1       0.219   0.982  23.762  0.00  0.00    +0.199 C 
ATOM     27  O   UNL     1       0.343   1.724  24.102  0.00  0.00    -0.219 OA
ENDROOT
BRANCH  11  10
ATOM     10  N   UNL     1       1.586   0.710  23.297  0.00  0.00    -0.209 NA
BRANCH  10   9
ATOM      9  C   UNL     1       2.077   0.225  22.845  0.00  0.00    +0.115 C 
BRANCH   9   8
ATOM      5  C   UNL     1       4.521   0.232  23.234  0.00  0.00    +0.106 A 
ATOM      6  C   UNL     1       4.074  -0.432  23.434  0.00  0.00    +0.018 A 
ATOM      7  C   UNL     1       3.259  -0.434  23.304  0.00  0.00    -0.002 A 
ATOM      8  C   UNL     1       2.892   0.227  22.975  0.00  0.00    -0.005 A 
ATOM     28  C   UNL     1       3.340   0.891  22.775  0.00  0.00    -0.002 A 
ATOM     29  C   UNL     1       4.155   0.894  22.905  0.00  0.00    +0.018 A 
BRANCH   5   2
ATOM      1  C   UNL     1       6.151   0.236  23.494  0.00  0.00    +0.182 C 
ATOM      2  S   UNL     1       5.336   0.234  23.364  0.00  0.00    +0.010 S 
ATOM      3  O   UNL     1       5.456  -0.102  22.620  0.00  0.00    -0.169 OA
ATOM      4  O   UNL     1       5.216   0.569  24.109  0.00  0.00    -0.169 OA
ENDBRANCH   5   2
ENDBRANCH   9   8
ENDBRANCH  10   9
ENDBRANCH  11  10
BRANCH  14  15
ATOM     15  C   UNL     1      -1.218   0.841  24.038  0.00  0.00    +0.148 C 
BRANCH  15  16
ATOM     16  N   UNL     1      -1.709   0.320  24.450  0.00  0.00    -0.199 NA
ATOM     17  C   UNL     1      -2.485   0.537  24.625  0.00  0.00    +0.265 C 
ATOM     18  O   UNL     1      -2.976   0.016  25.037  0.00  0.00    -0.268 OA
BRANCH  17  19
ATOM     19  C   UNL     1      -2.771   1.274  24.390  0.00  0.00    +0.055 A 
ATOM     20  C   UNL     1      -3.103   1.366  23.640  0.00  0.00    +0.007 A 
ATOM     21  C   UNL     1      -3.390   2.103  23.404  0.00  0.00    +0.030 A 
ATOM     22  C   UNL     1      -3.345   2.747  23.918  0.00  0.00    +0.140 A 
ATOM     23  F   UNL     1      -3.632   3.484  23.682  0.00  0.00    -0.204 F 
ATOM     24  C   UNL     1      -3.013   2.655  24.667  0.00  0.00    +0.030 A 
ATOM     25  C   UNL     1      -2.726   1.918  24.904  0.00  0.00    +0.007 A 
ENDBRANCH  17  19
ENDBRANCH  15  16
ENDBRANCH  14  15
TORSDOF 7
ENDMDL
