MODEL 1
REMARK VINA RESULT:     -10.6      0.000      0.000
REMARK  Name = 
REMARK  4 active torsions:
REMARK  status: ('A' for Active; 'I' for Inactive)
REMARK    1  A    between atoms: C_3  and  C_9
REMARK    2  A    between atoms: C_9  and  C_11
REMARK    3  A    between atoms: C_14  and  N_15
REMARK    4  A    between atoms: C_16  and  C_18
REMARK                            x       y       z     vdW  Elec       q    Type
REMARK                         _______ _______ _______ _____ _____    ______ ____
ROOT
ATOM     11  C   UNL     1      -3.874   0.486  24.469  0.00  0.00    +0.010 A 
ATOM     12  C   UNL     1      -3.210   0.603  23.993  0.00  0.00    -0.000 A 
ATOM     13  C   UNL     1      -2.827   1.333  23.990  0.00  0.00    +0.016 A 
ATOM     14  C   UNL     1      -3.109   1.948  24.464  0.00  0.00    +0.074 A 
ATOM     24  C   UNL     1      -3.772   1.832  24.940  0.00  0.00    +0.016 A 
ATOM     25  C   UNL     1      -4.156   1.101  24.943  0.00  0.00    -0.000 A 
ENDROOT
BRANCH  14  15
ATOM     15  N   UNL     1      -2.725   2.679  24.461  0.00  0.00    -0.175 NA
ATOM     16  C   UNL     1      -2.121   2.830  25.001  0.00  0.00    +0.270 C 
ATOM     17  O   UNL     1      -1.899   2.250  25.546  0.00  0.00    -0.268 OA
BRANCH  16  18
ATOM     18  C   UNL     1      -1.738   3.561  24.998  0.00  0.00    +0.075 A 
ATOM     19  C   UNL     1      -2.123   4.231  25.285  0.00  0.00    +0.008 A 
ATOM     20  C   UNL     1      -1.739   4.961  25.282  0.00  0.00    +0.021 A 
ATOM     21  C   UNL     1      -0.969   5.021  24.992  0.00  0.00    +0.099 A 
ATOM     22  N   UNL     1      -0.583   4.351  24.704  0.00  0.00    -0.242 NA
ATOM     23  C   UNL     1      -0.968   3.621  24.708  0.00  0.00    +0.103 A 
ENDBRANCH  16  18
ENDBRANCH  14  15
BRANCH  11   9
ATOM      9  C   UNL     1      -4.257  -0.244  24.471  0.00  0.00    +0.195 C 
ATOM     10  O   UNL     1      -4.973  -0.336  24.071  0.00  0.00    -0.216 OA
BRANCH   9   3
ATOM      1  C   UNL     1      -4.173  -1.724  23.746  0.00  0.00    +0.115 C 
ATOM      2  N   UNL     1      -3.883  -1.623  24.512  0.00  0.00    -0.272 N 
ATOM      3  C   UNL     1      -3.925  -0.883  24.874  0.00  0.00    +0.139 C 
ATOM      4  C   UNL     1      -3.635  -0.782  25.641  0.00  0.00    +0.165 C 
ATOM      5  O   UNL     1      -3.303  -1.421  26.043  0.00  0.00    -0.343 OA
ATOM      6  C   UNL     1      -3.261  -2.161  25.681  0.00  0.00    +0.227 C 
ATOM      7  C   UNL     1      -3.552  -2.262  24.914  0.00  0.00    +0.256 C 
ATOM      8  O   UNL     1      -3.510  -3.001  24.552  0.00  0.00    -0.272 OA
ENDBRANCH   9   3
ENDBRANCH  11   9
TORSDOF 4
ENDMDL
MODEL 2
REMARK VINA RESULT:     -10.6      1.350      5.097
REMARK  Name = 
REMARK  4 active torsions:
REMARK  status: ('A' for Active; 'I' for Inactive)
REMARK    1  A    between atoms: C_3  and  C_9
REMARK    2  A    between atoms: C_9  and  C_11
REMARK    3  A    between atoms: C_14  and  N_15
REMARK    4  A    between atoms: C_16  and  C_18
REMARK                            x       y       z     vdW  Elec       q    Type
REMARK                         _______ _______ _______ _____ _____    ______ ____
ROOT
ATOM     11  C   UNL     1      -3.689   2.205  24.195  0.00  0.00    +0.010 A 
ATOM     12  C   UNL     1      -3.194   1.829  23.652  0.00  0.00    -0.000 A 
ATOM     13  C   UNL     1      -3.214   1.009  23.574  0.00  0.00    +0.016 A 
ATOM     14  C   UNL     1      -3.730   0.562  24.039  0.00  0.00    +0.074 A 
ATOM     24  C   UNL     1      -4.225   0.937  24.582  0.00  0.00    +0.016 A 
ATOM     25  C   UNL     1      -4.205   1.759  24.660  0.00  0.00    -0.000 A 
ENDROOT
BRANCH  14  15
ATOM     15  N   UNL     1      -3.750  -0.259  23.961  0.00  0.00    -0.175 NA
ATOM     16  C   UNL     1      -3.351  -0.735  24.503  0.00  0.00    +0.270 C 
ATOM     17  O   UNL     1      -2.931  -0.390  25.125  0.00  0.00    -0.268 OA
BRANCH  16  18
ATOM     18  C   UNL     1      -3.371  -1.556  24.424  0.00  0.00    +0.075 A 
ATOM     19  C   UNL     1      -4.058  -1.930  24.163  0.00  0.00    +0.008 A 
ATOM     20  C   UNL     1      -4.077  -2.751  24.085  0.00  0.00    +0.021 A 
ATOM     21  C   UNL     1      -3.409  -3.199  24.268  0.00  0.00    +0.099 A 
ATOM     22  N   UNL     1      -2.720  -2.825  24.529  0.00  0.00    -0.242 NA
ATOM     23  C   UNL     1      -2.702  -2.004  24.607  0.00  0.00    +0.103 A 
ENDBRANCH  16  18
ENDBRANCH  14  15
BRANCH  11   9
ATOM      9  C   UNL     1      -3.669   3.025  24.273  0.00  0.00    +0.195 C 
ATOM     10  O   UNL     1      -4.189   3.494  23.836  0.00  0.00    -0.216 OA
BRANCH   9   3
ATOM      1  C   UNL     1      -4.208   3.890  25.570  0.00  0.00    +0.115 C 
ATOM      2  N   UNL     1      -3.398   3.811  25.436  0.00  0.00    -0.272 N 
ATOM      3  C   UNL     1      -3.129   3.379  24.787  0.00  0.00    +0.139 C 
ATOM      4  C   UNL     1      -2.318   3.299  24.652  0.00  0.00    +0.165 C 
ATOM      5  O   UNL     1      -1.778   3.652  25.166  0.00  0.00    -0.343 OA
ATOM      6  C   UNL     1      -2.048   4.084  25.815  0.00  0.00    +0.227 C 
ATOM      7  C   UNL     1      -2.859   4.164  25.950  0.00  0.00    +0.256 C 
ATOM      8  O   UNL     1      -3.128   4.596  26.598  0.00  0.00    -0.272 OA
ENDBRANCH   9   3
ENDBRANCH  11   9
TORSDOF 4
ENDMDL
MODEL 3
REMARK VINA RESULT:     -10.2      1.420      5.397
REMARK  Name = 
REMARK  4 active torsions:
REMARK  status: ('A' for Active; 'I' for Inactive)
REMARK    1  A    between atoms: C_3  and  C_9
REMARK    2  A    between atoms: C_9  and  C_11
REMARK    3  A    between atoms: C_14  and  N_15
REMARK    4  A    between atoms: C_16  and  C_18
REMARK                            x       y       z     vdW  Elec       q    Type
REMARK                         _______ _______ _______ _____ _____    ______ ____
ROOT
ATOM     11  C   UNL     1      -1.117   1.844  25.033  0.00  0.00    +0.010 A 
ATOM     12  C   UNL     1      -1.492   1.730  24.307  0.00  0.00    -0.000 A 
ATOM     13  C   UNL     1      -1.841   1.005  24.132  0.00  0.00    +0.016 A 
ATOM     14  C   UNL     1      -1.816   0.390  24.683  0.00  0.00    +0.074 A 
ATOM     24  C   UNL     1      -1.441   0.503  25.409  0.00  0.00    +0.016 A 
ATOM     25  C   UNL     1      -1.092   1.230  25.585  0.00  0.00    -0.000 A 
ENDROOT
BRANCH  14  15
ATOM     15  N   UNL     1      -2.166  -0.336  24.507  0.00  0.00    -0.175 NA
ATOM     16  C   UNL     1      -2.940  -0.489  24.743  0.00  0.00    +0.270 C 
ATOM     17  O   UNL     1      -3.367   0.085  25.157  0.00  0.00    -0.268 OA
BRANCH  16  18
ATOM     18  C   UNL     1      -3.290  -1.216  24.567  0.00  0.00    +0.075 A 
ATOM     19  C   UNL     1      -3.907  -1.256  24.022  0.00  0.00    +0.008 A 
ATOM     20  C   UNL     1      -4.257  -1.982  23.846  0.00  0.00    +0.021 A 
ATOM     21  C   UNL     1      -3.989  -2.669  24.216  0.00  0.00    +0.099 A 
ATOM     22  N   UNL     1      -3.371  -2.629  24.763  0.00  0.00    -0.242 NA
ATOM     23  C   UNL     1      -3.022  -1.903  24.938  0.00  0.00    +0.103 A 
ENDBRANCH  16  18
ENDBRANCH  14  15
BRANCH  11   9
ATOM      9  C   UNL     1      -0.767   2.570  25.209  0.00  0.00    +0.195 C 
ATOM     10  O   UNL     1       0.054   2.644  25.205  0.00  0.00    -0.216 OA
BRANCH   9   3
ATOM      1  C   UNL     1      -0.410   4.048  24.568  0.00  0.00    +0.115 C 
ATOM      2  N   UNL     1      -1.061   3.961  25.068  0.00  0.00    -0.272 N 
ATOM      3  C   UNL     1      -1.239   3.223  25.388  0.00  0.00    +0.139 C 
ATOM      4  C   UNL     1      -1.890   3.136  25.889  0.00  0.00    +0.165 C 
ATOM      5  O   UNL     1      -2.361   3.788  26.069  0.00  0.00    -0.343 OA
ATOM      6  C   UNL     1      -2.183   4.528  25.749  0.00  0.00    +0.227 C 
ATOM      7  C   UNL     1      -1.532   4.614  25.248  0.00  0.00    +0.256 C 
ATOM      8  O   UNL     1      -1.354   5.353  24.928  0.00  0.00    -0.272 OA
ENDBRANCH   9   3
ENDBRANCH  11   9
TORSDOF 4
ENDMDL
MODEL 4
REMARK VINA RESULT:      -9.9      1.495      1.886
REMARK  Name = 
REMARK  4 active torsions:
REMARK  status: ('A' for Active; 'I' for Inactive)
REMARK    1  A    between atoms: C_3  and  C_9
REMARK    2  A    between atoms: C_9  and  C_11
REMARK    3  A    between atoms: C_14  and  N_15
REMARK    4  A    between atoms: C_16  and  C_18
REMARK                            x       y       z     vdW  Elec       q    Type
REMARK                         _______ _______ _______ _____ _____    ______ ____
ROOT
ATOM     11  C   UNL     1      -1.250  -0.209  25.090  0.00  0.00    +0.010 A 
ATOM     12  C   UNL     1      -1.346   0.193  24.376  0.00  0.00    -0.000 A 
ATOM     13  C   UNL     1      -1.234   1.009  24.343  0.00  0.00    +0.016 A 
ATOM     14  C   UNL     1      -1.026   1.425  25.025  0.00  0.00    +0.074 A 
ATOM     24  C   UNL     1      -0.930   1.025  25.739  0.00  0.00    +0.016 A 
ATOM     25  C   UNL     1      -1.042   0.208  25.773  0.00  0.00    -0.000 A 
ENDROOT
BRANCH  14  15
ATOM     15  N   UNL     1      -0.914   2.242  24.991  0.00  0.00    -0.175 NA
ATOM     16  C   UNL     1      -1.544   2.752  25.141  0.00  0.00    +0.270 C 
ATOM     17  O   UNL     1      -2.289   2.445  25.324  0.00  0.00    -0.268 OA
BRANCH  16  18
ATOM     18  C   UNL     1      -1.432   3.569  25.107  0.00  0.00    +0.075 A 
ATOM     19  C   UNL     1      -2.023   4.078  25.374  0.00  0.00    +0.008 A 
ATOM     20  C   UNL     1      -1.911   4.895  25.340  0.00  0.00    +0.021 A 
ATOM     21  C   UNL     1      -1.207   5.202  25.038  0.00  0.00    +0.099 A 
ATOM     22  N   UNL     1      -0.615   4.692  24.771  0.00  0.00    -0.242 NA
ATOM     23  C   UNL     1      -0.728   3.876  24.805  0.00  0.00    +0.103 A 
ENDBRANCH  16  18
ENDBRANCH  14  15
BRANCH  11   9
ATOM      9  C   UNL     1      -1.362  -1.025  25.124  0.00  0.00    +0.195 C 
ATOM     10  O   UNL     1      -0.712  -1.531  25.103  0.00  0.00    -0.216 OA
BRANCH   9   3
ATOM      1  C   UNL     1      -1.786  -2.336  24.217  0.00  0.00    +0.115 C 
ATOM      2  N   UNL     1      -2.337  -1.991  24.724  0.00  0.00    -0.272 N 
ATOM      3  C   UNL     1      -2.125  -1.335  25.178  0.00  0.00    +0.139 C 
ATOM      4  C   UNL     1      -2.676  -0.989  25.686  0.00  0.00    +0.165 C 
ATOM      5  O   UNL     1      -3.438  -1.299  25.740  0.00  0.00    -0.343 OA
ATOM      6  C   UNL     1      -3.651  -1.955  25.286  0.00  0.00    +0.227 C 
ATOM      7  C   UNL     1      -3.099  -2.302  24.778  0.00  0.00    +0.256 C 
ATOM      8  O   UNL     1      -3.311  -2.957  24.325  0.00  0.00    -0.272 OA
ENDBRANCH   9   3
ENDBRANCH  11   9
TORSDOF 4
ENDMDL
MODEL 5
REMARK VINA RESULT:      -9.4      2.169      4.584
REMARK  Name = 
REMARK  4 active torsions:
REMARK  status: ('A' for Active; 'I' for Inactive)
REMARK    1  A    between atoms: C_3  and  C_9
REMARK    2  A    between atoms: C_9  and  C_11
REMARK    3  A    between atoms: C_14  and  N_15
REMARK    4  A    between atoms: C_16  and  C_18
REMARK                            x       y       z     vdW  Elec       q    Type
REMARK                         _______ _______ _______ _____ _____    ______ ____
ROOT
ATOM     11  C   UNL     1      -3.527   1.997  24.197  0.00  0.00    +0.010 A 
ATOM     12  C   UNL     1      -2.913   2.012  24.748  0.00  0.00    -0.000 A 
ATOM     13  C   UNL     1      -2.393   1.375  24.805  0.00  0.00    +0.016 A 
ATOM     14  C   UNL     1      -2.485   0.721  24.309  0.00  0.00    +0.074 A 
ATOM     24  C   UNL     1      -3.098   0.706  23.758  0.00  0.00    +0.016 A 
ATOM     25  C   UNL     1      -3.619   1.343  23.701  0.00  0.00    -0.000 A 
ENDROOT
BRANCH  14  15
ATOM     15  N   UNL     1      -1.964   0.084  24.366  0.00  0.00    -0.175 NA
ATOM     16  C   UNL     1      -2.118  -0.529  24.895  0.00  0.00    +0.270 C 
ATOM     17  O   UNL     1      -2.795  -0.506  25.368  0.00  0.00    -0.268 OA
BRANCH  16  18
ATOM     18  C   UNL     1      -1.597  -1.167  24.952  0.00  0.00    +0.075 A 
ATOM     19  C   UNL     1      -1.811  -1.903  24.650  0.00  0.00    +0.008 A 
ATOM     20  C   UNL     1      -1.290  -2.540  24.707  0.00  0.00    +0.021 A 
ATOM     21  C   UNL     1      -0.554  -2.440  25.067  0.00  0.00    +0.099 A 
ATOM     22  N   UNL     1      -0.340  -1.703  25.370  0.00  0.00    -0.242 NA
ATOM     23  C   UNL     1      -0.862  -1.066  25.312  0.00  0.00    +0.103 A 
ENDBRANCH  16  18
ENDBRANCH  14  15
BRANCH  11   9
ATOM      9  C   UNL     1      -4.047   2.634  24.140  0.00  0.00    +0.195 C 
ATOM     10  O   UNL     1      -3.915   3.225  23.580  0.00  0.00    -0.216 OA
BRANCH   9   3
ATOM      1  C   UNL     1      -4.318   4.006  25.016  0.00  0.00    +0.115 C 
ATOM      2  N   UNL     1      -4.835   3.366  25.081  0.00  0.00    -0.272 N 
ATOM      3  C   UNL     1      -4.699   2.681  24.643  0.00  0.00    +0.139 C 
ATOM      4  C   UNL     1      -5.217   2.040  24.708  0.00  0.00    +0.165 C 
ATOM      5  O   UNL     1      -5.869   2.086  25.210  0.00  0.00    -0.343 OA
ATOM      6  C   UNL     1      -6.005   2.772  25.648  0.00  0.00    +0.227 C 
ATOM      7  C   UNL     1      -5.488   3.413  25.584  0.00  0.00    +0.256 C 
ATOM      8  O   UNL     1      -5.624   4.098  26.021  0.00  0.00    -0.272 OA
ENDBRANCH   9   3
ENDBRANCH  11   9
TORSDOF 4
ENDMDL
