MODEL 1
REMARK VINA RESULT:     -11.9      0.000      0.000
REMARK  Name = 
REMARK  7 active torsions:
REMARK  status: ('A' for Active; 'I' for Inactive)
REMARK    1  A    between atoms: C_2  and  C_4
REMARK    2  A    between atoms: C_4  and  C_5
REMARK    3  A    between atoms: C_10  and  C_11
REMARK    4  A    between atoms: C_11  and  C_12
REMARK    5  A    between atoms: C_12  and  N_13
REMARK    6  A    between atoms: C_19  and  C_21
REMARK    7  A    between atoms: C_24  and  C_27
REMARK                            x       y       z     vdW  Elec       q    Type
REMARK                         _______ _______ _______ _____ _____    ______ ____
ROOT
ATOM      5  C   UNL     1      -3.263   2.484  24.718  0.00  0.00    +0.015 C 
ATOM      6  C   UNL     1      -4.041   2.523  24.991  0.00  0.00    +0.022 C 
ATOM      7  C   UNL     1      -4.472   1.829  25.106  0.00  0.00    +0.094 C 
ATOM      8  N   UNL     1      -4.125   1.096  24.949  0.00  0.00    -0.276 N 
ATOM      9  C   UNL     1      -3.348   1.059  24.677  0.00  0.00    +0.094 C 
ATOM     10  C   UNL     1      -2.916   1.752  24.561  0.00  0.00    +0.022 C 
ATOM     19  C   UNL     1      -4.556   0.403  25.065  0.00  0.00    +0.249 C 
ATOM     20  O   UNL     1      -5.334   0.441  25.337  0.00  0.00    -0.270 OA
ENDROOT
BRANCH  19  21
ATOM     21  C   UNL     1      -4.210  -0.329  24.908  0.00  0.00    +0.054 A 
ATOM     22  C   UNL     1      -4.253  -0.653  24.150  0.00  0.00    +0.004 A 
ATOM     23  C   UNL     1      -3.907  -1.384  23.995  0.00  0.00    +0.004 A 
ATOM     24  C   UNL     1      -3.517  -1.794  24.596  0.00  0.00    +0.071 A 
ATOM     25  C   UNL     1      -3.474  -1.470  25.354  0.00  0.00    +0.004 A 
ATOM     26  C   UNL     1      -3.821  -0.737  25.510  0.00  0.00    +0.004 A 
BRANCH  24  27
ATOM     27  C   UNL     1      -3.170  -2.526  24.441  0.00  0.00    +0.419 C 
ATOM     28  F   UNL     1      -2.823  -3.258  24.285  0.00  0.00    -0.166 F 
ATOM     29  F   UNL     1      -3.889  -2.900  24.596  0.00  0.00    -0.166 F 
ATOM     30  F   UNL     1      -2.451  -2.152  24.285  0.00  0.00    -0.166 F 
ENDBRANCH  24  27
ENDBRANCH  19  21
BRANCH   5   4
ATOM      4  C   UNL     1      -2.831   3.178  24.602  0.00  0.00    +0.114 C 
BRANCH   4   2
ATOM      1  O   UNL     1      -3.021   4.243  25.536  0.00  0.00    -0.246 OA
ATOM      2  C   UNL     1      -3.165   3.908  24.796  0.00  0.00    +0.365 C 
ATOM      3  O   UNL     1      -3.642   4.302  24.251  0.00  0.00    -0.246 OA
ENDBRANCH   4   2
ENDBRANCH   5   4
BRANCH  10  11
ATOM     11  C   UNL     1      -2.139   1.714  24.289  0.00  0.00    +0.019 C 
BRANCH  11  12
ATOM     12  C   UNL     1      -1.570   1.303  24.724  0.00  0.00    +0.072 C 
BRANCH  12  13
ATOM     13  N   UNL     1      -0.813   1.194  24.412  0.00  0.00    -0.268 NA
ATOM     14  C   UNL     1      -0.658   0.554  23.916  0.00  0.00    +0.105 C 
ATOM     15  C   UNL     1       0.098   0.446  23.605  0.00  0.00    +0.159 C 
ATOM     16  O   UNL     1       0.700   0.979  23.790  0.00  0.00    -0.351 OA
ATOM     17  C   UNL     1       0.546   1.620  24.286  0.00  0.00    +0.159 C 
ATOM     18  C   UNL     1      -0.211   1.727  24.597  0.00  0.00    +0.105 C 
ENDBRANCH  12  13
ENDBRANCH  11  12
ENDBRANCH  10  11
TORSDOF 7
ENDMDL
MODEL 2
REMARK VINA RESULT:     -11.6      2.548      4.275
REMARK  Name = 
REMARK  7 active torsions:
REMARK  status: ('A' for Active; 'I' for Inactive)
REMARK    1  A    between atoms: C_2  and  C_4
REMARK    2  A    between atoms: C_4  and  C_5
REMARK    3  A    between atoms: C_10  and  C_11
REMARK    4  A    between atoms: C_11  and  C_12
REMARK    5  A    between atoms: C_12  and  N_13
REMARK    6  A    between atoms: C_19  and  C_21
REMARK    7  A    between atoms: C_24  and  C_27
REMARK                            x       y       z     vdW  Elec       q    Type
REMARK                         _______ _______ _______ _____ _____    ______ ____
ROOT
ATOM      5  C   UNL     1      -3.679   0.392  24.516  0.00  0.00    +0.015 C 
ATOM      6  C   UNL     1      -4.404   0.640  24.821  0.00  0.00    +0.022 C 
ATOM      7  C   UNL     1      -4.497   1.416  25.085  0.00  0.00    +0.094 C 
ATOM      8  N   UNL     1      -3.863   1.944  25.043  0.00  0.00    -0.276 N 
ATOM      9  C   UNL     1      -3.139   1.695  24.738  0.00  0.00    +0.094 C 
ATOM     10  C   UNL     1      -3.047   0.919  24.474  0.00  0.00    +0.022 C 
ATOM     19  C   UNL     1      -3.956   2.719  25.307  0.00  0.00    +0.249 C 
ATOM     20  O   UNL     1      -4.681   2.968  25.612  0.00  0.00    -0.270 OA
ENDROOT
BRANCH  19  21
ATOM     21  C   UNL     1      -3.323   3.248  25.266  0.00  0.00    +0.054 A 
ATOM     22  C   UNL     1      -2.819   3.339  25.912  0.00  0.00    +0.004 A 
ATOM     23  C   UNL     1      -2.187   3.867  25.870  0.00  0.00    +0.004 A 
ATOM     24  C   UNL     1      -2.059   4.304  25.182  0.00  0.00    +0.071 A 
ATOM     25  C   UNL     1      -2.563   4.213  24.535  0.00  0.00    +0.004 A 
ATOM     26  C   UNL     1      -3.196   3.684  24.577  0.00  0.00    +0.004 A 
BRANCH  24  27
ATOM     27  C   UNL     1      -1.427   4.833  25.139  0.00  0.00    +0.419 C 
ATOM     28  F   UNL     1      -0.794   5.360  25.096  0.00  0.00    -0.166 F 
ATOM     29  F   UNL     1      -1.897   5.423  25.470  0.00  0.00    -0.166 F 
ATOM     30  F   UNL     1      -0.956   4.242  24.807  0.00  0.00    -0.166 F 
ENDBRANCH  24  27
ENDBRANCH  19  21
BRANCH   5   4
ATOM      4  C   UNL     1      -3.587  -0.386  24.252  0.00  0.00    +0.114 C 
BRANCH   4   2
ATOM      1  O   UNL     1      -4.080  -1.362  25.171  0.00  0.00    -0.246 OA
ATOM      2  C   UNL     1      -4.145  -0.959  24.454  0.00  0.00    +0.365 C 
ATOM      3  O   UNL     1      -4.767  -1.129  23.941  0.00  0.00    -0.246 OA
ENDBRANCH   4   2
ENDBRANCH   5   4
BRANCH  10  11
ATOM     11  C   UNL     1      -2.322   0.671  24.169  0.00  0.00    +0.019 C 
BRANCH  11  12
ATOM     12  C   UNL     1      -1.641   0.715  24.635  0.00  0.00    +0.072 C 
BRANCH  12  13
ATOM     13  N   UNL     1      -0.906   0.528  24.309  0.00  0.00    -0.268 NA
ATOM     14  C   UNL     1      -0.622  -0.245  24.345  0.00  0.00    +0.105 C 
ATOM     15  C   UNL     1       0.113  -0.431  24.019  0.00  0.00    +0.159 C 
ATOM     16  O   UNL     1       0.563   0.158  23.656  0.00  0.00    -0.351 OA
ATOM     17  C   UNL     1       0.280   0.931  23.619  0.00  0.00    +0.159 C 
ATOM     18  C   UNL     1      -0.456   1.117  23.946  0.00  0.00    +0.105 C 
ENDBRANCH  12  13
ENDBRANCH  11  12
ENDBRANCH  10  11
TORSDOF 7
ENDMDL
MODEL 3
REMARK VINA RESULT:     -11.6      2.708      5.200
REMARK  Name = 
REMARK  7 active torsions:
REMARK  status: ('A' for Active; 'I' for Inactive)
REMARK    1  A    between atoms: C_2  and  C_4
REMARK    2  A    between atoms: C_4  and  C_5
REMARK    3  A    between atoms: C_10  and  C_11
REMARK    4  A    between atoms: C_11  and  C_12
REMARK    5  A    between atoms: C_12  and  N_13
REMARK    6  A    between atoms: C_19  and  C_21
REMARK    7  A    between atoms: C_24  and  C_27
REMARK                            x       y       z     vdW  Elec       q    Type
REMARK                         _______ _______ _______ _____ _____    ______ ____
ROOT
ATOM      5  C   UNL     1      -2.939  -0.139  24.844  0.00  0.00    +0.015 C 
ATOM      6  C   UNL     1      -2.209  -0.473  24.657  0.00  0.00    +0.022 C 
ATOM      7  C   UNL     1      -1.538   0.004  24.606  0.00  0.00    +0.094 C 
ATOM      8  N   UNL     1      -1.598   0.817  24.741  0.00  0.00    -0.276 N 
ATOM      9  C   UNL     1      -2.329   1.150  24.927  0.00  0.00    +0.094 C 
ATOM     10  C   UNL     1      -3.000   0.672  24.979  0.00  0.00    +0.022 C 
ATOM     19  C   UNL     1      -0.928   1.294  24.690  0.00  0.00    +0.249 C 
ATOM     20  O   UNL     1      -0.196   0.960  24.503  0.00  0.00    -0.270 OA
ENDROOT
BRANCH  19  21
ATOM     21  C   UNL     1      -0.988   2.105  24.825  0.00  0.00    +0.054 A 
ATOM     22  C   UNL     1      -0.931   2.402  25.592  0.00  0.00    +0.004 A 
ATOM     23  C   UNL     1      -0.990   3.213  25.726  0.00  0.00    +0.004 A 
ATOM     24  C   UNL     1      -1.107   3.729  25.093  0.00  0.00    +0.071 A 
ATOM     25  C   UNL     1      -1.164   3.433  24.325  0.00  0.00    +0.004 A 
ATOM     26  C   UNL     1      -1.105   2.620  24.191  0.00  0.00    +0.004 A 
BRANCH  24  27
ATOM     27  C   UNL     1      -1.167   4.541  25.227  0.00  0.00    +0.419 C 
ATOM     28  F   UNL     1      -1.226   5.353  25.359  0.00  0.00    -0.166 F 
ATOM     29  F   UNL     1      -1.892   4.426  25.603  0.00  0.00    -0.166 F 
ATOM     30  F   UNL     1      -0.441   4.656  24.850  0.00  0.00    -0.166 F 
ENDBRANCH  24  27
ENDBRANCH  19  21
BRANCH   5   4
ATOM      4  C   UNL     1      -3.611  -0.617  24.895  0.00  0.00    +0.114 C 
BRANCH   4   2
ATOM      1  O   UNL     1      -3.553  -1.852  24.179  0.00  0.00    -0.246 OA
ATOM      2  C   UNL     1      -3.533  -1.438  24.892  0.00  0.00    +0.365 C 
ATOM      3  O   UNL     1      -3.435  -1.846  25.602  0.00  0.00    -0.246 OA
ENDBRANCH   4   2
ENDBRANCH   5   4
BRANCH  10  11
ATOM     11  C   UNL     1      -3.730   1.006  25.165  0.00  0.00    +0.019 C 
BRANCH  11  12
ATOM     12  C   UNL     1      -4.048   1.598  24.684  0.00  0.00    +0.072 C 
BRANCH  12  13
ATOM     13  N   UNL     1      -4.710   2.022  24.935  0.00  0.00    -0.268 NA
ATOM     14  C   UNL     1      -5.467   1.709  24.828  0.00  0.00    +0.105 C 
ATOM     15  C   UNL     1      -6.128   2.133  25.079  0.00  0.00    +0.159 C 
ATOM     16  O   UNL     1      -6.033   2.870  25.439  0.00  0.00    -0.351 OA
ATOM     17  C   UNL     1      -5.278   3.183  25.546  0.00  0.00    +0.159 C 
ATOM     18  C   UNL     1      -4.616   2.758  25.295  0.00  0.00    +0.105 C 
ENDBRANCH  12  13
ENDBRANCH  11  12
ENDBRANCH  10  11
TORSDOF 7
ENDMDL
MODEL 4
REMARK VINA RESULT:     -11.0      2.185      3.869
REMARK  Name = 
REMARK  7 active torsions:
REMARK  status: ('A' for Active; 'I' for Inactive)
REMARK    1  A    between atoms: C_2  and  C_4
REMARK    2  A    between atoms: C_4  and  C_5
REMARK    3  A    between atoms: C_10  and  C_11
REMARK    4  A    between atoms: C_11  and  C_12
REMARK    5  A    between atoms: C_12  and  N_13
REMARK    6  A    between atoms: C_19  and  C_21
REMARK    7  A    between atoms: C_24  and  C_27
REMARK                            x       y       z     vdW  Elec       q    Type
REMARK                         _______ _______ _______ _____ _____    ______ ____
ROOT
ATOM      5  C   UNL     1      -1.065   2.120  25.061  0.00  0.00    +0.015 C 
ATOM      6  C   UNL     1      -1.018   2.934  24.932  0.00  0.00    +0.022 C 
ATOM      7  C   UNL     1      -1.708   3.378  24.842  0.00  0.00    +0.094 C 
ATOM      8  N   UNL     1      -2.445   3.007  24.880  0.00  0.00    -0.276 N 
ATOM      9  C   UNL     1      -2.491   2.194  25.009  0.00  0.00    +0.094 C 
ATOM     10  C   UNL     1      -1.801   1.750  25.100  0.00  0.00    +0.022 C 
ATOM     19  C   UNL     1      -3.134   3.450  24.790  0.00  0.00    +0.249 C 
ATOM     20  O   UNL     1      -3.088   4.264  24.661  0.00  0.00    -0.270 OA
ENDROOT
BRANCH  19  21
ATOM     21  C   UNL     1      -3.870   3.081  24.829  0.00  0.00    +0.054 A 
ATOM     22  C   UNL     1      -4.256   3.002  25.554  0.00  0.00    +0.004 A 
ATOM     23  C   UNL     1      -4.992   2.633  25.592  0.00  0.00    +0.004 A 
ATOM     24  C   UNL     1      -5.344   2.341  24.905  0.00  0.00    +0.071 A 
ATOM     25  C   UNL     1      -4.958   2.419  24.180  0.00  0.00    +0.004 A 
ATOM     26  C   UNL     1      -4.221   2.789  24.141  0.00  0.00    +0.004 A 
BRANCH  24  27
ATOM     27  C   UNL     1      -6.080   1.971  24.942  0.00  0.00    +0.419 C 
ATOM     28  F   UNL     1      -6.816   1.600  24.979  0.00  0.00    -0.166 F 
ATOM     29  F   UNL     1      -6.443   2.704  25.050  0.00  0.00    -0.166 F 
ATOM     30  F   UNL     1      -5.717   1.238  24.834  0.00  0.00    -0.166 F 
ENDBRANCH  24  27
ENDBRANCH  19  21
BRANCH   5   4
ATOM      4  C   UNL     1      -0.375   1.676  25.151  0.00  0.00    +0.114 C 
BRANCH   4   2
ATOM      1  O   UNL     1       0.816   2.099  24.485  0.00  0.00    -0.246 OA
ATOM      2  C   UNL     1       0.359   2.055  25.170  0.00  0.00    +0.365 C 
ATOM      3  O   UNL     1       0.634   2.387  25.872  0.00  0.00    -0.246 OA
ENDBRANCH   4   2
ENDBRANCH   5   4
BRANCH  10  11
ATOM     11  C   UNL     1      -1.848   0.937  25.228  0.00  0.00    +0.019 C 
BRANCH  11  12
ATOM     12  C   UNL     1      -2.228   0.453  24.678  0.00  0.00    +0.072 C 
BRANCH  12  13
ATOM     13  N   UNL     1      -2.367  -0.341  24.854  0.00  0.00    -0.268 NA
ATOM     14  C   UNL     1      -3.009  -0.552  25.328  0.00  0.00    +0.105 C 
ATOM     15  C   UNL     1      -3.148  -1.346  25.504  0.00  0.00    +0.159 C 
ATOM     16  O   UNL     1      -2.646  -1.928  25.206  0.00  0.00    -0.351 OA
ATOM     17  C   UNL     1      -2.004  -1.718  24.732  0.00  0.00    +0.159 C 
ATOM     18  C   UNL     1      -1.865  -0.923  24.556  0.00  0.00    +0.105 C 
ENDBRANCH  12  13
ENDBRANCH  11  12
ENDBRANCH  10  11
TORSDOF 7
ENDMDL
