MODEL 1
REMARK VINA RESULT:     -12.3      0.000      0.000
REMARK  Name = 
REMARK  3 active torsions:
REMARK  status: ('A' for Active; 'I' for Inactive)
REMARK    1  A    between atoms: O_2  and  C_3
REMARK    2  A    between atoms: C_12  and  C_14
REMARK    3  A    between atoms: C_17  and  C_19
REMARK                            x       y       z     vdW  Elec       q    Type
REMARK                         _______ _______ _______ _____ _____    ______ ____
ROOT
ATOM      3  C   UNL     1      -1.480   4.575  25.172  0.00  0.00    +0.229 A 
ATOM      4  N   UNL     1      -2.172   4.150  25.027  0.00  0.00    -0.179 NA
ATOM      5  C   UNL     1      -2.175   3.328  25.104  0.00  0.00    +0.223 A 
ATOM      6  N   UNL     1      -1.486   2.932  25.325  0.00  0.00    -0.212 NA
ATOM      7  C   UNL     1      -0.794   3.357  25.470  0.00  0.00    +0.107 A 
ATOM      8  C   UNL     1      -0.791   4.178  25.393  0.00  0.00    +0.078 A 
ATOM      9  N   UNL     1      -2.867   2.903  24.959  0.00  0.00    -0.278 N 
ATOM     10  C   UNL     1      -3.594   3.223  24.735  0.00  0.00    +0.094 C 
ATOM     11  C   UNL     1      -4.130   2.601  24.650  0.00  0.00    +0.033 C 
ATOM     12  C   UNL     1      -3.734   1.898  24.822  0.00  0.00    +0.100 C 
ATOM     13  C   UNL     1      -2.954   2.085  25.013  0.00  0.00    +0.103 C 
ENDROOT
BRANCH  12  14
ATOM     14  C   UNL     1      -4.061   1.141  24.807  0.00  0.00    +0.228 A 
ATOM     15  N   UNL     1      -4.859   0.955  24.907  0.00  0.00    -0.111 NA
ATOM     16  N   UNL     1      -4.940   0.136  24.851  0.00  0.00    -0.107 NA
ATOM     17  C   UNL     1      -4.191  -0.185  24.715  0.00  0.00    +0.250 A 
ATOM     18  O   UNL     1      -3.649   0.437  24.688  0.00  0.00    -0.419 OA
BRANCH  17  19
ATOM     19  C   UNL     1      -4.016  -0.986  24.623  0.00  0.00    +0.055 A 
ATOM     20  C   UNL     1      -3.620  -1.393  25.221  0.00  0.00    +0.004 A 
ATOM     21  C   UNL     1      -3.445  -2.194  25.129  0.00  0.00    -0.004 A 
ATOM     22  C   UNL     1      -3.666  -2.588  24.438  0.00  0.00    -0.022 A 
ATOM     23  C   UNL     1      -3.491  -3.388  24.346  0.00  0.00    +0.031 C 
ATOM     24  C   UNL     1      -4.063  -2.180  23.840  0.00  0.00    -0.004 A 
ATOM     25  C   UNL     1      -4.238  -1.380  23.932  0.00  0.00    +0.004 A 
ENDBRANCH  17  19
ENDBRANCH  12  14
BRANCH   3   2
ATOM      1  C   UNL     1      -0.846   5.773  24.717  0.00  0.00    +0.254 C 
ATOM      2  O   UNL     1      -1.477   5.396  25.095  0.00  0.00    -0.456 OA
ENDBRANCH   3   2
TORSDOF 3
ENDMDL
MODEL 2
REMARK VINA RESULT:     -11.2      1.690      5.899
REMARK  Name = 
REMARK  3 active torsions:
REMARK  status: ('A' for Active; 'I' for Inactive)
REMARK    1  A    between atoms: O_2  and  C_3
REMARK    2  A    between atoms: C_12  and  C_14
REMARK    3  A    between atoms: C_17  and  C_19
REMARK                            x       y       z     vdW  Elec       q    Type
REMARK                         _______ _______ _______ _____ _____    ______ ____
ROOT
ATOM      3  C   UNL     1      -3.559  -2.077  24.467  0.00  0.00    +0.229 A 
ATOM      4  N   UNL     1      -2.912  -1.655  24.757  0.00  0.00    -0.179 NA
ATOM      5  C   UNL     1      -2.919  -0.830  24.746  0.00  0.00    +0.223 A 
ATOM      6  N   UNL     1      -3.574  -0.428  24.447  0.00  0.00    -0.212 NA
ATOM      7  C   UNL     1      -4.221  -0.849  24.158  0.00  0.00    +0.107 A 
ATOM      8  C   UNL     1      -4.214  -1.674  24.168  0.00  0.00    +0.078 A 
ATOM      9  N   UNL     1      -2.272  -0.408  25.036  0.00  0.00    -0.278 N 
ATOM     10  C   UNL     1      -1.583  -0.734  25.350  0.00  0.00    +0.094 C 
ATOM     11  C   UNL     1      -1.085  -0.114  25.570  0.00  0.00    +0.033 C 
ATOM     12  C   UNL     1      -1.467   0.595  25.391  0.00  0.00    +0.100 C 
ATOM     13  C   UNL     1      -2.201   0.413  25.061  0.00  0.00    +0.103 C 
ENDROOT
BRANCH  12  14
ATOM     14  C   UNL     1      -1.169   1.353  25.520  0.00  0.00    +0.228 A 
ATOM     15  N   UNL     1      -0.478   1.539  25.932  0.00  0.00    -0.111 NA
ATOM     16  N   UNL     1      -0.390   2.359  25.926  0.00  0.00    -0.107 NA
ATOM     17  C   UNL     1      -1.027   2.681  25.511  0.00  0.00    +0.250 A 
ATOM     18  O   UNL     1      -1.508   2.059  25.260  0.00  0.00    -0.419 OA
BRANCH  17  19
ATOM     19  C   UNL     1      -1.159   3.483  25.371  0.00  0.00    +0.055 A 
ATOM     20  C   UNL     1      -1.848   3.842  25.648  0.00  0.00    +0.004 A 
ATOM     21  C   UNL     1      -1.980   4.644  25.508  0.00  0.00    -0.004 A 
ATOM     22  C   UNL     1      -1.423   5.087  25.091  0.00  0.00    -0.022 A 
ATOM     23  C   UNL     1      -1.555   5.889  24.951  0.00  0.00    +0.031 C 
ATOM     24  C   UNL     1      -0.734   4.728  24.814  0.00  0.00    -0.004 A 
ATOM     25  C   UNL     1      -0.602   3.926  24.953  0.00  0.00    +0.004 A 
ENDBRANCH  17  19
ENDBRANCH  12  14
BRANCH   3   2
ATOM      1  C   UNL     1      -3.881  -3.325  23.850  0.00  0.00    +0.254 C 
ATOM      2  O   UNL     1      -3.552  -2.902  24.478  0.00  0.00    -0.456 OA
ENDBRANCH   3   2
TORSDOF 3
ENDMDL
MODEL 3
REMARK VINA RESULT:     -10.5      1.360      5.555
REMARK  Name = 
REMARK  3 active torsions:
REMARK  status: ('A' for Active; 'I' for Inactive)
REMARK    1  A    between atoms: O_2  and  C_3
REMARK    2  A    between atoms: C_12  and  C_14
REMARK    3  A    between atoms: C_17  and  C_19
REMARK                            x       y       z     vdW  Elec       q    Type
REMARK                         _______ _______ _______ _____ _____    ______ ____
ROOT
ATOM      3  C   UNL     1      -3.201  -2.399  24.644  0.00  0.00    +0.229 A 
ATOM      4  N   UNL     1      -3.565  -1.661  24.701  0.00  0.00    -0.179 NA
ATOM      5  C   UNL     1      -3.106  -0.976  24.741  0.00  0.00    +0.223 A 
ATOM      6  N   UNL     1      -2.283  -1.031  24.724  0.00  0.00    -0.212 NA
ATOM      7  C   UNL     1      -1.919  -1.769  24.667  0.00  0.00    +0.107 A 
ATOM      8  C   UNL     1      -2.378  -2.453  24.627  0.00  0.00    +0.078 A 
ATOM      9  N   UNL     1      -3.470  -0.238  24.798  0.00  0.00    -0.278 N 
ATOM     10  C   UNL     1      -4.282  -0.100  24.820  0.00  0.00    +0.094 C 
ATOM     11  C   UNL     1      -4.400   0.715  24.878  0.00  0.00    +0.033 C 
ATOM     12  C   UNL     1      -3.660   1.079  24.891  0.00  0.00    +0.100 C 
ATOM     13  C   UNL     1      -3.085   0.489  24.841  0.00  0.00    +0.103 C 
ENDROOT
BRANCH  12  14
ATOM     14  C   UNL     1      -3.519   1.890  24.945  0.00  0.00    +0.228 A 
ATOM     15  N   UNL     1      -4.091   2.476  25.042  0.00  0.00    -0.111 NA
ATOM     16  N   UNL     1      -3.708   3.206  25.068  0.00  0.00    -0.107 NA
ATOM     17  C   UNL     1      -2.897   3.071  24.987  0.00  0.00    +0.250 A 
ATOM     18  O   UNL     1      -2.781   2.258  24.911  0.00  0.00    -0.419 OA
BRANCH  17  19
ATOM     19  C   UNL     1      -2.307   3.648  24.982  0.00  0.00    +0.055 A 
ATOM     20  C   UNL     1      -1.583   3.494  24.619  0.00  0.00    +0.004 A 
ATOM     21  C   UNL     1      -0.993   4.071  24.614  0.00  0.00    -0.004 A 
ATOM     22  C   UNL     1      -1.128   4.801  24.973  0.00  0.00    -0.022 A 
ATOM     23  C   UNL     1      -0.538   5.378  24.969  0.00  0.00    +0.031 C 
ATOM     24  C   UNL     1      -1.852   4.955  25.337  0.00  0.00    -0.004 A 
ATOM     25  C   UNL     1      -2.442   4.379  25.341  0.00  0.00    +0.004 A 
ENDBRANCH  17  19
ENDBRANCH  12  14
BRANCH   3   2
ATOM      1  C   UNL     1      -3.976  -3.327  23.882  0.00  0.00    +0.254 C 
ATOM      2  O   UNL     1      -3.660  -3.083  24.605  0.00  0.00    -0.456 OA
ENDBRANCH   3   2
TORSDOF 3
ENDMDL
MODEL 4
REMARK VINA RESULT:      -9.4      2.773      4.271
REMARK  Name = 
REMARK  3 active torsions:
REMARK  status: ('A' for Active; 'I' for Inactive)
REMARK    1  A    between atoms: O_2  and  C_3
REMARK    2  A    between atoms: C_12  and  C_14
REMARK    3  A    between atoms: C_17  and  C_19
REMARK                            x       y       z     vdW  Elec       q    Type
REMARK                         _______ _______ _______ _____ _____    ______ ____
ROOT
ATOM      3  C   UNL     1       1.346   0.472  23.291  0.00  0.00    +0.229 A 
ATOM      4  N   UNL     1       0.923   1.111  23.597  0.00  0.00    -0.179 NA
ATOM      5  C   UNL     1       0.127   1.020  23.800  0.00  0.00    +0.223 A 
ATOM      6  N   UNL     1      -0.243   0.291  23.697  0.00  0.00    -0.212 NA
ATOM      7  C   UNL     1       0.180  -0.348  23.392  0.00  0.00    +0.107 A 
ATOM      8  C   UNL     1       0.974  -0.258  23.189  0.00  0.00    +0.078 A 
ATOM      9  N   UNL     1      -0.296   1.659  24.106  0.00  0.00    -0.278 N 
ATOM     10  C   UNL     1       0.001   2.417  24.238  0.00  0.00    +0.094 C 
ATOM     11  C   UNL     1      -0.610   2.879  24.547  0.00  0.00    +0.033 C 
ATOM     12  C   UNL     1      -1.283   2.405  24.605  0.00  0.00    +0.100 C 
ATOM     13  C   UNL     1      -1.088   1.651  24.332  0.00  0.00    +0.103 C 
ENDROOT
BRANCH  12  14
ATOM     14  C   UNL     1      -2.021   2.643  24.886  0.00  0.00    +0.228 A 
ATOM     15  N   UNL     1      -2.171   3.311  25.348  0.00  0.00    -0.111 NA
ATOM     16  N   UNL     1      -2.981   3.337  25.502  0.00  0.00    -0.107 NA
ATOM     17  C   UNL     1      -3.331   2.685  25.136  0.00  0.00    +0.250 A 
ATOM     18  O   UNL     1      -2.738   2.257  24.755  0.00  0.00    -0.419 OA
BRANCH  17  19
ATOM     19  C   UNL     1      -4.135   2.495  25.148  0.00  0.00    +0.055 A 
ATOM     20  C   UNL     1      -4.687   3.057  25.394  0.00  0.00    +0.004 A 
ATOM     21  C   UNL     1      -5.490   2.867  25.406  0.00  0.00    -0.004 A 
ATOM     22  C   UNL     1      -5.740   2.116  25.172  0.00  0.00    -0.022 A 
ATOM     23  C   UNL     1      -6.542   1.927  25.185  0.00  0.00    +0.031 C 
ATOM     24  C   UNL     1      -5.187   1.555  24.927  0.00  0.00    -0.004 A 
ATOM     25  C   UNL     1      -4.385   1.745  24.914  0.00  0.00    +0.004 A 
ENDBRANCH  17  19
ENDBRANCH  12  14
BRANCH   3   2
ATOM      1  C   UNL     1       2.455   0.138  22.454  0.00  0.00    +0.254 C 
ATOM      2  O   UNL     1       2.140   0.563  23.089  0.00  0.00    -0.456 OA
ENDBRANCH   3   2
TORSDOF 3
ENDMDL
MODEL 5
REMARK VINA RESULT:      -9.3      3.498      4.029
REMARK  Name = 
REMARK  3 active torsions:
REMARK  status: ('A' for Active; 'I' for Inactive)
REMARK    1  A    between atoms: O_2  and  C_3
REMARK    2  A    between atoms: C_12  and  C_14
REMARK    3  A    between atoms: C_17  and  C_19
REMARK                            x       y       z     vdW  Elec       q    Type
REMARK                         _______ _______ _______ _____ _____    ______ ____
ROOT
ATOM      3  C   UNL     1       2.774   0.868  22.903  0.00  0.00    +0.229 A 
ATOM      4  N   UNL     1       2.110   1.060  23.353  0.00  0.00    -0.179 NA
ATOM      5  C   UNL     1       1.431   0.592  23.307  0.00  0.00    +0.223 A 
ATOM      6  N   UNL     1       1.418  -0.067  22.811  0.00  0.00    -0.212 NA
ATOM      7  C   UNL     1       2.082  -0.259  22.361  0.00  0.00    +0.107 A 
ATOM      8  C   UNL     1       2.760   0.209  22.407  0.00  0.00    +0.078 A 
ATOM      9  N   UNL     1       0.766   0.783  23.757  0.00  0.00    -0.278 N 
ATOM     10  C   UNL     1       0.700   1.422  24.274  0.00  0.00    +0.094 C 
ATOM     11  C   UNL     1      -0.056   1.403  24.605  0.00  0.00    +0.033 C 
ATOM     12  C   UNL     1      -0.455   0.753  24.292  0.00  0.00    +0.100 C 
ATOM     13  C   UNL     1       0.054   0.370  23.767  0.00  0.00    +0.103 C 
ENDROOT
BRANCH  12  14
ATOM     14  C   UNL     1      -1.227   0.525  24.472  0.00  0.00    +0.228 A 
ATOM     15  N   UNL     1      -1.755   0.938  24.954  0.00  0.00    -0.111 NA
ATOM     16  N   UNL     1      -2.461   0.514  24.981  0.00  0.00    -0.107 NA
ATOM     17  C   UNL     1      -2.371  -0.162  24.516  0.00  0.00    +0.250 A 
ATOM     18  O   UNL     1      -1.608  -0.155  24.201  0.00  0.00    -0.419 OA
BRANCH  17  19
ATOM     19  C   UNL     1      -2.943  -0.744  24.388  0.00  0.00    +0.055 A 
ATOM     20  C   UNL     1      -2.814  -1.514  24.655  0.00  0.00    +0.004 A 
ATOM     21  C   UNL     1      -3.386  -2.095  24.527  0.00  0.00    -0.004 A 
ATOM     22  C   UNL     1      -4.086  -1.906  24.133  0.00  0.00    -0.022 A 
ATOM     23  C   UNL     1      -4.657  -2.487  24.005  0.00  0.00    +0.031 C 
ATOM     24  C   UNL     1      -4.213  -1.135  23.866  0.00  0.00    -0.004 A 
ATOM     25  C   UNL     1      -3.642  -0.555  23.994  0.00  0.00    +0.004 A 
ENDBRANCH  17  19
ENDBRANCH  12  14
BRANCH   3   2
ATOM      1  C   UNL     1       4.198   0.990  22.867  0.00  0.00    +0.254 C 
ATOM      2  O   UNL     1       3.452   1.335  22.950  0.00  0.00    -0.456 OA
ENDBRANCH   3   2
TORSDOF 3
ENDMDL
MODEL 6
REMARK VINA RESULT:      -8.5      2.667      4.249
REMARK  Name = 
REMARK  3 active torsions:
REMARK  status: ('A' for Active; 'I' for Inactive)
REMARK    1  A    between atoms: O_2  and  C_3
REMARK    2  A    between atoms: C_12  and  C_14
REMARK    3  A    between atoms: C_17  and  C_19
REMARK                            x       y       z     vdW  Elec       q    Type
REMARK                         _______ _______ _______ _____ _____    ______ ____
ROOT
ATOM      3  C   UNL     1       0.988   0.241  23.437  0.00  0.00    +0.229 A 
ATOM      4  N   UNL     1       0.225  -0.013  23.620  0.00  0.00    -0.179 NA
ATOM      5  C   UNL     1      -0.334   0.526  23.898  0.00  0.00    +0.223 A 
ATOM      6  N   UNL     1      -0.129   1.320  23.993  0.00  0.00    -0.212 NA
ATOM      7  C   UNL     1       0.634   1.574  23.809  0.00  0.00    +0.107 A 
ATOM      8  C   UNL     1       1.192   1.035  23.532  0.00  0.00    +0.078 A 
ATOM      9  N   UNL     1      -1.097   0.272  24.081  0.00  0.00    -0.278 N 
ATOM     10  C   UNL     1      -1.379  -0.500  24.015  0.00  0.00    +0.094 C 
ATOM     11  C   UNL     1      -2.169  -0.505  24.256  0.00  0.00    +0.033 C 
ATOM     12  C   UNL     1      -2.373   0.265  24.471  0.00  0.00    +0.100 C 
ATOM     13  C   UNL     1      -1.711   0.745  24.363  0.00  0.00    +0.103 C 
ENDROOT
BRANCH  12  14
ATOM     14  C   UNL     1      -3.111   0.512  24.746  0.00  0.00    +0.228 A 
ATOM     15  N   UNL     1      -3.713   0.022  25.024  0.00  0.00    -0.111 NA
ATOM     16  N   UNL     1      -4.351   0.498  25.241  0.00  0.00    -0.107 NA
ATOM     17  C   UNL     1      -4.142   1.284  25.097  0.00  0.00    +0.250 A 
ATOM     18  O   UNL     1      -3.376   1.292  24.791  0.00  0.00    -0.419 OA
BRANCH  17  19
ATOM     19  C   UNL     1      -4.616   1.945  25.234  0.00  0.00    +0.055 A 
ATOM     20  C   UNL     1      -4.301   2.703  25.152  0.00  0.00    +0.004 A 
ATOM     21  C   UNL     1      -4.775   3.364  25.290  0.00  0.00    -0.004 A 
ATOM     22  C   UNL     1      -5.564   3.267  25.509  0.00  0.00    -0.022 A 
ATOM     23  C   UNL     1      -6.038   3.928  25.647  0.00  0.00    +0.031 C 
ATOM     24  C   UNL     1      -5.879   2.509  25.592  0.00  0.00    -0.004 A 
ATOM     25  C   UNL     1      -5.406   1.848  25.454  0.00  0.00    +0.004 A 
ENDBRANCH  17  19
ENDBRANCH  12  14
BRANCH   3   2
ATOM      1  C   UNL     1       2.173  -0.038  22.687  0.00  0.00    +0.254 C 
ATOM      2  O   UNL     1       1.547  -0.298  23.159  0.00  0.00    -0.456 OA
ENDBRANCH   3   2
TORSDOF 3
ENDMDL
