MODEL 1
REMARK VINA RESULT:     -10.1      0.000      0.000
REMARK  Name = 
REMARK  9 active torsions:
REMARK  status: ('A' for Active; 'I' for Inactive)
REMARK    1  A    between atoms: O_2  and  C_3
REMARK    2  A    between atoms: C_3  and  C_5
REMARK    3  A    between atoms: C_5  and  C_6
REMARK    4  A    between atoms: C_5  and  N_15
REMARK    5  A    between atoms: C_6  and  C_7
REMARK    6  A    between atoms: C_10  and  O_11
REMARK    7  A    between atoms: C_16  and  C_18
REMARK    8  A    between atoms: N_20  and  S_30
REMARK    9  A    between atoms: N_26  and  C_27
REMARK                            x       y       z     vdW  Elec       q    Type
REMARK                         _______ _______ _______ _____ _____    ______ ____
ROOT
ATOM     15  N   UNL     1      -2.080   1.191  24.495  0.00  0.00    -0.194 NA
ATOM     16  C   UNL     1      -2.523   0.684  24.972  0.00  0.00    +0.261 C 
ATOM     17  O   UNL     1      -2.141   0.148  25.469  0.00  0.00    -0.271 OA
ENDROOT
BRANCH  16  18
ATOM     18  C   UNL     1      -3.346   0.714  24.952  0.00  0.00    +0.173 C 
ATOM     19  C   UNL     1      -3.733   1.443  24.956  0.00  0.00    +0.125 C 
ATOM     20  N   UNL     1      -4.558   1.474  24.936  0.00  0.00    -0.155 NA
ATOM     21  C   UNL     1      -4.995   0.775  24.911  0.00  0.00    +0.117 C 
ATOM     22  C   UNL     1      -4.609   0.046  24.906  0.00  0.00    +0.115 C 
ATOM     23  N   UNL     1      -3.785   0.016  24.927  0.00  0.00    -0.253 N 
ATOM     24  C   UNL     1      -3.399  -0.713  24.922  0.00  0.00    +0.324 C 
ATOM     25  O   UNL     1      -2.574  -0.744  24.943  0.00  0.00    -0.251 OA
ATOM     26  N   UNL     1      -3.836  -1.412  24.897  0.00  0.00    -0.190 NA
BRANCH  20  30
ATOM     30  S   UNL     1      -4.944   2.203  24.940  0.00  0.00    +0.046 S 
ATOM     31  C   UNL     1      -5.330   2.932  24.945  0.00  0.00    +0.196 C 
ATOM     32  O   UNL     1      -5.090   2.120  25.748  0.00  0.00    -0.157 OA
ATOM     33  O   UNL     1      -4.797   2.286  24.132  0.00  0.00    -0.157 OA
ENDBRANCH  20  30
BRANCH  26  27
ATOM     27  C   UNL     1      -3.450  -2.141  24.893  0.00  0.00    +0.097 C 
ATOM     28  C   UNL     1      -3.243  -2.493  24.176  0.00  0.00    +0.023 C 
ATOM     29  C   UNL     1      -3.272  -2.517  25.604  0.00  0.00    +0.023 C 
ENDBRANCH  26  27
ENDBRANCH  16  18
BRANCH  15   5
ATOM      5  C   UNL     1      -1.255   1.161  24.515  0.00  0.00    +0.198 C 
BRANCH   5   3
ATOM      3  C   UNL     1      -0.843   0.734  23.942  0.00  0.00    +0.337 C 
ATOM      4  O   UNL     1      -1.052   0.803  23.147  0.00  0.00    -0.248 OA
BRANCH   3   2
ATOM      1  C   UNL     1       0.221  -0.151  23.588  0.00  0.00    +0.256 C 
ATOM      2  O   UNL     1      -0.223   0.237  24.165  0.00  0.00    -0.443 OA
ENDBRANCH   3   2
ENDBRANCH   5   3
BRANCH   5   6
ATOM      6  C   UNL     1      -0.843   1.559  25.109  0.00  0.00    +0.059 C 
BRANCH   6   7
ATOM      7  C   UNL     1      -0.807   2.383  25.103  0.00  0.00    -0.020 A 
ATOM      8  C   UNL     1      -0.590   2.782  24.414  0.00  0.00    -0.001 A 
ATOM      9  C   UNL     1      -0.555   3.607  24.410  0.00  0.00    +0.037 A 
ATOM     10  C   UNL     1      -0.736   4.031  25.093  0.00  0.00    +0.139 A 
ATOM     13  C   UNL     1      -0.953   3.632  25.781  0.00  0.00    +0.037 A 
ATOM     14  C   UNL     1      -0.989   2.808  25.787  0.00  0.00    -0.001 A 
BRANCH  10  11
ATOM     11  O   UNL     1      -0.700   4.856  25.088  0.00  0.00    -0.471 OA
ATOM     12  C   UNL     1      -1.395   5.299  25.059  0.00  0.00    +0.252 C 
ENDBRANCH  10  11
ENDBRANCH   6   7
ENDBRANCH   5   6
ENDBRANCH  15   5
TORSDOF 9
ENDMDL
MODEL 2
REMARK VINA RESULT:      -9.9      1.518      5.171
REMARK  Name = 
REMARK  9 active torsions:
REMARK  status: ('A' for Active; 'I' for Inactive)
REMARK    1  A    between atoms: O_2  and  C_3
REMARK    2  A    between atoms: C_3  and  C_5
REMARK    3  A    between atoms: C_5  and  C_6
REMARK    4  A    between atoms: C_5  and  N_15
REMARK    5  A    between atoms: C_6  and  C_7
REMARK    6  A    between atoms: C_10  and  O_11
REMARK    7  A    between atoms: C_16  and  C_18
REMARK    8  A    between atoms: N_20  and  S_30
REMARK    9  A    between atoms: N_26  and  C_27
REMARK                            x       y       z     vdW  Elec       q    Type
REMARK                         _______ _______ _______ _____ _____    ______ ____
ROOT
ATOM     15  N   UNL     1      -2.837   0.982  24.449  0.00  0.00    -0.194 NA
ATOM     16  C   UNL     1      -2.296   1.402  24.910  0.00  0.00    +0.261 C 
ATOM     17  O   UNL     1      -2.538   1.742  25.622  0.00  0.00    -0.271 OA
ENDROOT
BRANCH  16  18
ATOM     18  C   UNL     1      -1.514   1.481  24.659  0.00  0.00    +0.173 C 
ATOM     19  C   UNL     1      -1.114   0.831  24.346  0.00  0.00    +0.125 C 
ATOM     20  N   UNL     1      -0.332   0.909  24.095  0.00  0.00    -0.155 NA
ATOM     21  C   UNL     1       0.049   1.638  24.157  0.00  0.00    +0.117 C 
ATOM     22  C   UNL     1      -0.351   2.288  24.470  0.00  0.00    +0.115 C 
ATOM     23  N   UNL     1      -1.132   2.209  24.721  0.00  0.00    -0.253 N 
ATOM     24  C   UNL     1      -1.532   2.859  25.034  0.00  0.00    +0.324 C 
ATOM     25  O   UNL     1      -2.315   2.781  25.285  0.00  0.00    -0.251 OA
ATOM     26  N   UNL     1      -1.151   3.588  25.096  0.00  0.00    -0.190 NA
BRANCH  20  30
ATOM     30  S   UNL     1       0.068   0.259  23.782  0.00  0.00    +0.046 S 
ATOM     31  C   UNL     1       0.468  -0.391  23.469  0.00  0.00    +0.196 C 
ATOM     32  O   UNL     1      -0.012  -0.137  24.501  0.00  0.00    -0.157 OA
ATOM     33  O   UNL     1       0.149   0.655  23.063  0.00  0.00    -0.157 OA
ENDBRANCH  20  30
BRANCH  26  27
ATOM     27  C   UNL     1      -1.551   4.238  25.409  0.00  0.00    +0.097 C 
ATOM     28  C   UNL     1      -1.587   4.944  24.983  0.00  0.00    +0.023 C 
ATOM     29  C   UNL     1      -1.915   4.182  26.147  0.00  0.00    +0.023 C 
ENDBRANCH  26  27
ENDBRANCH  16  18
BRANCH  15   5
ATOM      5  C   UNL     1      -3.619   0.903  24.701  0.00  0.00    +0.198 C 
BRANCH   5   3
ATOM      3  C   UNL     1      -4.197   1.420  24.418  0.00  0.00    +0.337 C 
ATOM      4  O   UNL     1      -4.191   1.653  23.628  0.00  0.00    -0.248 OA
BRANCH   3   2
ATOM      1  C   UNL     1      -5.371   2.203  24.641  0.00  0.00    +0.256 C 
ATOM      2  O   UNL     1      -4.781   1.703  24.928  0.00  0.00    -0.443 OA
ENDBRANCH   3   2
ENDBRANCH   5   3
BRANCH   5   6
ATOM      6  C   UNL     1      -3.822   0.308  25.234  0.00  0.00    +0.059 C 
BRANCH   6   7
ATOM      7  C   UNL     1      -3.846  -0.478  24.983  0.00  0.00    -0.020 A 
ATOM      8  C   UNL     1      -4.188  -0.670  24.258  0.00  0.00    -0.001 A 
ATOM      9  C   UNL     1      -4.211  -1.456  24.008  0.00  0.00    +0.037 A 
ATOM     10  C   UNL     1      -3.892  -2.050  24.483  0.00  0.00    +0.139 A 
ATOM     13  C   UNL     1      -3.550  -1.858  25.209  0.00  0.00    +0.037 A 
ATOM     14  C   UNL     1      -3.526  -1.072  25.459  0.00  0.00    -0.001 A 
BRANCH  10  11
ATOM     11  O   UNL     1      -3.915  -2.836  24.234  0.00  0.00    -0.471 OA
ATOM     12  C   UNL     1      -3.289  -3.343  24.409  0.00  0.00    +0.252 C 
ENDBRANCH  10  11
ENDBRANCH   6   7
ENDBRANCH   5   6
ENDBRANCH  15   5
TORSDOF 9
ENDMDL
MODEL 3
REMARK VINA RESULT:      -9.8      1.285      4.205
REMARK  Name = 
REMARK  9 active torsions:
REMARK  status: ('A' for Active; 'I' for Inactive)
REMARK    1  A    between atoms: O_2  and  C_3
REMARK    2  A    between atoms: C_3  and  C_5
REMARK    3  A    between atoms: C_5  and  C_6
REMARK    4  A    between atoms: C_5  and  N_15
REMARK    5  A    between atoms: C_6  and  C_7
REMARK    6  A    between atoms: C_10  and  O_11
REMARK    7  A    between atoms: C_16  and  C_18
REMARK    8  A    between atoms: N_20  and  S_30
REMARK    9  A    between atoms: N_26  and  C_27
REMARK                            x       y       z     vdW  Elec       q    Type
REMARK                         _______ _______ _______ _____ _____    ______ ____
ROOT
ATOM     15  N   UNL     1      -2.441   1.122  24.616  0.00  0.00    -0.194 NA
ATOM     16  C   UNL     1      -2.448   1.806  25.077  0.00  0.00    +0.261 C 
ATOM     17  O   UNL     1      -1.820   1.962  25.590  0.00  0.00    -0.271 OA
ENDROOT
BRANCH  16  18
ATOM     18  C   UNL     1      -3.080   2.332  25.026  0.00  0.00    +0.173 C 
ATOM     19  C   UNL     1      -3.855   2.050  25.059  0.00  0.00    +0.125 C 
ATOM     20  N   UNL     1      -4.488   2.577  25.008  0.00  0.00    -0.155 NA
ATOM     21  C   UNL     1      -4.346   3.385  24.923  0.00  0.00    +0.117 C 
ATOM     22  C   UNL     1      -3.571   3.667  24.889  0.00  0.00    +0.115 C 
ATOM     23  N   UNL     1      -2.939   3.141  24.941  0.00  0.00    -0.253 N 
ATOM     24  C   UNL     1      -2.164   3.423  24.907  0.00  0.00    +0.324 C 
ATOM     25  O   UNL     1      -1.531   2.896  24.959  0.00  0.00    -0.251 OA
ATOM     26  N   UNL     1      -2.022   4.231  24.822  0.00  0.00    -0.190 NA
BRANCH  20  30
ATOM     30  S   UNL     1      -5.263   2.295  25.041  0.00  0.00    +0.046 S 
ATOM     31  C   UNL     1      -6.038   2.014  25.075  0.00  0.00    +0.196 C 
ATOM     32  O   UNL     1      -5.247   2.154  24.229  0.00  0.00    -0.157 OA
ATOM     33  O   UNL     1      -5.279   2.437  25.854  0.00  0.00    -0.157 OA
ENDBRANCH  20  30
BRANCH  26  27
ATOM     27  C   UNL     1      -1.247   4.512  24.788  0.00  0.00    +0.097 C 
ATOM     28  C   UNL     1      -0.951   4.976  25.403  0.00  0.00    +0.023 C 
ATOM     29  C   UNL     1      -0.770   4.330  24.141  0.00  0.00    +0.023 C 
ENDBRANCH  26  27
ENDBRANCH  16  18
BRANCH  15   5
ATOM      5  C   UNL     1      -1.808   0.595  24.667  0.00  0.00    +0.198 C 
BRANCH   5   3
ATOM      3  C   UNL     1      -1.201   0.624  24.109  0.00  0.00    +0.337 C 
ATOM      4  O   UNL     1      -1.380   0.698  23.308  0.00  0.00    -0.248 OA
BRANCH   3   2
ATOM      1  C   UNL     1       0.193   0.596  23.796  0.00  0.00    +0.256 C 
ATOM      2  O   UNL     1      -0.414   0.578  24.354  0.00  0.00    -0.443 OA
ENDBRANCH   3   2
ENDBRANCH   5   3
BRANCH   5   6
ATOM      6  C   UNL     1      -1.783   0.039  25.276  0.00  0.00    +0.059 C 
BRANCH   6   7
ATOM      7  C   UNL     1      -2.219  -0.659  25.214  0.00  0.00    -0.020 A 
ATOM      8  C   UNL     1      -1.971  -1.256  24.701  0.00  0.00    -0.001 A 
ATOM      9  C   UNL     1      -2.408  -1.953  24.640  0.00  0.00    +0.037 A 
ATOM     10  C   UNL     1      -3.090  -2.054  25.091  0.00  0.00    +0.139 A 
ATOM     13  C   UNL     1      -3.338  -1.458  25.604  0.00  0.00    +0.037 A 
ATOM     14  C   UNL     1      -2.902  -0.760  25.666  0.00  0.00    -0.001 A 
BRANCH  10  11
ATOM     11  O   UNL     1      -3.526  -2.752  25.029  0.00  0.00    -0.471 OA
ATOM     12  C   UNL     1      -3.860  -2.969  24.307  0.00  0.00    +0.252 C 
ENDBRANCH  10  11
ENDBRANCH   6   7
ENDBRANCH   5   6
ENDBRANCH  15   5
TORSDOF 9
ENDMDL
MODEL 4
REMARK VINA RESULT:      -9.5      1.554      3.747
REMARK  Name = 
REMARK  9 active torsions:
REMARK  status: ('A' for Active; 'I' for Inactive)
REMARK    1  A    between atoms: O_2  and  C_3
REMARK    2  A    between atoms: C_3  and  C_5
REMARK    3  A    between atoms: C_5  and  C_6
REMARK    4  A    between atoms: C_5  and  N_15
REMARK    5  A    between atoms: C_6  and  C_7
REMARK    6  A    between atoms: C_10  and  O_11
REMARK    7  A    between atoms: C_16  and  C_18
REMARK    8  A    between atoms: N_20  and  S_30
REMARK    9  A    between atoms: N_26  and  C_27
REMARK                            x       y       z     vdW  Elec       q    Type
REMARK                         _______ _______ _______ _____ _____    ______ ____
ROOT
ATOM     15  N   UNL     1      -1.928   1.491  24.668  0.00  0.00    -0.194 NA
ATOM     16  C   UNL     1      -1.630   0.952  24.119  0.00  0.00    +0.261 C 
ATOM     17  O   UNL     1      -1.382   1.214  23.377  0.00  0.00    -0.271 OA
ENDROOT
BRANCH  16  18
ATOM     18  C   UNL     1      -1.581   0.152  24.311  0.00  0.00    +0.173 C 
ATOM     19  C   UNL     1      -2.211  -0.220  24.693  0.00  0.00    +0.125 C 
ATOM     20  N   UNL     1      -2.163  -1.021  24.886  0.00  0.00    -0.155 NA
ATOM     21  C   UNL     1      -1.484  -1.450  24.697  0.00  0.00    +0.117 C 
ATOM     22  C   UNL     1      -0.854  -1.078  24.315  0.00  0.00    +0.115 C 
ATOM     23  N   UNL     1      -0.903  -0.278  24.122  0.00  0.00    -0.253 N 
ATOM     24  C   UNL     1      -0.273   0.093  23.741  0.00  0.00    +0.324 C 
ATOM     25  O   UNL     1      -0.321   0.895  23.548  0.00  0.00    -0.251 OA
ATOM     26  N   UNL     1       0.406  -0.335  23.552  0.00  0.00    -0.190 NA
BRANCH  20  30
ATOM     30  S   UNL     1      -2.793  -1.393  25.268  0.00  0.00    +0.046 S 
ATOM     31  C   UNL     1      -3.423  -1.764  25.649  0.00  0.00    +0.196 C 
ATOM     32  O   UNL     1      -2.512  -1.122  25.995  0.00  0.00    -0.157 OA
ATOM     33  O   UNL     1      -3.074  -1.663  24.541  0.00  0.00    -0.157 OA
ENDBRANCH  20  30
BRANCH  26  27
ATOM     27  C   UNL     1       1.036   0.036  23.170  0.00  0.00    +0.097 C 
ATOM     28  C   UNL     1       1.494   0.591  23.575  0.00  0.00    +0.023 C 
ATOM     29  C   UNL     1       1.208  -0.147  22.385  0.00  0.00    +0.023 C 
ENDBRANCH  26  27
ENDBRANCH  16  18
BRANCH  15   5
ATOM      5  C   UNL     1      -1.977   2.292  24.475  0.00  0.00    +0.198 C 
BRANCH   5   3
ATOM      3  C   UNL     1      -1.410   2.820  24.758  0.00  0.00    +0.337 C 
ATOM      4  O   UNL     1      -1.067   3.369  24.247  0.00  0.00    -0.248 OA
BRANCH   3   2
ATOM      1  C   UNL     1      -0.571   3.279  25.820  0.00  0.00    +0.256 C 
ATOM      2  O   UNL     1      -1.185   2.797  25.552  0.00  0.00    -0.443 OA
ENDBRANCH   3   2
ENDBRANCH   5   3
BRANCH   5   6
ATOM      6  C   UNL     1      -2.594   2.564  24.000  0.00  0.00    +0.059 C 
BRANCH   6   7
ATOM      7  C   UNL     1      -3.330   2.727  24.335  0.00  0.00    -0.020 A 
ATOM      8  C   UNL     1      -3.939   2.173  24.283  0.00  0.00    -0.001 A 
ATOM      9  C   UNL     1      -4.675   2.337  24.618  0.00  0.00    +0.037 A 
ATOM     10  C   UNL     1      -4.802   3.053  25.005  0.00  0.00    +0.139 A 
ATOM     13  C   UNL     1      -4.193   3.607  25.058  0.00  0.00    +0.037 A 
ATOM     14  C   UNL     1      -3.457   3.445  24.723  0.00  0.00    -0.001 A 
BRANCH  10  11
ATOM     11  O   UNL     1      -5.538   3.217  25.341  0.00  0.00    -0.471 OA
ATOM     12  C   UNL     1      -5.859   2.706  25.902  0.00  0.00    +0.252 C 
ENDBRANCH  10  11
ENDBRANCH   6   7
ENDBRANCH   5   6
ENDBRANCH  15   5
TORSDOF 9
ENDMDL
MODEL 5
REMARK VINA RESULT:      -9.4      1.536      3.198
REMARK  Name = 
REMARK  9 active torsions:
REMARK  status: ('A' for Active; 'I' for Inactive)
REMARK    1  A    between atoms: O_2  and  C_3
REMARK    2  A    between atoms: C_3  and  C_5
REMARK    3  A    between atoms: C_5  and  C_6
REMARK    4  A    between atoms: C_5  and  N_15
REMARK    5  A    between atoms: C_6  and  C_7
REMARK    6  A    between atoms: C_10  and  O_11
REMARK    7  A    between atoms: C_16  and  C_18
REMARK    8  A    between atoms: N_20  and  S_30
REMARK    9  A    between atoms: N_26  and  C_27
REMARK                            x       y       z     vdW  Elec       q    Type
REMARK                         _______ _______ _______ _____ _____    ______ ____
ROOT
ATOM     15  N   UNL     1      -2.218   1.438  24.409  0.00  0.00    -0.194 NA
ATOM     16  C   UNL     1      -2.065   0.715  24.775  0.00  0.00    +0.261 C 
ATOM     17  O   UNL     1      -2.481   0.501  25.455  0.00  0.00    -0.271 OA
ENDROOT
BRANCH  16  18
ATOM     18  C   UNL     1      -1.496   0.207  24.462  0.00  0.00    +0.173 C 
ATOM     19  C   UNL     1      -0.774   0.507  24.200  0.00  0.00    +0.125 C 
ATOM     20  N   UNL     1      -0.204  -0.002  23.887  0.00  0.00    -0.155 NA
ATOM     21  C   UNL     1      -0.358  -0.810  23.835  0.00  0.00    +0.117 C 
ATOM     22  C   UNL     1      -1.080  -1.111  24.097  0.00  0.00    +0.115 C 
ATOM     23  N   UNL     1      -1.649  -0.603  24.410  0.00  0.00    -0.253 N 
ATOM     24  C   UNL     1      -2.371  -0.903  24.671  0.00  0.00    +0.324 C 
ATOM     25  O   UNL     1      -2.941  -0.395  24.985  0.00  0.00    -0.251 OA
ATOM     26  N   UNL     1      -2.525  -1.712  24.620  0.00  0.00    -0.190 NA
BRANCH  20  30
ATOM     30  S   UNL     1       0.519   0.299  23.625  0.00  0.00    +0.046 S 
ATOM     31  C   UNL     1       1.241   0.599  23.364  0.00  0.00    +0.196 C 
ATOM     32  O   UNL     1       0.610   0.700  24.340  0.00  0.00    -0.157 OA
ATOM     33  O   UNL     1       0.427  -0.103  22.910  0.00  0.00    -0.157 OA
ENDBRANCH  20  30
BRANCH  26  27
ATOM     27  C   UNL     1      -3.248  -2.012  24.881  0.00  0.00    +0.097 C 
ATOM     28  C   UNL     1      -3.323  -2.289  25.655  0.00  0.00    +0.023 C 
ATOM     29  C   UNL     1      -3.893  -2.037  24.369  0.00  0.00    +0.023 C 
ENDBRANCH  26  27
ENDBRANCH  16  18
BRANCH  15   5
ATOM      5  C   UNL     1      -2.787   1.947  24.722  0.00  0.00    +0.198 C 
BRANCH   5   3
ATOM      3  C   UNL     1      -3.513   2.040  24.340  0.00  0.00    +0.337 C 
ATOM      4  O   UNL     1      -3.536   2.188  23.530  0.00  0.00    -0.248 OA
BRANCH   3   2
ATOM      1  C   UNL     1      -4.941   2.060  24.386  0.00  0.00    +0.256 C 
ATOM      2  O   UNL     1      -4.215   1.983  24.771  0.00  0.00    -0.443 OA
ENDBRANCH   3   2
ENDBRANCH   5   3
BRANCH   5   6
ATOM      6  C   UNL     1      -2.630   2.363  25.416  0.00  0.00    +0.059 C 
BRANCH   6   7
ATOM      7  C   UNL     1      -2.310   3.122  25.378  0.00  0.00    -0.020 A 
ATOM      8  C   UNL     1      -1.563   3.239  25.047  0.00  0.00    -0.001 A 
ATOM      9  C   UNL     1      -1.243   3.999  25.009  0.00  0.00    +0.037 A 
ATOM     10  C   UNL     1      -1.670   4.641  25.300  0.00  0.00    +0.139 A 
ATOM     13  C   UNL     1      -2.417   4.525  25.630  0.00  0.00    +0.037 A 
ATOM     14  C   UNL     1      -2.737   3.765  25.669  0.00  0.00    -0.001 A 
BRANCH  10  11
ATOM     11  O   UNL     1      -1.351   5.401  25.262  0.00  0.00    -0.471 OA
ATOM     12  C   UNL     1      -0.789   5.585  24.687  0.00  0.00    +0.252 C 
ENDBRANCH  10  11
ENDBRANCH   6   7
ENDBRANCH   5   6
ENDBRANCH  15   5
TORSDOF 9
ENDMDL
MODEL 6
REMARK VINA RESULT:      -9.2      1.391      3.976
REMARK  Name = 
REMARK  9 active torsions:
REMARK  status: ('A' for Active; 'I' for Inactive)
REMARK    1  A    between atoms: O_2  and  C_3
REMARK    2  A    between atoms: C_3  and  C_5
REMARK    3  A    between atoms: C_5  and  C_6
REMARK    4  A    between atoms: C_5  and  N_15
REMARK    5  A    between atoms: C_6  and  C_7
REMARK    6  A    between atoms: C_10  and  O_11
REMARK    7  A    between atoms: C_16  and  C_18
REMARK    8  A    between atoms: N_20  and  S_30
REMARK    9  A    between atoms: N_26  and  C_27
REMARK                            x       y       z     vdW  Elec       q    Type
REMARK                         _______ _______ _______ _____ _____    ______ ____
ROOT
ATOM     15  N   UNL     1      -2.501   1.147  24.694  0.00  0.00    -0.194 NA
ATOM     16  C   UNL     1      -1.922   1.306  24.128  0.00  0.00    +0.261 C 
ATOM     17  O   UNL     1      -1.968   0.956  23.382  0.00  0.00    -0.271 OA
ENDROOT
BRANCH  16  18
ATOM     18  C   UNL     1      -1.298   1.814  24.307  0.00  0.00    +0.173 C 
ATOM     19  C   UNL     1      -1.452   2.564  24.614  0.00  0.00    +0.125 C 
ATOM     20  N   UNL     1      -0.828   3.073  24.794  0.00  0.00    -0.155 NA
ATOM     21  C   UNL     1      -0.050   2.831  24.667  0.00  0.00    +0.117 C 
ATOM     22  C   UNL     1       0.105   2.081  24.359  0.00  0.00    +0.115 C 
ATOM     23  N   UNL     1      -0.519   1.573  24.180  0.00  0.00    -0.253 N 
ATOM     24  C   UNL     1      -0.365   0.823  23.873  0.00  0.00    +0.324 C 
ATOM     25  O   UNL     1      -0.990   0.314  23.693  0.00  0.00    -0.251 OA
ATOM     26  N   UNL     1       0.413   0.581  23.745  0.00  0.00    -0.190 NA
BRANCH  20  30
ATOM     30  S   UNL     1      -0.982   3.823  25.102  0.00  0.00    +0.046 S 
ATOM     31  C   UNL     1      -1.136   4.573  25.409  0.00  0.00    +0.196 C 
ATOM     32  O   UNL     1      -0.879   4.151  24.352  0.00  0.00    -0.157 OA
ATOM     33  O   UNL     1      -1.085   3.494  25.852  0.00  0.00    -0.157 OA
ENDBRANCH  20  30
BRANCH  26  27
ATOM     27  C   UNL     1       0.567  -0.169  23.438  0.00  0.00    +0.097 C 
ATOM     28  C   UNL     1       0.867  -0.247  22.673  0.00  0.00    +0.023 C 
ATOM     29  C   UNL     1       0.422  -0.839  23.895  0.00  0.00    +0.023 C 
ENDBRANCH  26  27
ENDBRANCH  16  18
BRANCH  15   5
ATOM      5  C   UNL     1      -3.126   0.639  24.514  0.00  0.00    +0.198 C 
BRANCH   5   3
ATOM      3  C   UNL     1      -3.108  -0.144  24.774  0.00  0.00    +0.337 C 
ATOM      4  O   UNL     1      -3.286  -0.756  24.251  0.00  0.00    -0.248 OA
BRANCH   3   2
ATOM      1  C   UNL     1      -2.933  -1.094  25.827  0.00  0.00    +0.256 C 
ATOM      2  O   UNL     1      -2.913  -0.314  25.557  0.00  0.00    -0.443 OA
ENDBRANCH   3   2
ENDBRANCH   5   3
BRANCH   5   6
ATOM      6  C   UNL     1      -3.768   0.914  24.075  0.00  0.00    +0.059 C 
BRANCH   6   7
ATOM      7  C   UNL     1      -4.325   1.410  24.428  0.00  0.00    -0.020 A 
ATOM      8  C   UNL     1      -4.850   1.108  24.988  0.00  0.00    -0.001 A 
ATOM      9  C   UNL     1      -5.407   1.606  25.340  0.00  0.00    +0.037 A 
ATOM     10  C   UNL     1      -5.439   2.403  25.132  0.00  0.00    +0.139 A 
ATOM     13  C   UNL     1      -4.914   2.704  24.571  0.00  0.00    +0.037 A 
ATOM     14  C   UNL     1      -4.357   2.208  24.219  0.00  0.00    -0.001 A 
BRANCH  10  11
ATOM     11  O   UNL     1      -5.995   2.900  25.484  0.00  0.00    -0.471 OA
ATOM     12  C   UNL     1      -5.788   3.670  25.692  0.00  0.00    +0.252 C 
ENDBRANCH  10  11
ENDBRANCH   6   7
ENDBRANCH   5   6
ENDBRANCH  15   5
TORSDOF 9
ENDMDL
MODEL 7
REMARK VINA RESULT:      -9.0      1.515      3.006
REMARK  Name = 
REMARK  9 active torsions:
REMARK  status: ('A' for Active; 'I' for Inactive)
REMARK    1  A    between atoms: O_2  and  C_3
REMARK    2  A    between atoms: C_3  and  C_5
REMARK    3  A    between atoms: C_5  and  C_6
REMARK    4  A    between atoms: C_5  and  N_15
REMARK    5  A    between atoms: C_6  and  C_7
REMARK    6  A    between atoms: C_10  and  O_11
REMARK    7  A    between atoms: C_16  and  C_18
REMARK    8  A    between atoms: N_20  and  S_30
REMARK    9  A    between atoms: N_26  and  C_27
REMARK                            x       y       z     vdW  Elec       q    Type
REMARK                         _______ _______ _______ _____ _____    ______ ____
ROOT
ATOM     15  N   UNL     1      -2.475   1.278  24.047  0.00  0.00    -0.194 NA
ATOM     16  C   UNL     1      -3.270   1.057  24.044  0.00  0.00    +0.261 C 
ATOM     17  O   UNL     1      -3.820   1.499  23.617  0.00  0.00    -0.271 OA
ENDROOT
BRANCH  16  18
ATOM     18  C   UNL     1      -3.514   0.394  24.469  0.00  0.00    +0.173 C 
ATOM     19  C   UNL     1      -3.079  -0.306  24.427  0.00  0.00    +0.125 C 
ATOM     20  N   UNL     1      -3.323  -0.971  24.852  0.00  0.00    -0.155 NA
ATOM     21  C   UNL     1      -4.002  -0.934  25.319  0.00  0.00    +0.117 C 
ATOM     22  C   UNL     1      -4.437  -0.234  25.362  0.00  0.00    +0.115 C 
ATOM     23  N   UNL     1      -4.193   0.429  24.937  0.00  0.00    -0.253 N 
ATOM     24  C   UNL     1      -4.627   1.129  24.980  0.00  0.00    +0.324 C 
ATOM     25  O   UNL     1      -4.383   1.793  24.554  0.00  0.00    -0.251 OA
ATOM     26  N   UNL     1      -5.306   1.166  25.447  0.00  0.00    -0.190 NA
BRANCH  20  30
ATOM     30  S   UNL     1      -2.889  -1.670  24.809  0.00  0.00    +0.046 S 
ATOM     31  C   UNL     1      -2.454  -2.370  24.767  0.00  0.00    +0.196 C 
ATOM     32  O   UNL     1      -2.420  -1.418  25.439  0.00  0.00    -0.157 OA
ATOM     33  O   UNL     1      -3.358  -1.923  24.179  0.00  0.00    -0.157 OA
ENDBRANCH  20  30
BRANCH  26  27
ATOM     27  C   UNL     1      -5.741   1.866  25.490  0.00  0.00    +0.097 C 
ATOM     28  C   UNL     1      -6.409   1.965  25.016  0.00  0.00    +0.023 C 
ATOM     29  C   UNL     1      -5.507   2.465  26.005  0.00  0.00    +0.023 C 
ENDBRANCH  26  27
ENDBRANCH  16  18
BRANCH  15   5
ATOM      5  C   UNL     1      -2.231   1.942  23.621  0.00  0.00    +0.198 C 
BRANCH   5   3
ATOM      3  C   UNL     1      -2.143   1.899  22.802  0.00  0.00    +0.337 C 
ATOM      4  O   UNL     1      -1.661   1.319  22.470  0.00  0.00    -0.248 OA
BRANCH   3   2
ATOM      1  C   UNL     1      -2.492   2.361  21.496  0.00  0.00    +0.256 C 
ATOM      2  O   UNL     1      -2.539   2.436  22.316  0.00  0.00    -0.443 OA
ENDBRANCH   3   2
ENDBRANCH   5   3
BRANCH   5   6
ATOM      6  C   UNL     1      -2.074   2.649  24.016  0.00  0.00    +0.059 C 
BRANCH   6   7
ATOM      7  C   UNL     1      -1.447   2.692  24.550  0.00  0.00    -0.020 A 
ATOM      8  C   UNL     1      -0.702   2.409  24.336  0.00  0.00    -0.001 A 
ATOM      9  C   UNL     1      -0.075   2.452  24.871  0.00  0.00    +0.037 A 
ATOM     10  C   UNL     1      -0.193   2.777  25.620  0.00  0.00    +0.139 A 
ATOM     13  C   UNL     1      -0.938   3.059  25.834  0.00  0.00    +0.037 A 
ATOM     14  C   UNL     1      -1.565   3.017  25.300  0.00  0.00    -0.001 A 
BRANCH  10  11
ATOM     11  O   UNL     1       0.434   2.820  26.155  0.00  0.00    -0.471 OA
ATOM     12  C   UNL     1       0.385   2.429  26.879  0.00  0.00    +0.252 C 
ENDBRANCH  10  11
ENDBRANCH   6   7
ENDBRANCH   5   6
ENDBRANCH  15   5
TORSDOF 9
ENDMDL
MODEL 8
REMARK VINA RESULT:      -9.0      1.824      4.095
REMARK  Name = 
REMARK  9 active torsions:
REMARK  status: ('A' for Active; 'I' for Inactive)
REMARK    1  A    between atoms: O_2  and  C_3
REMARK    2  A    between atoms: C_3  and  C_5
REMARK    3  A    between atoms: C_5  and  C_6
REMARK    4  A    between atoms: C_5  and  N_15
REMARK    5  A    between atoms: C_6  and  C_7
REMARK    6  A    between atoms: C_10  and  O_11
REMARK    7  A    between atoms: C_16  and  C_18
REMARK    8  A    between atoms: N_20  and  S_30
REMARK    9  A    between atoms: N_26  and  C_27
REMARK                            x       y       z     vdW  Elec       q    Type
REMARK                         _______ _______ _______ _____ _____    ______ ____
ROOT
ATOM     15  N   UNL     1      -2.743   1.310  24.094  0.00  0.00    -0.194 NA
ATOM     16  C   UNL     1      -1.940   1.139  24.180  0.00  0.00    +0.261 C 
ATOM     17  O   UNL     1      -1.377   1.591  23.781  0.00  0.00    -0.271 OA
ENDROOT
BRANCH  16  18
ATOM     18  C   UNL     1      -1.702   0.516  24.665  0.00  0.00    +0.173 C 
ATOM     19  C   UNL     1      -1.976  -0.248  24.520  0.00  0.00    +0.125 C 
ATOM     20  N   UNL     1      -1.738  -0.872  25.005  0.00  0.00    -0.155 NA
ATOM     21  C   UNL     1      -1.225  -0.730  25.635  0.00  0.00    +0.117 C 
ATOM     22  C   UNL     1      -0.950   0.034  25.781  0.00  0.00    +0.115 C 
ATOM     23  N   UNL     1      -1.189   0.657  25.296  0.00  0.00    -0.253 N 
ATOM     24  C   UNL     1      -0.914   1.421  25.441  0.00  0.00    +0.324 C 
ATOM     25  O   UNL     1      -1.153   2.045  24.956  0.00  0.00    -0.251 OA
ATOM     26  N   UNL     1      -0.401   1.563  26.071  0.00  0.00    -0.190 NA
BRANCH  20  30
ATOM     30  S   UNL     1      -2.012  -1.636  24.860  0.00  0.00    +0.046 S 
ATOM     31  C   UNL     1      -2.287  -2.400  24.715  0.00  0.00    +0.196 C 
ATOM     32  O   UNL     1      -2.657  -1.499  25.356  0.00  0.00    -0.157 OA
ATOM     33  O   UNL     1      -1.367  -1.774  24.365  0.00  0.00    -0.157 OA
ENDBRANCH  20  30
BRANCH  26  27
ATOM     27  C   UNL     1      -0.127   2.327  26.216  0.00  0.00    +0.097 C 
ATOM     28  C   UNL     1       0.581   2.582  25.877  0.00  0.00    +0.023 C 
ATOM     29  C   UNL     1      -0.559   2.835  26.700  0.00  0.00    +0.023 C 
ENDBRANCH  26  27
ENDBRANCH  16  18
BRANCH  15   5
ATOM      5  C   UNL     1      -2.982   1.934  23.608  0.00  0.00    +0.198 C 
BRANCH   5   3
ATOM      3  C   UNL     1      -2.990   1.839  22.789  0.00  0.00    +0.337 C 
ATOM      4  O   UNL     1      -3.265   1.136  22.458  0.00  0.00    -0.248 OA
BRANCH   3   2
ATOM      1  C   UNL     1      -2.699   2.341  21.483  0.00  0.00    +0.256 C 
ATOM      2  O   UNL     1      -2.722   2.448  22.301  0.00  0.00    -0.443 OA
ENDBRANCH   3   2
ENDBRANCH   5   3
BRANCH   5   6
ATOM      6  C   UNL     1      -3.213   2.651  23.943  0.00  0.00    +0.059 C 
BRANCH   6   7
ATOM      7  C   UNL     1      -3.896   2.689  24.404  0.00  0.00    -0.020 A 
ATOM      8  C   UNL     1      -4.545   2.213  24.220  0.00  0.00    -0.001 A 
ATOM      9  C   UNL     1      -5.228   2.252  24.682  0.00  0.00    +0.037 A 
ATOM     10  C   UNL     1      -5.262   2.765  25.326  0.00  0.00    +0.139 A 
ATOM     13  C   UNL     1      -4.614   3.241  25.509  0.00  0.00    +0.037 A 
ATOM     14  C   UNL     1      -3.931   3.203  25.049  0.00  0.00    -0.001 A 
BRANCH  10  11
ATOM     11  O   UNL     1      -5.945   2.804  25.788  0.00  0.00    -0.471 OA
ATOM     12  C   UNL     1      -6.211   2.135  26.188  0.00  0.00    +0.252 C 
ENDBRANCH  10  11
ENDBRANCH   6   7
ENDBRANCH   5   6
ENDBRANCH  15   5
TORSDOF 9
ENDMDL
MODEL 9
REMARK VINA RESULT:      -8.8      1.668      4.486
REMARK  Name = 
REMARK  9 active torsions:
REMARK  status: ('A' for Active; 'I' for Inactive)
REMARK    1  A    between atoms: O_2  and  C_3
REMARK    2  A    between atoms: C_3  and  C_5
REMARK    3  A    between atoms: C_5  and  C_6
REMARK    4  A    between atoms: C_5  and  N_15
REMARK    5  A    between atoms: C_6  and  C_7
REMARK    6  A    between atoms: C_10  and  O_11
REMARK    7  A    between atoms: C_16  and  C_18
REMARK    8  A    between atoms: N_20  and  S_30
REMARK    9  A    between atoms: N_26  and  C_27
REMARK                            x       y       z     vdW  Elec       q    Type
REMARK                         _______ _______ _______ _____ _____    ______ ____
ROOT
ATOM     15  N   UNL     1      -2.910   1.722  24.412  0.00  0.00    -0.194 NA
ATOM     16  C   UNL     1      -3.263   2.464  24.334  0.00  0.00    +0.261 C 
ATOM     17  O   UNL     1      -3.826   2.592  23.745  0.00  0.00    -0.271 OA
ENDROOT
BRANCH  16  18
ATOM     18  C   UNL     1      -3.053   3.076  24.845  0.00  0.00    +0.173 C 
ATOM     19  C   UNL     1      -2.282   3.370  24.840  0.00  0.00    +0.125 C 
ATOM     20  N   UNL     1      -2.071   3.983  25.351  0.00  0.00    -0.155 NA
ATOM     21  C   UNL     1      -2.631   4.301  25.867  0.00  0.00    +0.117 C 
ATOM     22  C   UNL     1      -3.402   4.006  25.871  0.00  0.00    +0.115 C 
ATOM     23  N   UNL     1      -3.612   3.394  25.361  0.00  0.00    -0.253 N 
ATOM     24  C   UNL     1      -4.383   3.100  25.366  0.00  0.00    +0.324 C 
ATOM     25  O   UNL     1      -4.594   2.487  24.855  0.00  0.00    -0.251 OA
ATOM     26  N   UNL     1      -4.943   3.417  25.881  0.00  0.00    -0.190 NA
BRANCH  20  30
ATOM     30  S   UNL     1      -1.300   4.278  25.346  0.00  0.00    +0.046 S 
ATOM     31  C   UNL     1      -0.530   4.572  25.342  0.00  0.00    +0.196 C 
ATOM     32  O   UNL     1      -1.035   3.590  25.716  0.00  0.00    -0.157 OA
ATOM     33  O   UNL     1      -1.566   4.966  24.977  0.00  0.00    -0.157 OA
ENDBRANCH  20  30
BRANCH  26  27
ATOM     27  C   UNL     1      -5.714   3.123  25.886  0.00  0.00    +0.097 C 
ATOM     28  C   UNL     1      -6.313   3.530  25.491  0.00  0.00    +0.023 C 
ATOM     29  C   UNL     1      -5.885   2.422  26.285  0.00  0.00    +0.023 C 
ENDBRANCH  26  27
ENDBRANCH  16  18
BRANCH  15   5
ATOM      5  C   UNL     1      -3.121   1.109  23.901  0.00  0.00    +0.198 C 
BRANCH   5   3
ATOM      3  C   UNL     1      -2.653   0.942  23.242  0.00  0.00    +0.337 C 
ATOM      4  O   UNL     1      -2.998   0.890  22.495  0.00  0.00    -0.248 OA
BRANCH   3   2
ATOM      1  C   UNL     1      -1.350   0.827  22.668  0.00  0.00    +0.256 C 
ATOM      2  O   UNL     1      -1.841   0.828  23.331  0.00  0.00    -0.443 OA
ENDBRANCH   3   2
ENDBRANCH   5   3
BRANCH   5   6
ATOM      6  C   UNL     1      -3.798   0.663  24.050  0.00  0.00    +0.059 C 
BRANCH   6   7
ATOM      7  C   UNL     1      -3.732  -0.085  24.393  0.00  0.00    -0.020 A 
ATOM      8  C   UNL     1      -3.354  -0.173  25.121  0.00  0.00    -0.001 A 
ATOM      9  C   UNL     1      -3.288  -0.921  25.463  0.00  0.00    +0.037 A 
ATOM     10  C   UNL     1      -3.600  -1.580  25.078  0.00  0.00    +0.139 A 
ATOM     13  C   UNL     1      -3.978  -1.492  24.350  0.00  0.00    +0.037 A 
ATOM     14  C   UNL     1      -4.044  -0.744  24.007  0.00  0.00    -0.001 A 
BRANCH  10  11
ATOM     11  O   UNL     1      -3.534  -2.328  25.420  0.00  0.00    -0.471 OA
ATOM     12  C   UNL     1      -3.239  -2.959  24.979  0.00  0.00    +0.252 C 
ENDBRANCH  10  11
ENDBRANCH   6   7
ENDBRANCH   5   6
ENDBRANCH  15   5
TORSDOF 9
ENDMDL
MODEL 10
REMARK VINA RESULT:      -8.7      1.536      3.618
REMARK  Name = 
REMARK  9 active torsions:
REMARK  status: ('A' for Active; 'I' for Inactive)
REMARK    1  A    between atoms: O_2  and  C_3
REMARK    2  A    between atoms: C_3  and  C_5
REMARK    3  A    between atoms: C_5  and  C_6
REMARK    4  A    between atoms: C_5  and  N_15
REMARK    5  A    between atoms: C_6  and  C_7
REMARK    6  A    between atoms: C_10  and  O_11
REMARK    7  A    between atoms: C_16  and  C_18
REMARK    8  A    between atoms: N_20  and  S_30
REMARK    9  A    between atoms: N_26  and  C_27
REMARK                            x       y       z     vdW  Elec       q    Type
REMARK                         _______ _______ _______ _____ _____    ______ ____
ROOT
ATOM     15  N   UNL     1      -1.706   0.668  24.911  0.00  0.00    -0.194 NA
ATOM     16  C   UNL     1      -2.452   0.953  24.703  0.00  0.00    +0.261 C 
ATOM     17  O   UNL     1      -2.542   1.738  24.464  0.00  0.00    -0.271 OA
ENDROOT
BRANCH  16  18
ATOM     18  C   UNL     1      -3.107   0.453  24.735  0.00  0.00    +0.173 C 
ATOM     19  C   UNL     1      -3.006  -0.363  24.677  0.00  0.00    +0.125 C 
ATOM     20  N   UNL     1      -3.662  -0.864  24.709  0.00  0.00    -0.155 NA
ATOM     21  C   UNL     1      -4.418  -0.547  24.797  0.00  0.00    +0.117 C 
ATOM     22  C   UNL     1      -4.520   0.270  24.854  0.00  0.00    +0.115 C 
ATOM     23  N   UNL     1      -3.864   0.770  24.823  0.00  0.00    -0.253 N 
ATOM     24  C   UNL     1      -3.965   1.586  24.880  0.00  0.00    +0.324 C 
ATOM     25  O   UNL     1      -3.309   2.087  24.849  0.00  0.00    -0.251 OA
ATOM     26  N   UNL     1      -4.722   1.904  24.968  0.00  0.00    -0.190 NA
BRANCH  20  30
ATOM     30  S   UNL     1      -3.561  -1.681  24.651  0.00  0.00    +0.046 S 
ATOM     31  C   UNL     1      -3.460  -2.498  24.594  0.00  0.00    +0.196 C 
ATOM     32  O   UNL     1      -3.671  -1.637  23.835  0.00  0.00    -0.157 OA
ATOM     33  O   UNL     1      -3.452  -1.724  25.468  0.00  0.00    -0.157 OA
ENDBRANCH  20  30
BRANCH  26  27
ATOM     27  C   UNL     1      -4.823   2.721  25.026  0.00  0.00    +0.097 C 
ATOM     28  C   UNL     1      -4.963   3.068  25.761  0.00  0.00    +0.023 C 
ATOM     29  C   UNL     1      -4.784   3.189  24.348  0.00  0.00    +0.023 C 
ENDBRANCH  26  27
ENDBRANCH  16  18
BRANCH  15   5
ATOM      5  C   UNL     1      -1.050   1.168  24.880  0.00  0.00    +0.198 C 
BRANCH   5   3
ATOM      3  C   UNL     1      -0.712   1.449  25.578  0.00  0.00    +0.337 C 
ATOM      4  O   UNL     1      -0.541   0.926  26.192  0.00  0.00    -0.248 OA
BRANCH   3   2
ATOM      1  C   UNL     1      -0.274   2.545  26.383  0.00  0.00    +0.256 C 
ATOM      2  O   UNL     1      -0.544   2.253  25.660  0.00  0.00    -0.443 OA
ENDBRANCH   3   2
ENDBRANCH   5   3
BRANCH   5   6
ATOM      6  C   UNL     1      -0.733   1.386  24.150  0.00  0.00    +0.059 C 
BRANCH   6   7
ATOM      7  C   UNL     1      -0.109   0.955  23.828  0.00  0.00    -0.020 A 
ATOM      8  C   UNL     1       0.625   1.314  23.711  0.00  0.00    -0.001 A 
ATOM      9  C   UNL     1       1.249   0.881  23.388  0.00  0.00    +0.037 A 
ATOM     10  C   UNL     1       1.140   0.090  23.182  0.00  0.00    +0.139 A 
ATOM     13  C   UNL     1       0.406  -0.269  23.299  0.00  0.00    +0.037 A 
ATOM     14  C   UNL     1      -0.218   0.163  23.621  0.00  0.00    -0.001 A 
BRANCH  10  11
ATOM     11  O   UNL     1       1.763  -0.343  22.859  0.00  0.00    -0.471 OA
ATOM     12  C   UNL     1       2.366   0.043  22.449  0.00  0.00    +0.252 C 
ENDBRANCH  10  11
ENDBRANCH   6   7
ENDBRANCH   5   6
ENDBRANCH  15   5
TORSDOF 9
ENDMDL
