MODEL 1
REMARK VINA RESULT:     -10.3      0.000      0.000
REMARK  Name = 
REMARK  10 active torsions:
REMARK  status: ('A' for Active; 'I' for Inactive)
REMARK    1  A    between atoms: C_2  and  C_4
REMARK    2  A    between atoms: C_6  and  C_7
REMARK    3  A    between atoms: C_7  and  C_8
REMARK    4  A    between atoms: N_10  and  C_11
REMARK    5  A    between atoms: C_11  and  C_12
REMARK    6  A    between atoms: C_17  and  C_18
REMARK    7  A    between atoms: C_18  and  N_19
REMARK    8  A    between atoms: N_19  and  S_20
REMARK    9  A    between atoms: S_20  and  C_23
REMARK   10  A    between atoms: C_23  and  C_24
REMARK                            x       y       z     vdW  Elec       q    Type
REMARK                         _______ _______ _______ _____ _____    ______ ____
ROOT
ATOM      4  C   UNL     1      -3.081   1.769  24.252  0.00  0.00    +0.006 C 
ATOM      5  C   UNL     1      -3.113   2.572  24.439  0.00  0.00    +0.005 C 
ATOM      6  C   UNL     1      -3.804   2.892  24.759  0.00  0.00    +0.027 C 
ATOM     14  C   UNL     1      -4.460   2.410  24.891  0.00  0.00    -0.048 C 
ATOM     15  C   UNL     1      -5.150   2.730  25.211  0.00  0.00    +0.026 C 
ATOM     16  C   UNL     1      -4.427   1.607  24.704  0.00  0.00    -0.033 C 
ATOM     17  C   UNL     1      -3.737   1.287  24.384  0.00  0.00    +0.041 C 
ENDROOT
BRANCH   4   2
ATOM      1  C   UNL     1      -2.294   1.413  23.113  0.00  0.00    +0.000 C 
ATOM      2  C   UNL     1      -2.391   1.448  23.932  0.00  0.00    +0.000 C 
ATOM      3  C   UNL     1      -1.798   1.163  24.430  0.00  0.00    +0.000 C 
ENDBRANCH   4   2
BRANCH   6   7
ATOM      7  C   UNL     1      -3.836   3.695  24.946  0.00  0.00    +0.091 C 
BRANCH   7   8
ATOM      8  C   UNL     1      -3.234   4.039  25.394  0.00  0.00    +0.243 C 
ATOM      9  O   UNL     1      -3.203   3.915  26.209  0.00  0.00    -0.273 OA
ATOM     10  N   UNL     1      -2.662   4.506  25.025  0.00  0.00    -0.191 NA
BRANCH  10  11
ATOM     11  C   UNL     1      -2.059   4.849  25.473  0.00  0.00    +0.191 C 
BRANCH  11  12
ATOM     12  C   UNL     1      -1.366   5.102  25.105  0.00  0.00    -0.054 C 
ATOM     13  C   UNL     1      -0.671   5.353  24.737  0.00  0.00    -0.012 C 
ENDBRANCH  11  12
ENDBRANCH  10  11
ENDBRANCH   7   8
ENDBRANCH   6   7
BRANCH  17  18
ATOM     18  C   UNL     1      -3.704   0.484  24.196  0.00  0.00    +0.119 C 
BRANCH  18  19
ATOM     19  N   UNL     1      -4.333  -0.012  24.395  0.00  0.00    -0.081 NA
BRANCH  19  20
ATOM     20  S   UNL     1      -4.251  -0.830  24.324  0.00  0.00    +0.062 S 
ATOM     21  O   UNL     1      -4.230  -0.755  23.501  0.00  0.00    -0.156 OA
ATOM     22  O   UNL     1      -4.271  -0.904  25.144  0.00  0.00    -0.156 OA
BRANCH  20  23
ATOM     23  C   UNL     1      -4.168  -1.647  24.251  0.00  0.00    +0.197 C 
BRANCH  23  24
ATOM     24  C   UNL     1      -3.479  -2.019  24.511  0.00  0.00    +0.003 A 
ATOM     25  C   UNL     1      -3.377  -2.186  25.312  0.00  0.00    -0.003 A 
ATOM     26  C   UNL     1      -2.688  -2.557  25.571  0.00  0.00    -0.000 A 
ATOM     27  C   UNL     1      -2.099  -2.761  25.028  0.00  0.00    -0.000 A 
ATOM     28  C   UNL     1      -2.201  -2.593  24.228  0.00  0.00    -0.000 A 
ATOM     29  C   UNL     1      -2.890  -2.222  23.968  0.00  0.00    -0.003 A 
ENDBRANCH  23  24
ENDBRANCH  20  23
ENDBRANCH  19  20
ENDBRANCH  18  19
ENDBRANCH  17  18
TORSDOF 10
ENDMDL
MODEL 2
REMARK VINA RESULT:     -10.1      1.273      2.083
REMARK  Name = 
REMARK  10 active torsions:
REMARK  status: ('A' for Active; 'I' for Inactive)
REMARK    1  A    between atoms: C_2  and  C_4
REMARK    2  A    between atoms: C_6  and  C_7
REMARK    3  A    between atoms: C_7  and  C_8
REMARK    4  A    between atoms: N_10  and  C_11
REMARK    5  A    between atoms: C_11  and  C_12
REMARK    6  A    between atoms: C_17  and  C_18
REMARK    7  A    between atoms: C_18  and  N_19
REMARK    8  A    between atoms: N_19  and  S_20
REMARK    9  A    between atoms: S_20  and  C_23
REMARK   10  A    between atoms: C_23  and  C_24
REMARK                            x       y       z     vdW  Elec       q    Type
REMARK                         _______ _______ _______ _____ _____    ______ ____
ROOT
ATOM      4  C   UNL     1      -2.716   2.329  24.869  0.00  0.00    +0.006 C 
ATOM      5  C   UNL     1      -2.124   2.874  25.050  0.00  0.00    +0.005 C 
ATOM      6  C   UNL     1      -1.382   2.609  25.298  0.00  0.00    +0.027 C 
ATOM     14  C   UNL     1      -1.233   1.801  25.364  0.00  0.00    -0.048 C 
ATOM     15  C   UNL     1      -0.492   1.536  25.611  0.00  0.00    +0.026 C 
ATOM     16  C   UNL     1      -1.827   1.255  25.183  0.00  0.00    -0.033 C 
ATOM     17  C   UNL     1      -2.568   1.520  24.936  0.00  0.00    +0.041 C 
ENDROOT
BRANCH   4   2
ATOM      1  C   UNL     1      -3.616   2.682  23.817  0.00  0.00    +0.000 C 
ATOM      2  C   UNL     1      -3.458   2.594  24.622  0.00  0.00    +0.000 C 
ATOM      3  C   UNL     1      -4.040   2.770  25.179  0.00  0.00    +0.000 C 
ENDBRANCH   4   2
BRANCH   6   7
ATOM      7  C   UNL     1      -0.790   3.154  25.478  0.00  0.00    +0.091 C 
BRANCH   7   8
ATOM      8  C   UNL     1      -0.685   3.822  25.004  0.00  0.00    +0.243 C 
ATOM      9  O   UNL     1      -0.348   3.747  24.254  0.00  0.00    -0.273 OA
ATOM     10  N   UNL     1      -0.918   4.564  25.279  0.00  0.00    -0.191 NA
BRANCH  10  11
ATOM     11  C   UNL     1      -0.813   5.231  24.805  0.00  0.00    +0.191 C 
BRANCH  11  12
ATOM     12  C   UNL     1      -1.348   5.858  24.852  0.00  0.00    -0.054 C 
ATOM     13  C   UNL     1      -1.884   6.483  24.900  0.00  0.00    -0.012 C 
ENDBRANCH  11  12
ENDBRANCH  10  11
ENDBRANCH   7   8
ENDBRANCH   6   7
BRANCH  17  18
ATOM     18  C   UNL     1      -3.161   0.975  24.755  0.00  0.00    +0.119 C 
BRANCH  18  19
ATOM     19  N   UNL     1      -3.015   0.167  24.834  0.00  0.00    -0.081 NA
BRANCH  19  20
ATOM     20  S   UNL     1      -3.612  -0.377  24.664  0.00  0.00    +0.062 S 
ATOM     21  O   UNL     1      -3.817  -0.400  25.464  0.00  0.00    -0.156 OA
ATOM     22  O   UNL     1      -3.408  -0.353  23.866  0.00  0.00    -0.156 OA
BRANCH  20  23
ATOM     23  C   UNL     1      -4.209  -0.921  24.496  0.00  0.00    +0.197 C 
BRANCH  23  24
ATOM     24  C   UNL     1      -4.029  -1.722  24.416  0.00  0.00    +0.003 A 
ATOM     25  C   UNL     1      -3.590  -2.107  24.997  0.00  0.00    -0.003 A 
ATOM     26  C   UNL     1      -3.409  -2.907  24.916  0.00  0.00    -0.000 A 
ATOM     27  C   UNL     1      -3.669  -3.323  24.252  0.00  0.00    -0.000 A 
ATOM     28  C   UNL     1      -4.108  -2.938  23.670  0.00  0.00    -0.000 A 
ATOM     29  C   UNL     1      -4.288  -2.138  23.751  0.00  0.00    -0.003 A 
ENDBRANCH  23  24
ENDBRANCH  20  23
ENDBRANCH  19  20
ENDBRANCH  18  19
ENDBRANCH  17  18
TORSDOF 10
ENDMDL
MODEL 3
REMARK VINA RESULT:      -9.8      1.267      5.115
REMARK  Name = 
REMARK  10 active torsions:
REMARK  status: ('A' for Active; 'I' for Inactive)
REMARK    1  A    between atoms: C_2  and  C_4
REMARK    2  A    between atoms: C_6  and  C_7
REMARK    3  A    between atoms: C_7  and  C_8
REMARK    4  A    between atoms: N_10  and  C_11
REMARK    5  A    between atoms: C_11  and  C_12
REMARK    6  A    between atoms: C_17  and  C_18
REMARK    7  A    between atoms: C_18  and  N_19
REMARK    8  A    between atoms: N_19  and  S_20
REMARK    9  A    between atoms: S_20  and  C_23
REMARK   10  A    between atoms: C_23  and  C_24
REMARK                            x       y       z     vdW  Elec       q    Type
REMARK                         _______ _______ _______ _____ _____    ______ ____
ROOT
ATOM      4  C   UNL     1      -3.328   1.210  23.951  0.00  0.00    +0.006 C 
ATOM      5  C   UNL     1      -3.628   0.446  23.876  0.00  0.00    +0.005 C 
ATOM      6  C   UNL     1      -4.216   0.181  24.392  0.00  0.00    +0.027 C 
ATOM     14  C   UNL     1      -4.504   0.682  24.981  0.00  0.00    -0.048 C 
ATOM     15  C   UNL     1      -5.091   0.418  25.496  0.00  0.00    +0.026 C 
ATOM     16  C   UNL     1      -4.204   1.447  25.055  0.00  0.00    -0.033 C 
ATOM     17  C   UNL     1      -3.616   1.711  24.540  0.00  0.00    +0.041 C 
ENDROOT
BRANCH   4   2
ATOM      1  C   UNL     1      -1.949   1.302  23.590  0.00  0.00    +0.000 C 
ATOM      2  C   UNL     1      -2.740   1.475  23.435  0.00  0.00    +0.000 C 
ATOM      3  C   UNL     1      -2.944   1.912  22.766  0.00  0.00    +0.000 C 
ENDBRANCH   4   2
BRANCH   6   7
ATOM      7  C   UNL     1      -4.516  -0.584  24.317  0.00  0.00    +0.091 C 
BRANCH   7   8
ATOM      8  C   UNL     1      -4.036  -1.187  24.023  0.00  0.00    +0.243 C 
ATOM      9  O   UNL     1      -4.034  -1.357  23.215  0.00  0.00    -0.273 OA
ATOM     10  N   UNL     1      -3.558  -1.621  24.536  0.00  0.00    -0.191 NA
BRANCH  10  11
ATOM     11  C   UNL     1      -3.077  -2.225  24.242  0.00  0.00    +0.191 C 
BRANCH  11  12
ATOM     12  C   UNL     1      -2.359  -2.396  24.610  0.00  0.00    -0.054 C 
ATOM     13  C   UNL     1      -1.641  -2.566  24.978  0.00  0.00    -0.012 C 
ENDBRANCH  11  12
ENDBRANCH  10  11
ENDBRANCH   7   8
ENDBRANCH   6   7
BRANCH  17  18
ATOM     18  C   UNL     1      -3.316   2.477  24.615  0.00  0.00    +0.119 C 
BRANCH  18  19
ATOM     19  N   UNL     1      -3.611   2.980  25.198  0.00  0.00    -0.081 NA
BRANCH  19  20
ATOM     20  S   UNL     1      -3.194   3.662  25.402  0.00  0.00    +0.062 S 
ATOM     21  O   UNL     1      -2.901   3.282  26.073  0.00  0.00    -0.156 OA
ATOM     22  O   UNL     1      -3.488   4.042  24.731  0.00  0.00    -0.156 OA
BRANCH  20  23
ATOM     23  C   UNL     1      -2.777   4.344  25.606  0.00  0.00    +0.197 C 
BRANCH  23  24
ATOM     24  C   UNL     1      -1.990   4.432  25.377  0.00  0.00    +0.003 A 
ATOM     25  C   UNL     1      -1.409   3.940  25.695  0.00  0.00    -0.003 A 
ATOM     26  C   UNL     1      -0.623   4.029  25.465  0.00  0.00    -0.000 A 
ATOM     27  C   UNL     1      -0.416   4.610  24.916  0.00  0.00    -0.000 A 
ATOM     28  C   UNL     1      -0.996   5.102  24.598  0.00  0.00    -0.000 A 
ATOM     29  C   UNL     1      -1.783   5.014  24.828  0.00  0.00    -0.003 A 
ENDBRANCH  23  24
ENDBRANCH  20  23
ENDBRANCH  19  20
ENDBRANCH  18  19
ENDBRANCH  17  18
TORSDOF 10
ENDMDL
MODEL 4
REMARK VINA RESULT:      -9.6      2.801      4.848
REMARK  Name = 
REMARK  10 active torsions:
REMARK  status: ('A' for Active; 'I' for Inactive)
REMARK    1  A    between atoms: C_2  and  C_4
REMARK    2  A    between atoms: C_6  and  C_7
REMARK    3  A    between atoms: C_7  and  C_8
REMARK    4  A    between atoms: N_10  and  C_11
REMARK    5  A    between atoms: C_11  and  C_12
REMARK    6  A    between atoms: C_17  and  C_18
REMARK    7  A    between atoms: C_18  and  N_19
REMARK    8  A    between atoms: N_19  and  S_20
REMARK    9  A    between atoms: S_20  and  C_23
REMARK   10  A    between atoms: C_23  and  C_24
REMARK                            x       y       z     vdW  Elec       q    Type
REMARK                         _______ _______ _______ _____ _____    ______ ____
ROOT
ATOM      4  C   UNL     1      -0.522   1.683  24.321  0.00  0.00    +0.006 C 
ATOM      5  C   UNL     1       0.070   1.140  24.133  0.00  0.00    +0.005 C 
ATOM      6  C   UNL     1      -0.121   0.344  24.023  0.00  0.00    +0.027 C 
ATOM     14  C   UNL     1      -0.902   0.092  24.101  0.00  0.00    -0.048 C 
ATOM     15  C   UNL     1      -1.093  -0.703  23.992  0.00  0.00    +0.026 C 
ATOM     16  C   UNL     1      -1.495   0.636  24.289  0.00  0.00    -0.033 C 
ATOM     17  C   UNL     1      -1.304   1.431  24.399  0.00  0.00    +0.041 C 
ENDROOT
BRANCH   4   2
ATOM      1  C   UNL     1      -0.347   2.998  23.790  0.00  0.00    +0.000 C 
ATOM      2  C   UNL     1      -0.332   2.479  24.431  0.00  0.00    +0.000 C 
ATOM      3  C   UNL     1      -0.127   2.754  25.181  0.00  0.00    +0.000 C 
ENDBRANCH   4   2
BRANCH   6   7
ATOM      7  C   UNL     1       0.471  -0.199  23.835  0.00  0.00    +0.091 C 
BRANCH   7   8
ATOM      8  C   UNL     1       0.935  -0.086  23.161  0.00  0.00    +0.243 C 
ATOM      9  O   UNL     1       0.587  -0.100  22.414  0.00  0.00    -0.273 OA
ATOM     10  N   UNL     1       1.747   0.040  23.237  0.00  0.00    -0.191 NA
BRANCH  10  11
ATOM     11  C   UNL     1       2.210   0.153  22.563  0.00  0.00    +0.191 C 
BRANCH  11  12
ATOM     12  C   UNL     1       2.992   0.407  22.639  0.00  0.00    -0.054 C 
ATOM     13  C   UNL     1       3.773   0.663  22.715  0.00  0.00    -0.012 C 
ENDBRANCH  11  12
ENDBRANCH  10  11
ENDBRANCH   7   8
ENDBRANCH   6   7
BRANCH  17  18
ATOM     18  C   UNL     1      -1.896   1.974  24.587  0.00  0.00    +0.119 C 
BRANCH  18  19
ATOM     19  N   UNL     1      -2.683   1.729  24.629  0.00  0.00    -0.081 NA
BRANCH  19  20
ATOM     20  S   UNL     1      -3.285   2.287  24.706  0.00  0.00    +0.062 S 
ATOM     21  O   UNL     1      -3.425   2.247  23.893  0.00  0.00    -0.156 OA
ATOM     22  O   UNL     1      -3.144   2.328  25.517  0.00  0.00    -0.156 OA
BRANCH  20  23
ATOM     23  C   UNL     1      -3.887   2.846  24.782  0.00  0.00    +0.197 C 
BRANCH  23  24
ATOM     24  C   UNL     1      -4.636   2.615  25.040  0.00  0.00    +0.003 A 
ATOM     25  C   UNL     1      -5.057   2.041  24.624  0.00  0.00    -0.003 A 
ATOM     26  C   UNL     1      -5.805   1.811  24.882  0.00  0.00    -0.000 A 
ATOM     27  C   UNL     1      -6.133   2.154  25.559  0.00  0.00    -0.000 A 
ATOM     28  C   UNL     1      -5.711   2.727  25.975  0.00  0.00    -0.000 A 
ATOM     29  C   UNL     1      -4.963   2.958  25.716  0.00  0.00    -0.003 A 
ENDBRANCH  23  24
ENDBRANCH  20  23
ENDBRANCH  19  20
ENDBRANCH  18  19
ENDBRANCH  17  18
TORSDOF 10
ENDMDL
MODEL 5
REMARK VINA RESULT:      -9.5      2.486      5.835
REMARK  Name = 
REMARK  10 active torsions:
REMARK  status: ('A' for Active; 'I' for Inactive)
REMARK    1  A    between atoms: C_2  and  C_4
REMARK    2  A    between atoms: C_6  and  C_7
REMARK    3  A    between atoms: C_7  and  C_8
REMARK    4  A    between atoms: N_10  and  C_11
REMARK    5  A    between atoms: C_11  and  C_12
REMARK    6  A    between atoms: C_17  and  C_18
REMARK    7  A    between atoms: C_18  and  N_19
REMARK    8  A    between atoms: N_19  and  S_20
REMARK    9  A    between atoms: S_20  and  C_23
REMARK   10  A    between atoms: C_23  and  C_24
REMARK                            x       y       z     vdW  Elec       q    Type
REMARK                         _______ _______ _______ _____ _____    ______ ____
ROOT
ATOM      4  C   UNL     1      -0.493  -0.150  24.338  0.00  0.00    +0.006 C 
ATOM      5  C   UNL     1      -0.711  -0.938  24.444  0.00  0.00    +0.005 C 
ATOM      6  C   UNL     1      -1.116  -1.165  25.127  0.00  0.00    +0.027 C 
ATOM     14  C   UNL     1      -1.303  -0.604  25.702  0.00  0.00    -0.048 C 
ATOM     15  C   UNL     1      -1.709  -0.830  26.384  0.00  0.00    +0.026 C 
ATOM     16  C   UNL     1      -1.085   0.185  25.595  0.00  0.00    -0.033 C 
ATOM     17  C   UNL     1      -0.680   0.412  24.913  0.00  0.00    +0.041 C 
ENDROOT
BRANCH   4   2
ATOM      1  C   UNL     1      -0.505   0.353  23.001  0.00  0.00    +0.000 C 
ATOM      2  C   UNL     1      -0.087   0.077  23.656  0.00  0.00    +0.000 C 
ATOM      3  C   UNL     1       0.736   0.029  23.630  0.00  0.00    +0.000 C 
ENDBRANCH   4   2
BRANCH   6   7
ATOM      7  C   UNL     1      -1.335  -1.953  25.233  0.00  0.00    +0.091 C 
BRANCH   7   8
ATOM      8  C   UNL     1      -1.772  -2.342  24.650  0.00  0.00    +0.243 C 
ATOM      9  O   UNL     1      -1.384  -2.747  24.045  0.00  0.00    -0.273 OA
ATOM     10  N   UNL     1      -2.596  -2.325  24.674  0.00  0.00    -0.191 NA
BRANCH  10  11
ATOM     11  C   UNL     1      -3.033  -2.714  24.091  0.00  0.00    +0.191 C 
BRANCH  11  12
ATOM     12  C   UNL     1      -3.813  -2.490  23.943  0.00  0.00    -0.054 C 
ATOM     13  C   UNL     1      -4.594  -2.265  23.797  0.00  0.00    -0.012 C 
ENDBRANCH  11  12
ENDBRANCH  10  11
ENDBRANCH   7   8
ENDBRANCH   6   7
BRANCH  17  18
ATOM     18  C   UNL     1      -0.461   1.201  24.807  0.00  0.00    +0.119 C 
BRANCH  18  19
ATOM     19  N   UNL     1      -0.801   1.789  25.274  0.00  0.00    -0.081 NA
BRANCH  19  20
ATOM     20  S   UNL     1      -0.557   2.572  25.192  0.00  0.00    +0.062 S 
ATOM     21  O   UNL     1      -0.111   2.505  25.884  0.00  0.00    -0.156 OA
ATOM     22  O   UNL     1      -1.001   2.640  24.501  0.00  0.00    -0.156 OA
BRANCH  20  23
ATOM     23  C   UNL     1      -0.311   3.356  25.111  0.00  0.00    +0.197 C 
BRANCH  23  24
ATOM     24  C   UNL     1      -0.856   3.971  25.190  0.00  0.00    +0.003 A 
ATOM     25  C   UNL     1      -1.526   3.871  25.660  0.00  0.00    -0.003 A 
ATOM     26  C   UNL     1      -2.070   4.485  25.738  0.00  0.00    -0.000 A 
ATOM     27  C   UNL     1      -1.944   5.201  25.345  0.00  0.00    -0.000 A 
ATOM     28  C   UNL     1      -1.274   5.301  24.875  0.00  0.00    -0.000 A 
ATOM     29  C   UNL     1      -0.730   4.686  24.797  0.00  0.00    -0.003 A 
ENDBRANCH  23  24
ENDBRANCH  20  23
ENDBRANCH  19  20
ENDBRANCH  18  19
ENDBRANCH  17  18
TORSDOF 10
ENDMDL
