MODEL 1
REMARK VINA RESULT:     -11.6      0.000      0.000
REMARK  Name = 
REMARK  8 active torsions:
REMARK  status: ('A' for Active; 'I' for Inactive)
REMARK    1  A    between atoms: O_2  and  C_3
REMARK    2  A    between atoms: C_3  and  C_5
REMARK    3  A    between atoms: C_5  and  C_6
REMARK    4  A    between atoms: C_5  and  N_13
REMARK    5  A    between atoms: C_6  and  C_7
REMARK    6  A    between atoms: C_14  and  C_16
REMARK    7  A    between atoms: C_22  and  C_24
REMARK    8  A    between atoms: C_30  and  C_32
REMARK                            x       y       z     vdW  Elec       q    Type
REMARK                         _______ _______ _______ _____ _____    ______ ____
ROOT
ATOM     16  C   UNL     1      -2.639   0.528  24.853  0.00  0.00    +0.174 C 
ATOM     17  C   UNL     1      -3.047   1.234  24.977  0.00  0.00    +0.123 C 
ATOM     18  N   UNL     1      -3.869   1.229  25.047  0.00  0.00    -0.272 N 
ATOM     19  C   UNL     1      -4.283   0.517  24.993  0.00  0.00    +0.115 C 
ATOM     20  C   UNL     1      -3.875  -0.189  24.869  0.00  0.00    +0.115 C 
ATOM     21  N   UNL     1      -3.053  -0.183  24.799  0.00  0.00    -0.270 N 
ATOM     22  C   UNL     1      -2.645  -0.889  24.675  0.00  0.00    +0.226 C 
ATOM     23  O   UNL     1      -1.823  -0.884  24.604  0.00  0.00    -0.275 OA
ATOM     30  C   UNL     1      -4.277   1.935  25.172  0.00  0.00    +0.249 C 
ATOM     31  O   UNL     1      -3.863   2.647  25.226  0.00  0.00    -0.270 OA
ENDROOT
BRANCH  30  32
ATOM     32  C   UNL     1      -5.098   1.930  25.242  0.00  0.00    +0.056 A 
ATOM     33  C   UNL     1      -5.571   1.961  24.566  0.00  0.00    +0.005 A 
ATOM     34  C   UNL     1      -6.393   1.955  24.636  0.00  0.00    +0.002 A 
ATOM     35  C   UNL     1      -6.742   1.919  25.383  0.00  0.00    +0.030 A 
ATOM     36  C   UNL     1      -6.271   1.889  26.058  0.00  0.00    +0.140 A 
ATOM     37  F   UNL     1      -6.620   1.852  26.805  0.00  0.00    -0.204 F 
ATOM     38  C   UNL     1      -5.449   1.894  25.988  0.00  0.00    +0.034 A 
ENDBRANCH  30  32
BRANCH  22  24
ATOM     24  C   UNL     1      -3.060  -1.601  24.620  0.00  0.00    +0.077 C 
ATOM     25  C   UNL     1      -3.460  -1.794  23.925  0.00  0.00    +0.009 C 
ATOM     26  C   UNL     1      -3.874  -2.505  23.872  0.00  0.00    +0.000 C 
ATOM     27  C   UNL     1      -3.888  -3.024  24.513  0.00  0.00    +0.000 C 
ATOM     28  C   UNL     1      -3.487  -2.832  25.208  0.00  0.00    +0.000 C 
ATOM     29  C   UNL     1      -3.073  -2.120  25.262  0.00  0.00    +0.009 C 
ENDBRANCH  22  24
BRANCH  16  14
ATOM     13  N   UNL     1      -1.448   1.094  24.304  0.00  0.00    -0.194 NA
ATOM     14  C   UNL     1      -1.817   0.533  24.782  0.00  0.00    +0.262 C 
ATOM     15  O   UNL     1      -1.365  -0.024  25.191  0.00  0.00    -0.271 OA
BRANCH  13   5
ATOM      5  C   UNL     1      -0.626   1.099  24.234  0.00  0.00    +0.198 C 
BRANCH   5   3
ATOM      3  C   UNL     1      -0.264   0.736  23.588  0.00  0.00    +0.337 C 
ATOM      4  O   UNL     1      -0.575   0.840  22.830  0.00  0.00    -0.248 OA
BRANCH   3   2
ATOM      1  C   UNL     1       0.806  -0.040  23.045  0.00  0.00    +0.256 C 
ATOM      2  O   UNL     1       0.407   0.270  23.698  0.00  0.00    -0.443 OA
ENDBRANCH   3   2
ENDBRANCH   5   3
BRANCH   5   6
ATOM      6  C   UNL     1      -0.164   1.467  24.810  0.00  0.00    +0.061 C 
BRANCH   6   7
ATOM      7  C   UNL     1      -0.204   2.285  24.911  0.00  0.00    -0.001 A 
ATOM      8  C   UNL     1      -0.210   2.607  25.671  0.00  0.00    -0.001 A 
ATOM      9  C   UNL     1      -0.250   3.425  25.771  0.00  0.00    +0.020 A 
ATOM     10  C   UNL     1      -0.284   3.921  25.112  0.00  0.00    +0.099 A 
ATOM     11  N   UNL     1      -0.279   3.598  24.353  0.00  0.00    -0.243 NA
ATOM     12  C   UNL     1      -0.239   2.780  24.252  0.00  0.00    +0.095 A 
ENDBRANCH   6   7
ENDBRANCH   5   6
ENDBRANCH  13   5
ENDBRANCH  16  14
TORSDOF 8
ENDMDL
MODEL 2
REMARK VINA RESULT:     -11.4      1.761      4.132
REMARK  Name = 
REMARK  8 active torsions:
REMARK  status: ('A' for Active; 'I' for Inactive)
REMARK    1  A    between atoms: O_2  and  C_3
REMARK    2  A    between atoms: C_3  and  C_5
REMARK    3  A    between atoms: C_5  and  C_6
REMARK    4  A    between atoms: C_5  and  N_13
REMARK    5  A    between atoms: C_6  and  C_7
REMARK    6  A    between atoms: C_14  and  C_16
REMARK    7  A    between atoms: C_22  and  C_24
REMARK    8  A    between atoms: C_30  and  C_32
REMARK                            x       y       z     vdW  Elec       q    Type
REMARK                         _______ _______ _______ _____ _____    ______ ____
ROOT
ATOM     16  C   UNL     1      -2.351   1.154  24.368  0.00  0.00    +0.174 C 
ATOM     17  C   UNL     1      -3.004   0.720  24.628  0.00  0.00    +0.123 C 
ATOM     18  N   UNL     1      -2.969  -0.104  24.648  0.00  0.00    -0.272 N 
ATOM     19  C   UNL     1      -2.282  -0.494  24.408  0.00  0.00    +0.115 C 
ATOM     20  C   UNL     1      -1.631  -0.060  24.149  0.00  0.00    +0.115 C 
ATOM     21  N   UNL     1      -1.665   0.764  24.128  0.00  0.00    -0.270 N 
ATOM     22  C   UNL     1      -1.014   1.198  23.869  0.00  0.00    +0.226 C 
ATOM     23  O   UNL     1      -1.049   2.022  23.849  0.00  0.00    -0.275 OA
ATOM     30  C   UNL     1      -3.620  -0.538  24.907  0.00  0.00    +0.249 C 
ATOM     31  O   UNL     1      -4.307  -0.148  25.147  0.00  0.00    -0.270 OA
ENDROOT
BRANCH  30  32
ATOM     32  C   UNL     1      -3.586  -1.362  24.928  0.00  0.00    +0.056 A 
ATOM     33  C   UNL     1      -3.266  -1.746  25.585  0.00  0.00    +0.005 A 
ATOM     34  C   UNL     1      -3.232  -2.570  25.605  0.00  0.00    +0.002 A 
ATOM     35  C   UNL     1      -3.516  -3.010  24.968  0.00  0.00    +0.030 A 
ATOM     36  C   UNL     1      -3.835  -2.627  24.311  0.00  0.00    +0.140 A 
ATOM     37  F   UNL     1      -4.120  -3.067  23.674  0.00  0.00    -0.204 F 
ATOM     38  C   UNL     1      -3.870  -1.803  24.291  0.00  0.00    +0.034 A 
ENDBRANCH  30  32
BRANCH  22  24
ATOM     24  C   UNL     1      -0.327   0.808  23.629  0.00  0.00    +0.077 C 
ATOM     25  C   UNL     1      -0.312   0.403  22.910  0.00  0.00    +0.009 C 
ATOM     26  C   UNL     1       0.374   0.014  22.671  0.00  0.00    +0.000 C 
ATOM     27  C   UNL     1       1.046   0.027  23.150  0.00  0.00    +0.000 C 
ATOM     28  C   UNL     1       1.030   0.432  23.869  0.00  0.00    +0.000 C 
ATOM     29  C   UNL     1       0.344   0.822  24.109  0.00  0.00    +0.009 C 
ENDBRANCH  22  24
BRANCH  16  14
ATOM     13  N   UNL     1      -2.643   2.396  25.010  0.00  0.00    -0.194 NA
ATOM     14  C   UNL     1      -2.386   1.978  24.348  0.00  0.00    +0.262 C 
ATOM     15  O   UNL     1      -2.163   2.383  23.664  0.00  0.00    -0.271 OA
BRANCH  13   5
ATOM      5  C   UNL     1      -2.678   3.220  24.990  0.00  0.00    +0.198 C 
BRANCH   5   3
ATOM      3  C   UNL     1      -2.063   3.667  25.311  0.00  0.00    +0.337 C 
ATOM      4  O   UNL     1      -1.744   3.463  26.045  0.00  0.00    -0.248 OA
BRANCH   3   2
ATOM      1  C   UNL     1      -1.185   4.792  25.242  0.00  0.00    +0.256 C 
ATOM      2  O   UNL     1      -1.767   4.318  24.899  0.00  0.00    -0.443 OA
ENDBRANCH   3   2
ENDBRANCH   5   3
BRANCH   5   6
ATOM      6  C   UNL     1      -3.327   3.598  24.649  0.00  0.00    +0.061 C 
BRANCH   6   7
ATOM      7  C   UNL     1      -4.064   3.567  25.018  0.00  0.00    -0.001 A 
ATOM      8  C   UNL     1      -4.726   3.313  24.596  0.00  0.00    -0.001 A 
ATOM      9  C   UNL     1      -5.463   3.282  24.965  0.00  0.00    +0.020 A 
ATOM     10  C   UNL     1      -5.538   3.504  25.756  0.00  0.00    +0.099 A 
ATOM     11  N   UNL     1      -4.876   3.758  26.177  0.00  0.00    -0.243 NA
ATOM     12  C   UNL     1      -4.139   3.789  25.808  0.00  0.00    +0.095 A 
ENDBRANCH   6   7
ENDBRANCH   5   6
ENDBRANCH  13   5
ENDBRANCH  16  14
TORSDOF 8
ENDMDL
MODEL 3
REMARK VINA RESULT:     -10.9      1.400      3.823
REMARK  Name = 
REMARK  8 active torsions:
REMARK  status: ('A' for Active; 'I' for Inactive)
REMARK    1  A    between atoms: O_2  and  C_3
REMARK    2  A    between atoms: C_3  and  C_5
REMARK    3  A    between atoms: C_5  and  C_6
REMARK    4  A    between atoms: C_5  and  N_13
REMARK    5  A    between atoms: C_6  and  C_7
REMARK    6  A    between atoms: C_14  and  C_16
REMARK    7  A    between atoms: C_22  and  C_24
REMARK    8  A    between atoms: C_30  and  C_32
REMARK                            x       y       z     vdW  Elec       q    Type
REMARK                         _______ _______ _______ _____ _____    ______ ____
ROOT
ATOM     16  C   UNL     1      -3.124   1.354  24.644  0.00  0.00    +0.174 C 
ATOM     17  C   UNL     1      -2.721   0.642  24.534  0.00  0.00    +0.123 C 
ATOM     18  N   UNL     1      -3.117  -0.075  24.627  0.00  0.00    -0.272 N 
ATOM     19  C   UNL     1      -3.917  -0.080  24.830  0.00  0.00    +0.115 C 
ATOM     20  C   UNL     1      -4.320   0.631  24.941  0.00  0.00    +0.115 C 
ATOM     21  N   UNL     1      -3.923   1.348  24.848  0.00  0.00    -0.270 N 
ATOM     22  C   UNL     1      -4.325   2.060  24.958  0.00  0.00    +0.226 C 
ATOM     23  O   UNL     1      -3.928   2.777  24.865  0.00  0.00    -0.275 OA
ATOM     30  C   UNL     1      -2.715  -0.786  24.516  0.00  0.00    +0.249 C 
ATOM     31  O   UNL     1      -1.915  -0.781  24.313  0.00  0.00    -0.270 OA
ENDROOT
BRANCH  30  32
ATOM     32  C   UNL     1      -3.111  -1.503  24.610  0.00  0.00    +0.056 A 
ATOM     33  C   UNL     1      -3.033  -1.931  25.312  0.00  0.00    +0.005 A 
ATOM     34  C   UNL     1      -3.429  -2.648  25.405  0.00  0.00    +0.002 A 
ATOM     35  C   UNL     1      -3.905  -2.938  24.796  0.00  0.00    +0.030 A 
ATOM     36  C   UNL     1      -3.984  -2.511  24.095  0.00  0.00    +0.140 A 
ATOM     37  F   UNL     1      -4.459  -2.801  23.486  0.00  0.00    -0.204 F 
ATOM     38  C   UNL     1      -3.587  -1.794  24.002  0.00  0.00    +0.034 A 
ENDBRANCH  30  32
BRANCH  22  24
ATOM     24  C   UNL     1      -5.125   2.054  25.162  0.00  0.00    +0.077 C 
ATOM     25  C   UNL     1      -5.697   1.913  24.584  0.00  0.00    +0.009 C 
ATOM     26  C   UNL     1      -6.496   1.907  24.788  0.00  0.00    +0.000 C 
ATOM     27  C   UNL     1      -6.724   2.042  25.569  0.00  0.00    +0.000 C 
ATOM     28  C   UNL     1      -6.152   2.182  26.147  0.00  0.00    +0.000 C 
ATOM     29  C   UNL     1      -5.352   2.189  25.943  0.00  0.00    +0.009 C 
ENDBRANCH  22  24
BRANCH  16  14
ATOM     13  N   UNL     1      -2.059   2.236  25.006  0.00  0.00    -0.194 NA
ATOM     14  C   UNL     1      -2.727   2.072  24.551  0.00  0.00    +0.262 C 
ATOM     15  O   UNL     1      -2.999   2.625  24.002  0.00  0.00    -0.271 OA
BRANCH  13   5
ATOM      5  C   UNL     1      -1.663   2.953  24.913  0.00  0.00    +0.198 C 
BRANCH   5   3
ATOM      3  C   UNL     1      -1.837   3.589  25.409  0.00  0.00    +0.337 C 
ATOM      4  O   UNL     1      -1.887   3.473  26.225  0.00  0.00    -0.248 OA
BRANCH   3   2
ATOM      1  C   UNL     1      -1.992   4.998  25.587  0.00  0.00    +0.256 C 
ATOM      2  O   UNL     1      -1.961   4.339  25.090  0.00  0.00    -0.443 OA
ENDBRANCH   3   2
ENDBRANCH   5   3
BRANCH   5   6
ATOM      6  C   UNL     1      -1.091   3.035  24.324  0.00  0.00    +0.061 C 
BRANCH   6   7
ATOM      7  C   UNL     1      -0.394   2.595  24.360  0.00  0.00    -0.001 A 
ATOM      8  C   UNL     1      -0.106   2.224  23.682  0.00  0.00    -0.001 A 
ATOM      9  C   UNL     1       0.591   1.784  23.718  0.00  0.00    +0.020 A 
ATOM     10  C   UNL     1       1.000   1.716  24.432  0.00  0.00    +0.099 A 
ATOM     11  N   UNL     1       0.710   2.087  25.109  0.00  0.00    -0.243 NA
ATOM     12  C   UNL     1       0.013   2.527  25.073  0.00  0.00    +0.095 A 
ENDBRANCH   6   7
ENDBRANCH   5   6
ENDBRANCH  13   5
ENDBRANCH  16  14
TORSDOF 8
ENDMDL
MODEL 4
REMARK VINA RESULT:     -10.6      2.002      5.871
REMARK  Name = 
REMARK  8 active torsions:
REMARK  status: ('A' for Active; 'I' for Inactive)
REMARK    1  A    between atoms: O_2  and  C_3
REMARK    2  A    between atoms: C_3  and  C_5
REMARK    3  A    between atoms: C_5  and  C_6
REMARK    4  A    between atoms: C_5  and  N_13
REMARK    5  A    between atoms: C_6  and  C_7
REMARK    6  A    between atoms: C_14  and  C_16
REMARK    7  A    between atoms: C_22  and  C_24
REMARK    8  A    between atoms: C_30  and  C_32
REMARK                            x       y       z     vdW  Elec       q    Type
REMARK                         _______ _______ _______ _____ _____    ______ ____
ROOT
ATOM     16  C   UNL     1      -1.458   0.775  24.562  0.00  0.00    +0.174 C 
ATOM     17  C   UNL     1      -1.041   0.164  24.196  0.00  0.00    +0.123 C 
ATOM     18  N   UNL     1      -0.304   0.312  23.857  0.00  0.00    -0.272 N 
ATOM     19  C   UNL     1       0.016   1.073  23.883  0.00  0.00    +0.115 C 
ATOM     20  C   UNL     1      -0.400   1.683  24.248  0.00  0.00    +0.115 C 
ATOM     21  N   UNL     1      -1.137   1.535  24.587  0.00  0.00    -0.270 N 
ATOM     22  C   UNL     1      -1.555   2.145  24.953  0.00  0.00    +0.226 C 
ATOM     23  O   UNL     1      -2.292   1.997  25.292  0.00  0.00    -0.275 OA
ATOM     30  C   UNL     1       0.112  -0.298  23.492  0.00  0.00    +0.249 C 
ATOM     31  O   UNL     1      -0.208  -1.059  23.466  0.00  0.00    -0.270 OA
ENDROOT
BRANCH  30  32
ATOM     32  C   UNL     1       0.849  -0.150  23.152  0.00  0.00    +0.056 A 
ATOM     33  C   UNL     1       1.476   0.109  23.623  0.00  0.00    +0.005 A 
ATOM     34  C   UNL     1       2.213   0.258  23.284  0.00  0.00    +0.002 A 
ATOM     35  C   UNL     1       2.323   0.147  22.473  0.00  0.00    +0.030 A 
ATOM     36  C   UNL     1       1.698  -0.111  22.003  0.00  0.00    +0.140 A 
ATOM     37  F   UNL     1       1.808  -0.222  21.193  0.00  0.00    -0.204 F 
ATOM     38  C   UNL     1       0.961  -0.260  22.342  0.00  0.00    +0.034 A 
ENDBRANCH  30  32
BRANCH  22  24
ATOM     24  C   UNL     1      -1.234   2.906  24.978  0.00  0.00    +0.077 C 
ATOM     25  C   UNL     1      -0.697   3.107  25.571  0.00  0.00    +0.009 C 
ATOM     26  C   UNL     1      -0.377   3.867  25.597  0.00  0.00    +0.000 C 
ATOM     27  C   UNL     1      -0.593   4.426  25.029  0.00  0.00    +0.000 C 
ATOM     28  C   UNL     1      -1.130   4.224  24.437  0.00  0.00    +0.000 C 
ATOM     29  C   UNL     1      -1.451   3.464  24.411  0.00  0.00    +0.009 C 
ENDBRANCH  22  24
BRANCH  16  14
ATOM     13  N   UNL     1      -2.795   0.284  24.451  0.00  0.00    -0.194 NA
ATOM     14  C   UNL     1      -2.195   0.627  24.902  0.00  0.00    +0.262 C 
ATOM     15  O   UNL     1      -2.332   0.821  25.692  0.00  0.00    -0.271 OA
BRANCH  13   5
ATOM      5  C   UNL     1      -3.532   0.136  24.791  0.00  0.00    +0.198 C 
BRANCH   5   3
ATOM      3  C   UNL     1      -4.158   0.657  24.662  0.00  0.00    +0.337 C 
ATOM      4  O   UNL     1      -4.286   0.970  23.909  0.00  0.00    -0.248 OA
BRANCH   3   2
ATOM      1  C   UNL     1      -5.276   1.396  25.159  0.00  0.00    +0.256 C 
ATOM      2  O   UNL     1      -4.657   0.865  25.286  0.00  0.00    -0.443 OA
ENDBRANCH   3   2
ENDBRANCH   5   3
BRANCH   5   6
ATOM      6  C   UNL     1      -3.643  -0.534  25.259  0.00  0.00    +0.061 C 
BRANCH   6   7
ATOM      7  C   UNL     1      -3.716  -1.277  24.907  0.00  0.00    -0.001 A 
ATOM      8  C   UNL     1      -3.367  -1.936  25.259  0.00  0.00    -0.001 A 
ATOM      9  C   UNL     1      -3.440  -2.679  24.907  0.00  0.00    +0.020 A 
ATOM     10  C   UNL     1      -3.863  -2.762  24.203  0.00  0.00    +0.099 A 
ATOM     11  N   UNL     1      -4.212  -2.102  23.851  0.00  0.00    -0.243 NA
ATOM     12  C   UNL     1      -4.139  -1.360  24.203  0.00  0.00    +0.095 A 
ENDBRANCH   6   7
ENDBRANCH   5   6
ENDBRANCH  13   5
ENDBRANCH  16  14
TORSDOF 8
ENDMDL
MODEL 5
REMARK VINA RESULT:     -10.6      1.981      4.294
REMARK  Name = 
REMARK  8 active torsions:
REMARK  status: ('A' for Active; 'I' for Inactive)
REMARK    1  A    between atoms: O_2  and  C_3
REMARK    2  A    between atoms: C_3  and  C_5
REMARK    3  A    between atoms: C_5  and  C_6
REMARK    4  A    between atoms: C_5  and  N_13
REMARK    5  A    between atoms: C_6  and  C_7
REMARK    6  A    between atoms: C_14  and  C_16
REMARK    7  A    between atoms: C_22  and  C_24
REMARK    8  A    between atoms: C_30  and  C_32
REMARK                            x       y       z     vdW  Elec       q    Type
REMARK                         _______ _______ _______ _____ _____    ______ ____
ROOT
ATOM     16  C   UNL     1      -2.567   0.684  24.665  0.00  0.00    +0.174 C 
ATOM     17  C   UNL     1      -1.836   1.009  24.463  0.00  0.00    +0.123 C 
ATOM     18  N   UNL     1      -1.242   0.528  24.152  0.00  0.00    -0.272 N 
ATOM     19  C   UNL     1      -1.380  -0.278  24.043  0.00  0.00    +0.115 C 
ATOM     20  C   UNL     1      -2.110  -0.603  24.246  0.00  0.00    +0.115 C 
ATOM     21  N   UNL     1      -2.704  -0.122  24.557  0.00  0.00    -0.270 N 
ATOM     22  C   UNL     1      -3.435  -0.446  24.759  0.00  0.00    +0.226 C 
ATOM     23  O   UNL     1      -4.028   0.035  25.070  0.00  0.00    -0.275 OA
ATOM     30  C   UNL     1      -0.512   0.853  23.949  0.00  0.00    +0.249 C 
ATOM     31  O   UNL     1      -0.374   1.660  24.058  0.00  0.00    -0.270 OA
ENDROOT
BRANCH  30  32
ATOM     32  C   UNL     1       0.081   0.372  23.638  0.00  0.00    +0.056 A 
ATOM     33  C   UNL     1       0.527  -0.110  24.139  0.00  0.00    +0.005 A 
ATOM     34  C   UNL     1       1.120  -0.591  23.828  0.00  0.00    +0.002 A 
ATOM     35  C   UNL     1       1.268  -0.590  23.016  0.00  0.00    +0.030 A 
ATOM     36  C   UNL     1       0.824  -0.109  22.516  0.00  0.00    +0.140 A 
ATOM     37  F   UNL     1       0.972  -0.108  21.704  0.00  0.00    -0.204 F 
ATOM     38  C   UNL     1       0.230   0.372  22.827  0.00  0.00    +0.034 A 
ENDBRANCH  30  32
BRANCH  22  24
ATOM     24  C   UNL     1      -3.572  -1.253  24.651  0.00  0.00    +0.077 C 
ATOM     25  C   UNL     1      -3.969  -1.517  23.977  0.00  0.00    +0.009 C 
ATOM     26  C   UNL     1      -4.106  -2.323  23.869  0.00  0.00    +0.000 C 
ATOM     27  C   UNL     1      -3.846  -2.866  24.434  0.00  0.00    +0.000 C 
ATOM     28  C   UNL     1      -3.449  -2.602  25.107  0.00  0.00    +0.000 C 
ATOM     29  C   UNL     1      -3.312  -1.795  25.216  0.00  0.00    +0.009 C 
ENDBRANCH  22  24
BRANCH  16  14
ATOM     13  N   UNL     1      -3.312   1.903  24.640  0.00  0.00    -0.194 NA
ATOM     14  C   UNL     1      -3.161   1.166  24.977  0.00  0.00    +0.262 C 
ATOM     15  O   UNL     1      -3.602   0.908  25.624  0.00  0.00    -0.271 OA
BRANCH  13   5
ATOM      5  C   UNL     1      -3.906   2.384  24.951  0.00  0.00    +0.198 C 
BRANCH   5   3
ATOM      3  C   UNL     1      -4.663   2.369  24.625  0.00  0.00    +0.337 C 
ATOM      4  O   UNL     1      -4.759   2.411  23.806  0.00  0.00    -0.248 OA
BRANCH   3   2
ATOM      1  C   UNL     1      -6.079   2.269  24.786  0.00  0.00    +0.256 C 
ATOM      2  O   UNL     1      -5.324   2.313  25.115  0.00  0.00    -0.443 OA
ENDBRANCH   3   2
ENDBRANCH   5   3
BRANCH   5   6
ATOM      6  C   UNL     1      -3.743   2.880  25.589  0.00  0.00    +0.061 C 
BRANCH   6   7
ATOM      7  C   UNL     1      -3.234   3.523  25.494  0.00  0.00    -0.001 A 
ATOM      8  C   UNL     1      -2.714   3.730  26.100  0.00  0.00    -0.001 A 
ATOM      9  C   UNL     1      -2.205   4.373  26.004  0.00  0.00    +0.020 A 
ATOM     10  C   UNL     1      -2.217   4.808  25.302  0.00  0.00    +0.099 A 
ATOM     11  N   UNL     1      -2.737   4.599  24.697  0.00  0.00    -0.243 NA
ATOM     12  C   UNL     1      -3.246   3.957  24.793  0.00  0.00    +0.095 A 
ENDBRANCH   6   7
ENDBRANCH   5   6
ENDBRANCH  13   5
ENDBRANCH  16  14
TORSDOF 8
ENDMDL
MODEL 6
REMARK VINA RESULT:     -10.5      1.340      3.801
REMARK  Name = 
REMARK  8 active torsions:
REMARK  status: ('A' for Active; 'I' for Inactive)
REMARK    1  A    between atoms: O_2  and  C_3
REMARK    2  A    between atoms: C_3  and  C_5
REMARK    3  A    between atoms: C_5  and  C_6
REMARK    4  A    between atoms: C_5  and  N_13
REMARK    5  A    between atoms: C_6  and  C_7
REMARK    6  A    between atoms: C_14  and  C_16
REMARK    7  A    between atoms: C_22  and  C_24
REMARK    8  A    between atoms: C_30  and  C_32
REMARK                            x       y       z     vdW  Elec       q    Type
REMARK                         _______ _______ _______ _____ _____    ______ ____
ROOT
ATOM     16  C   UNL     1      -2.009   1.509  24.871  0.00  0.00    +0.174 C 
ATOM     17  C   UNL     1      -2.729   1.106  24.893  0.00  0.00    +0.123 C 
ATOM     18  N   UNL     1      -3.434   1.525  24.978  0.00  0.00    -0.272 N 
ATOM     19  C   UNL     1      -3.420   2.347  25.040  0.00  0.00    +0.115 C 
ATOM     20  C   UNL     1      -2.701   2.751  25.018  0.00  0.00    +0.115 C 
ATOM     21  N   UNL     1      -1.995   2.331  24.933  0.00  0.00    -0.270 N 
ATOM     22  C   UNL     1      -1.276   2.734  24.911  0.00  0.00    +0.226 C 
ATOM     23  O   UNL     1      -0.570   2.315  24.826  0.00  0.00    -0.275 OA
ATOM     30  C   UNL     1      -4.153   1.121  25.000  0.00  0.00    +0.249 C 
ATOM     31  O   UNL     1      -4.167   0.299  24.937  0.00  0.00    -0.270 OA
ENDROOT
BRANCH  30  32
ATOM     32  C   UNL     1      -4.858   1.540  25.085  0.00  0.00    +0.056 A 
ATOM     33  C   UNL     1      -5.205   1.902  24.429  0.00  0.00    +0.005 A 
ATOM     34  C   UNL     1      -5.911   2.321  24.513  0.00  0.00    +0.002 A 
ATOM     35  C   UNL     1      -6.269   2.378  25.254  0.00  0.00    +0.030 A 
ATOM     36  C   UNL     1      -5.923   2.017  25.910  0.00  0.00    +0.140 A 
ATOM     37  F   UNL     1      -6.282   2.074  26.651  0.00  0.00    -0.204 F 
ATOM     38  C   UNL     1      -5.218   1.598  25.825  0.00  0.00    +0.034 A 
ENDBRANCH  30  32
BRANCH  22  24
ATOM     24  C   UNL     1      -1.262   3.557  24.974  0.00  0.00    +0.077 C 
ATOM     25  C   UNL     1      -1.590   3.926  25.636  0.00  0.00    +0.009 C 
ATOM     26  C   UNL     1      -1.576   4.748  25.698  0.00  0.00    +0.000 C 
ATOM     27  C   UNL     1      -1.235   5.203  25.099  0.00  0.00    +0.000 C 
ATOM     28  C   UNL     1      -0.908   4.834  24.438  0.00  0.00    +0.000 C 
ATOM     29  C   UNL     1      -0.922   4.011  24.375  0.00  0.00    +0.009 C 
ENDBRANCH  22  24
BRANCH  16  14
ATOM     13  N   UNL     1      -1.253   0.474  24.241  0.00  0.00    -0.194 NA
ATOM     14  C   UNL     1      -1.303   1.090  24.786  0.00  0.00    +0.262 C 
ATOM     15  O   UNL     1      -0.648   1.288  25.247  0.00  0.00    -0.271 OA
BRANCH  13   5
ATOM      5  C   UNL     1      -0.547   0.055  24.156  0.00  0.00    +0.198 C 
BRANCH   5   3
ATOM      3  C   UNL     1      -0.039   0.225  23.529  0.00  0.00    +0.337 C 
ATOM      4  O   UNL     1      -0.348   0.424  22.790  0.00  0.00    -0.248 OA
BRANCH   3   2
ATOM      1  C   UNL     1       1.285   0.262  22.993  0.00  0.00    +0.256 C 
ATOM      2  O   UNL     1       0.778   0.197  23.641  0.00  0.00    -0.443 OA
ENDBRANCH   3   2
ENDBRANCH   5   3
BRANCH   5   6
ATOM      6  C   UNL     1      -0.350  -0.535  24.697  0.00  0.00    +0.061 C 
BRANCH   6   7
ATOM      7  C   UNL     1      -0.771  -1.244  24.708  0.00  0.00    -0.001 A 
ATOM      8  C   UNL     1      -0.905  -1.634  25.423  0.00  0.00    -0.001 A 
ATOM      9  C   UNL     1      -1.326  -2.343  25.433  0.00  0.00    +0.020 A 
ATOM     10  C   UNL     1      -1.614  -2.663  24.729  0.00  0.00    +0.099 A 
ATOM     11  N   UNL     1      -1.480  -2.273  24.014  0.00  0.00    -0.243 NA
ATOM     12  C   UNL     1      -1.058  -1.563  24.004  0.00  0.00    +0.095 A 
ENDBRANCH   6   7
ENDBRANCH   5   6
ENDBRANCH  13   5
ENDBRANCH  16  14
TORSDOF 8
ENDMDL
