MODEL 1
REMARK VINA RESULT:     -12.0      0.000      0.000
REMARK  Name = 
REMARK  8 active torsions:
REMARK  status: ('A' for Active; 'I' for Inactive)
REMARK    1  A    between atoms: O_2  and  C_3
REMARK    2  A    between atoms: C_4  and  C_5
REMARK    3  A    between atoms: C_5  and  N_6
REMARK    4  A    between atoms: C_7  and  C_9
REMARK    5  A    between atoms: C_9  and  C_11
REMARK    6  A    between atoms: C_18  and  N_19
REMARK    7  A    between atoms: C_20  and  C_22
REMARK    8  A    between atoms: C_22  and  C_23
REMARK                            x       y       z     vdW  Elec       q    Type
REMARK                         _______ _______ _______ _____ _____    ______ ____
ROOT
ATOM     11  C   UNL     1      -0.237   2.232  25.125  0.00  0.00    +0.039 C 
ATOM     12  C   UNL     1       0.216   2.283  24.436  0.00  0.00    +0.003 C 
ATOM     13  C   UNL     1       0.356   1.608  23.984  0.00  0.00    +0.000 C 
ATOM     14  C   UNL     1       0.045   0.882  24.220  0.00  0.00    +0.002 C 
ATOM     15  C   UNL     1       0.497   0.933  23.533  0.00  0.00    +0.000 C 
ATOM     16  C   UNL     1       0.186   0.206  23.768  0.00  0.00    +0.002 C 
ATOM     17  C   UNL     1      -0.126  -0.520  24.003  0.00  0.00    +0.022 C 
ATOM     18  C   UNL     1      -0.579  -0.571  24.691  0.00  0.00    +0.095 C 
ATOM     29  C   UNL     1      -0.719   0.104  25.143  0.00  0.00    +0.022 C 
ATOM     30  C   UNL     1      -1.172   0.052  25.831  0.00  0.00    +0.002 C 
ATOM     31  C   UNL     1      -0.408   0.831  24.908  0.00  0.00    +0.032 C 
ATOM     32  C   UNL     1      -0.548   1.506  25.360  0.00  0.00    +0.152 C 
ATOM     33  O   UNL     1      -1.001   1.454  26.048  0.00  0.00    -0.223 OA
ENDROOT
BRANCH  18  19
ATOM     19  N   UNL     1      -0.890  -1.298  24.926  0.00  0.00    -0.207 NA
ATOM     20  C   UNL     1      -1.309  -1.761  24.387  0.00  0.00    +0.246 C 
ATOM     21  O   UNL     1      -1.416  -1.497  23.612  0.00  0.00    -0.273 OA
BRANCH  20  22
ATOM     22  C   UNL     1      -1.620  -2.488  24.620  0.00  0.00    +0.113 C 
BRANCH  22  23
ATOM     23  C   UNL     1      -2.435  -2.618  24.585  0.00  0.00    -0.013 A 
ATOM     24  C   UNL     1      -2.899  -2.512  25.259  0.00  0.00    -0.004 A 
ATOM     25  C   UNL     1      -3.712  -2.641  25.224  0.00  0.00    -0.000 A 
ATOM     26  C   UNL     1      -4.063  -2.876  24.515  0.00  0.00    -0.000 A 
ATOM     27  C   UNL     1      -3.600  -2.982  23.841  0.00  0.00    -0.000 A 
ATOM     28  C   UNL     1      -2.785  -2.852  23.876  0.00  0.00    -0.004 A 
ENDBRANCH  22  23
ENDBRANCH  20  22
ENDBRANCH  18  19
BRANCH  11   9
ATOM      9  C   UNL     1      -0.378   2.908  25.577  0.00  0.00    +0.081 C 
ATOM     10  C   UNL     1       0.012   3.010  26.298  0.00  0.00    +0.010 C 
BRANCH   9   7
ATOM      6  N   UNL     1      -1.716   3.388  25.438  0.00  0.00    -0.200 NA
ATOM      7  C   UNL     1      -0.907   3.482  25.310  0.00  0.00    +0.241 C 
ATOM      8  O   UNL     1      -0.626   4.150  24.915  0.00  0.00    -0.273 OA
BRANCH   6   5
ATOM      5  C   UNL     1      -2.245   3.962  25.171  0.00  0.00    +0.144 C 
BRANCH   5   4
ATOM      3  C   UNL     1      -3.570   3.676  24.719  0.00  0.00    +0.136 A 
ATOM      4  C   UNL     1      -3.051   3.885  25.325  0.00  0.00    +0.033 A 
ATOM     34  C   UNL     1      -3.340   4.016  26.087  0.00  0.00    +0.000 A 
ATOM     35  C   UNL     1      -4.146   3.939  26.243  0.00  0.00    -0.000 A 
ATOM     36  C   UNL     1      -4.665   3.730  25.635  0.00  0.00    +0.003 A 
ATOM     37  C   UNL     1      -4.377   3.598  24.873  0.00  0.00    +0.037 A 
BRANCH   3   2
ATOM      1  C   UNL     1      -3.767   3.198  23.386  0.00  0.00    +0.252 C 
ATOM      2  O   UNL     1      -3.281   3.544  23.956  0.00  0.00    -0.472 OA
ENDBRANCH   3   2
ENDBRANCH   5   4
ENDBRANCH   6   5
ENDBRANCH   9   7
ENDBRANCH  11   9
TORSDOF 8
ENDMDL
MODEL 2
REMARK VINA RESULT:     -11.9      1.797      3.853
REMARK  Name = 
REMARK  8 active torsions:
REMARK  status: ('A' for Active; 'I' for Inactive)
REMARK    1  A    between atoms: O_2  and  C_3
REMARK    2  A    between atoms: C_4  and  C_5
REMARK    3  A    between atoms: C_5  and  N_6
REMARK    4  A    between atoms: C_7  and  C_9
REMARK    5  A    between atoms: C_9  and  C_11
REMARK    6  A    between atoms: C_18  and  N_19
REMARK    7  A    between atoms: C_20  and  C_22
REMARK    8  A    between atoms: C_22  and  C_23
REMARK                            x       y       z     vdW  Elec       q    Type
REMARK                         _______ _______ _______ _____ _____    ______ ____
ROOT
ATOM     11  C   UNL     1      -4.607   3.161  25.199  0.00  0.00    +0.039 C 
ATOM     12  C   UNL     1      -5.226   3.046  25.734  0.00  0.00    +0.003 C 
ATOM     13  C   UNL     1      -5.568   2.301  25.814  0.00  0.00    +0.000 C 
ATOM     14  C   UNL     1      -5.293   1.669  25.361  0.00  0.00    +0.002 C 
ATOM     15  C   UNL     1      -5.910   1.555  25.895  0.00  0.00    +0.000 C 
ATOM     16  C   UNL     1      -5.635   0.923  25.442  0.00  0.00    +0.002 C 
ATOM     17  C   UNL     1      -5.360   0.292  24.988  0.00  0.00    +0.022 C 
ATOM     18  C   UNL     1      -4.741   0.406  24.453  0.00  0.00    +0.095 C 
ATOM     29  C   UNL     1      -4.399   1.152  24.373  0.00  0.00    +0.022 C 
ATOM     30  C   UNL     1      -3.781   1.266  23.839  0.00  0.00    +0.002 C 
ATOM     31  C   UNL     1      -4.674   1.784  24.826  0.00  0.00    +0.032 C 
ATOM     32  C   UNL     1      -4.332   2.530  24.746  0.00  0.00    +0.152 C 
ATOM     33  O   UNL     1      -3.714   2.644  24.212  0.00  0.00    -0.223 OA
ENDROOT
BRANCH  18  19
ATOM     19  N   UNL     1      -4.466  -0.226  24.000  0.00  0.00    -0.207 NA
ATOM     20  C   UNL     1      -4.257  -0.935  24.366  0.00  0.00    +0.246 C 
ATOM     21  O   UNL     1      -4.324  -1.012  25.185  0.00  0.00    -0.273 OA
BRANCH  20  22
ATOM     22  C   UNL     1      -3.982  -1.568  23.914  0.00  0.00    +0.113 C 
BRANCH  22  23
ATOM     23  C   UNL     1      -3.387  -2.058  24.210  0.00  0.00    -0.013 A 
ATOM     24  C   UNL     1      -3.582  -2.778  24.562  0.00  0.00    -0.004 A 
ATOM     25  C   UNL     1      -2.988  -3.266  24.858  0.00  0.00    -0.000 A 
ATOM     26  C   UNL     1      -2.197  -3.036  24.801  0.00  0.00    -0.000 A 
ATOM     27  C   UNL     1      -2.002  -2.316  24.448  0.00  0.00    -0.000 A 
ATOM     28  C   UNL     1      -2.597  -1.827  24.152  0.00  0.00    -0.004 A 
ENDBRANCH  22  23
ENDBRANCH  20  22
ENDBRANCH  18  19
BRANCH  11   9
ATOM      9  C   UNL     1      -4.265   3.908  25.119  0.00  0.00    +0.081 C 
ATOM     10  C   UNL     1      -4.575   4.447  24.577  0.00  0.00    +0.010 C 
BRANCH   9   7
ATOM      6  N   UNL     1      -2.867   4.182  25.234  0.00  0.00    -0.200 NA
ATOM      7  C   UNL     1      -3.613   4.116  25.580  0.00  0.00    +0.241 C 
ATOM      8  O   UNL     1      -3.708   4.257  26.388  0.00  0.00    -0.273 OA
BRANCH   6   5
ATOM      5  C   UNL     1      -2.216   4.390  25.695  0.00  0.00    +0.144 C 
BRANCH   5   4
ATOM      3  C   UNL     1      -0.887   3.943  25.422  0.00  0.00    +0.136 A 
ATOM      4  C   UNL     1      -1.480   4.509  25.341  0.00  0.00    +0.033 A 
ATOM     34  C   UNL     1      -1.339   5.195  24.905  0.00  0.00    +0.000 A 
ATOM     35  C   UNL     1      -0.604   5.315  24.551  0.00  0.00    -0.000 A 
ATOM     36  C   UNL     1      -0.009   4.748  24.633  0.00  0.00    +0.003 A 
ATOM     37  C   UNL     1      -0.151   4.062  25.069  0.00  0.00    +0.037 A 
BRANCH   3   2
ATOM      1  C   UNL     1      -0.409   2.734  26.018  0.00  0.00    +0.252 C 
ATOM      2  O   UNL     1      -1.028   3.256  25.859  0.00  0.00    -0.472 OA
ENDBRANCH   3   2
ENDBRANCH   5   4
ENDBRANCH   6   5
ENDBRANCH   9   7
ENDBRANCH  11   9
TORSDOF 8
ENDMDL
MODEL 3
REMARK VINA RESULT:     -11.1      2.345      4.319
REMARK  Name = 
REMARK  8 active torsions:
REMARK  status: ('A' for Active; 'I' for Inactive)
REMARK    1  A    between atoms: O_2  and  C_3
REMARK    2  A    between atoms: C_4  and  C_5
REMARK    3  A    between atoms: C_5  and  N_6
REMARK    4  A    between atoms: C_7  and  C_9
REMARK    5  A    between atoms: C_9  and  C_11
REMARK    6  A    between atoms: C_18  and  N_19
REMARK    7  A    between atoms: C_20  and  C_22
REMARK    8  A    between atoms: C_22  and  C_23
REMARK                            x       y       z     vdW  Elec       q    Type
REMARK                         _______ _______ _______ _____ _____    ______ ____
ROOT
ATOM     11  C   UNL     1      -1.562   0.572  24.747  0.00  0.00    +0.039 C 
ATOM     12  C   UNL     1      -1.451   1.339  25.032  0.00  0.00    +0.003 C 
ATOM     13  C   UNL     1      -0.749   1.741  24.872  0.00  0.00    +0.000 C 
ATOM     14  C   UNL     1      -0.158   1.377  24.427  0.00  0.00    +0.002 C 
ATOM     15  C   UNL     1      -0.047   2.142  24.712  0.00  0.00    +0.000 C 
ATOM     16  C   UNL     1       0.545   1.779  24.267  0.00  0.00    +0.002 C 
ATOM     17  C   UNL     1       1.136   1.415  23.823  0.00  0.00    +0.022 C 
ATOM     18  C   UNL     1       1.026   0.647  23.538  0.00  0.00    +0.095 C 
ATOM     29  C   UNL     1       0.324   0.246  23.698  0.00  0.00    +0.022 C 
ATOM     30  C   UNL     1       0.213  -0.521  23.413  0.00  0.00    +0.002 C 
ATOM     31  C   UNL     1      -0.269   0.609  24.143  0.00  0.00    +0.032 C 
ATOM     32  C   UNL     1      -0.970   0.208  24.303  0.00  0.00    +0.152 C 
ATOM     33  O   UNL     1      -1.081  -0.559  24.018  0.00  0.00    -0.223 OA
ENDROOT
BRANCH  18  19
ATOM     19  N   UNL     1       1.618   0.283  23.093  0.00  0.00    -0.207 NA
ATOM     20  C   UNL     1       2.367   0.625  23.047  0.00  0.00    +0.246 C 
ATOM     21  O   UNL     1       2.524   1.331  23.446  0.00  0.00    -0.273 OA
BRANCH  20  22
ATOM     22  C   UNL     1       2.960   0.263  22.603  0.00  0.00    +0.113 C 
BRANCH  22  23
ATOM     23  C   UNL     1       3.711   0.154  22.929  0.00  0.00    -0.013 A 
ATOM     24  C   UNL     1       4.276   0.752  22.872  0.00  0.00    -0.004 A 
ATOM     25  C   UNL     1       5.026   0.643  23.197  0.00  0.00    -0.000 A 
ATOM     26  C   UNL     1       5.211  -0.064  23.580  0.00  0.00    -0.000 A 
ATOM     27  C   UNL     1       4.646  -0.663  23.636  0.00  0.00    -0.000 A 
ATOM     28  C   UNL     1       3.895  -0.554  23.310  0.00  0.00    -0.004 A 
ENDBRANCH  22  23
ENDBRANCH  20  22
ENDBRANCH  18  19
BRANCH  11   9
ATOM      9  C   UNL     1      -2.264   0.170  24.908  0.00  0.00    +0.081 C 
ATOM     10  C   UNL     1      -2.270  -0.447  25.455  0.00  0.00    +0.010 C 
BRANCH   9   7
ATOM      6  N   UNL     1      -3.462   0.949  24.856  0.00  0.00    -0.200 NA
ATOM      7  C   UNL     1      -2.961   0.385  24.522  0.00  0.00    +0.241 C 
ATOM      8  O   UNL     1      -3.158   0.035  23.800  0.00  0.00    -0.273 OA
BRANCH   6   5
ATOM      5  C   UNL     1      -4.158   1.163  24.470  0.00  0.00    +0.144 C 
BRANCH   5   4
ATOM      3  C   UNL     1      -4.764   2.450  24.604  0.00  0.00    +0.136 A 
ATOM      4  C   UNL     1      -4.699   1.663  24.841  0.00  0.00    +0.033 A 
ATOM     34  C   UNL     1      -5.176   1.375  25.450  0.00  0.00    +0.000 A 
ATOM     35  C   UNL     1      -5.717   1.874  25.822  0.00  0.00    -0.000 A 
ATOM     36  C   UNL     1      -5.782   2.663  25.584  0.00  0.00    +0.003 A 
ATOM     37  C   UNL     1      -5.305   2.951  24.976  0.00  0.00    +0.037 A 
BRANCH   3   2
ATOM      1  C   UNL     1      -4.257   3.549  23.843  0.00  0.00    +0.252 C 
ATOM      2  O   UNL     1      -4.286   2.738  23.995  0.00  0.00    -0.472 OA
ENDBRANCH   3   2
ENDBRANCH   5   4
ENDBRANCH   6   5
ENDBRANCH   9   7
ENDBRANCH  11   9
TORSDOF 8
ENDMDL
MODEL 4
REMARK VINA RESULT:     -10.5      1.130      5.029
REMARK  Name = 
REMARK  8 active torsions:
REMARK  status: ('A' for Active; 'I' for Inactive)
REMARK    1  A    between atoms: O_2  and  C_3
REMARK    2  A    between atoms: C_4  and  C_5
REMARK    3  A    between atoms: C_5  and  N_6
REMARK    4  A    between atoms: C_7  and  C_9
REMARK    5  A    between atoms: C_9  and  C_11
REMARK    6  A    between atoms: C_18  and  N_19
REMARK    7  A    between atoms: C_20  and  C_22
REMARK    8  A    between atoms: C_22  and  C_23
REMARK                            x       y       z     vdW  Elec       q    Type
REMARK                         _______ _______ _______ _____ _____    ______ ____
ROOT
ATOM     11  C   UNL     1      -0.323   0.566  24.247  0.00  0.00    +0.039 C 
ATOM     12  C   UNL     1       0.239   0.930  24.731  0.00  0.00    +0.003 C 
ATOM     13  C   UNL     1       0.101   1.688  25.024  0.00  0.00    +0.000 C 
ATOM     14  C   UNL     1      -0.597   2.084  24.834  0.00  0.00    +0.002 C 
ATOM     15  C   UNL     1      -0.036   2.447  25.317  0.00  0.00    +0.000 C 
ATOM     16  C   UNL     1      -0.734   2.843  25.127  0.00  0.00    +0.002 C 
ATOM     17  C   UNL     1      -1.432   3.238  24.937  0.00  0.00    +0.022 C 
ATOM     18  C   UNL     1      -1.994   2.874  24.453  0.00  0.00    +0.095 C 
ATOM     29  C   UNL     1      -1.857   2.116  24.161  0.00  0.00    +0.022 C 
ATOM     30  C   UNL     1      -2.419   1.753  23.678  0.00  0.00    +0.002 C 
ATOM     31  C   UNL     1      -1.159   1.720  24.350  0.00  0.00    +0.032 C 
ATOM     32  C   UNL     1      -1.021   0.962  24.058  0.00  0.00    +0.152 C 
ATOM     33  O   UNL     1      -1.583   0.598  23.574  0.00  0.00    -0.223 OA
ENDROOT
BRANCH  18  19
ATOM     19  N   UNL     1      -2.693   3.271  24.264  0.00  0.00    -0.207 NA
ATOM     20  C   UNL     1      -3.201   3.521  24.864  0.00  0.00    +0.246 C 
ATOM     21  O   UNL     1      -3.010   3.375  25.654  0.00  0.00    -0.273 OA
BRANCH  20  22
ATOM     22  C   UNL     1      -3.899   3.917  24.676  0.00  0.00    +0.113 C 
BRANCH  22  23
ATOM     23  C   UNL     1      -4.618   3.656  24.987  0.00  0.00    -0.013 A 
ATOM     24  C   UNL     1      -4.961   2.960  24.707  0.00  0.00    -0.004 A 
ATOM     25  C   UNL     1      -5.678   2.700  25.018  0.00  0.00    -0.000 A 
ATOM     26  C   UNL     1      -6.054   3.135  25.611  0.00  0.00    -0.000 A 
ATOM     27  C   UNL     1      -5.711   3.831  25.891  0.00  0.00    -0.000 A 
ATOM     28  C   UNL     1      -4.992   4.092  25.579  0.00  0.00    -0.004 A 
ENDBRANCH  22  23
ENDBRANCH  20  22
ENDBRANCH  18  19
BRANCH  11   9
ATOM      9  C   UNL     1      -0.185  -0.193  23.955  0.00  0.00    +0.081 C 
ATOM     10  C   UNL     1       0.162  -0.291  23.213  0.00  0.00    +0.010 C 
BRANCH   9   7
ATOM      6  N   UNL     1      -1.154  -1.168  24.345  0.00  0.00    -0.200 NA
ATOM      7  C   UNL     1      -0.394  -0.853  24.403  0.00  0.00    +0.241 C 
ATOM      8  O   UNL     1       0.158  -1.200  24.909  0.00  0.00    -0.273 OA
BRANCH   6   5
ATOM      5  C   UNL     1      -1.363  -1.828  24.793  0.00  0.00    +0.144 C 
BRANCH   5   4
ATOM      3  C   UNL     1      -2.723  -2.023  25.184  0.00  0.00    +0.136 A 
ATOM      4  C   UNL     1      -2.095  -2.191  24.678  0.00  0.00    +0.033 A 
ATOM     34  C   UNL     1      -2.198  -2.723  24.056  0.00  0.00    +0.000 A 
ATOM     35  C   UNL     1      -2.929  -3.087  23.940  0.00  0.00    -0.000 A 
ATOM     36  C   UNL     1      -3.558  -2.918  24.448  0.00  0.00    +0.003 A 
ATOM     37  C   UNL     1      -3.455  -2.386  25.070  0.00  0.00    +0.037 A 
BRANCH   3   2
ATOM      1  C   UNL     1      -3.274  -1.222  26.232  0.00  0.00    +0.252 C 
ATOM      2  O   UNL     1      -2.620  -1.490  25.807  0.00  0.00    -0.472 OA
ENDBRANCH   3   2
ENDBRANCH   5   4
ENDBRANCH   6   5
ENDBRANCH   9   7
ENDBRANCH  11   9
TORSDOF 8
ENDMDL
MODEL 5
REMARK VINA RESULT:     -10.5      2.579      5.498
REMARK  Name = 
REMARK  8 active torsions:
REMARK  status: ('A' for Active; 'I' for Inactive)
REMARK    1  A    between atoms: O_2  and  C_3
REMARK    2  A    between atoms: C_4  and  C_5
REMARK    3  A    between atoms: C_5  and  N_6
REMARK    4  A    between atoms: C_7  and  C_9
REMARK    5  A    between atoms: C_9  and  C_11
REMARK    6  A    between atoms: C_18  and  N_19
REMARK    7  A    between atoms: C_20  and  C_22
REMARK    8  A    between atoms: C_22  and  C_23
REMARK                            x       y       z     vdW  Elec       q    Type
REMARK                         _______ _______ _______ _____ _____    ______ ____
ROOT
ATOM     11  C   UNL     1      -0.154   0.346  23.977  0.00  0.00    +0.039 C 
ATOM     12  C   UNL     1      -0.090  -0.364  24.393  0.00  0.00    +0.003 C 
ATOM     13  C   UNL     1      -0.768  -0.742  24.671  0.00  0.00    +0.000 C 
ATOM     14  C   UNL     1      -1.510  -0.411  24.533  0.00  0.00    +0.002 C 
ATOM     15  C   UNL     1      -1.446  -1.120  24.949  0.00  0.00    +0.000 C 
ATOM     16  C   UNL     1      -2.189  -0.789  24.811  0.00  0.00    +0.002 C 
ATOM     17  C   UNL     1      -2.932  -0.458  24.674  0.00  0.00    +0.022 C 
ATOM     18  C   UNL     1      -2.996   0.253  24.257  0.00  0.00    +0.095 C 
ATOM     29  C   UNL     1      -2.318   0.630  23.979  0.00  0.00    +0.022 C 
ATOM     30  C   UNL     1      -2.382   1.340  23.563  0.00  0.00    +0.002 C 
ATOM     31  C   UNL     1      -1.575   0.299  24.117  0.00  0.00    +0.032 C 
ATOM     32  C   UNL     1      -0.897   0.677  23.839  0.00  0.00    +0.152 C 
ATOM     33  O   UNL     1      -0.961   1.387  23.423  0.00  0.00    -0.223 OA
ENDROOT
BRANCH  18  19
ATOM     19  N   UNL     1      -3.739   0.584  24.120  0.00  0.00    -0.207 NA
ATOM     20  C   UNL     1      -4.297   0.610  24.727  0.00  0.00    +0.246 C 
ATOM     21  O   UNL     1      -4.112   0.305  25.471  0.00  0.00    -0.273 OA
BRANCH  20  22
ATOM     22  C   UNL     1      -5.041   0.940  24.591  0.00  0.00    +0.113 C 
BRANCH  22  23
ATOM     23  C   UNL     1      -5.278   1.609  25.013  0.00  0.00    -0.013 A 
ATOM     24  C   UNL     1      -5.104   2.362  24.725  0.00  0.00    -0.004 A 
ATOM     25  C   UNL     1      -5.341   3.030  25.147  0.00  0.00    -0.000 A 
ATOM     26  C   UNL     1      -5.752   2.945  25.857  0.00  0.00    -0.000 A 
ATOM     27  C   UNL     1      -5.926   2.192  26.145  0.00  0.00    -0.000 A 
ATOM     28  C   UNL     1      -5.689   1.523  25.723  0.00  0.00    -0.004 A 
ENDBRANCH  22  23
ENDBRANCH  20  22
ENDBRANCH  18  19
BRANCH  11   9
ATOM      9  C   UNL     1       0.525   0.724  23.699  0.00  0.00    +0.081 C 
ATOM     10  C   UNL     1       0.654   1.520  23.873  0.00  0.00    +0.010 C 
BRANCH   9   7
ATOM      6  N   UNL     1       1.882   0.434  23.357  0.00  0.00    -0.200 NA
ATOM      7  C   UNL     1       1.075   0.306  23.247  0.00  0.00    +0.241 C 
ATOM      8  O   UNL     1       0.817  -0.241  22.685  0.00  0.00    -0.273 OA
BRANCH   6   5
ATOM      5  C   UNL     1       2.431   0.017  22.906  0.00  0.00    +0.144 C 
BRANCH   5   4
ATOM      3  C   UNL     1       3.798  -0.299  23.179  0.00  0.00    +0.136 A 
ATOM      4  C   UNL     1       3.227   0.235  22.918  0.00  0.00    +0.033 A 
ATOM     34  C   UNL     1       3.451   0.989  22.668  0.00  0.00    +0.000 A 
ATOM     35  C   UNL     1       4.246   1.208  22.680  0.00  0.00    -0.000 A 
ATOM     36  C   UNL     1       4.818   0.673  22.941  0.00  0.00    +0.003 A 
ATOM     37  C   UNL     1       4.594  -0.081  23.191  0.00  0.00    +0.037 A 
BRANCH   3   2
ATOM      1  C   UNL     1       4.127  -1.552  23.784  0.00  0.00    +0.252 C 
ATOM      2  O   UNL     1       3.573  -1.054  23.429  0.00  0.00    -0.472 OA
ENDBRANCH   3   2
ENDBRANCH   5   4
ENDBRANCH   6   5
ENDBRANCH   9   7
ENDBRANCH  11   9
TORSDOF 8
ENDMDL
MODEL 6
REMARK VINA RESULT:     -10.3      1.300      5.036
REMARK  Name = 
REMARK  8 active torsions:
REMARK  status: ('A' for Active; 'I' for Inactive)
REMARK    1  A    between atoms: O_2  and  C_3
REMARK    2  A    between atoms: C_4  and  C_5
REMARK    3  A    between atoms: C_5  and  N_6
REMARK    4  A    between atoms: C_7  and  C_9
REMARK    5  A    between atoms: C_9  and  C_11
REMARK    6  A    between atoms: C_18  and  N_19
REMARK    7  A    between atoms: C_20  and  C_22
REMARK    8  A    between atoms: C_22  and  C_23
REMARK                            x       y       z     vdW  Elec       q    Type
REMARK                         _______ _______ _______ _____ _____    ______ ____
ROOT
ATOM     11  C   UNL     1      -0.471  -0.913  24.686  0.00  0.00    +0.039 C 
ATOM     12  C   UNL     1      -0.156  -0.933  23.923  0.00  0.00    +0.003 C 
ATOM     13  C   UNL     1       0.127  -0.241  23.575  0.00  0.00    +0.000 C 
ATOM     14  C   UNL     1       0.095   0.471  23.989  0.00  0.00    +0.002 C 
ATOM     15  C   UNL     1       0.409   0.451  23.227  0.00  0.00    +0.000 C 
ATOM     16  C   UNL     1       0.377   1.164  23.641  0.00  0.00    +0.002 C 
ATOM     17  C   UNL     1       0.345   1.876  24.055  0.00  0.00    +0.022 C 
ATOM     18  C   UNL     1       0.031   1.897  24.818  0.00  0.00    +0.095 C 
ATOM     29  C   UNL     1      -0.252   1.205  25.166  0.00  0.00    +0.022 C 
ATOM     30  C   UNL     1      -0.566   1.225  25.928  0.00  0.00    +0.002 C 
ATOM     31  C   UNL     1      -0.220   0.491  24.752  0.00  0.00    +0.032 C 
ATOM     32  C   UNL     1      -0.502  -0.201  25.100  0.00  0.00    +0.152 C 
ATOM     33  O   UNL     1      -0.817  -0.180  25.862  0.00  0.00    -0.223 OA
ENDROOT
BRANCH  18  19
ATOM     19  N   UNL     1      -0.001   2.610  25.232  0.00  0.00    -0.207 NA
ATOM     20  C   UNL     1      -0.326   3.279  24.875  0.00  0.00    +0.246 C 
ATOM     21  O   UNL     1      -0.620   3.235  24.105  0.00  0.00    -0.273 OA
BRANCH  20  22
ATOM     22  C   UNL     1      -0.358   3.993  25.288  0.00  0.00    +0.113 C 
BRANCH  22  23
ATOM     23  C   UNL     1      -1.051   4.442  25.280  0.00  0.00    -0.013 A 
ATOM     24  C   UNL     1      -1.729   4.163  25.658  0.00  0.00    -0.004 A 
ATOM     25  C   UNL     1      -2.420   4.613  25.650  0.00  0.00    -0.000 A 
ATOM     26  C   UNL     1      -2.434   5.341  25.263  0.00  0.00    -0.000 A 
ATOM     27  C   UNL     1      -1.756   5.621  24.885  0.00  0.00    -0.000 A 
ATOM     28  C   UNL     1      -1.064   5.171  24.893  0.00  0.00    -0.004 A 
ENDBRANCH  22  23
ENDBRANCH  20  22
ENDBRANCH  18  19
BRANCH  11   9
ATOM      9  C   UNL     1      -0.753  -1.606  25.034  0.00  0.00    +0.081 C 
ATOM     10  C   UNL     1      -0.340  -1.951  25.659  0.00  0.00    +0.010 C 
BRANCH   9   7
ATOM      6  N   UNL     1      -2.179  -1.619  24.939  0.00  0.00    -0.200 NA
ATOM      7  C   UNL     1      -1.448  -1.954  24.757  0.00  0.00    +0.241 C 
ATOM      8  O   UNL     1      -1.411  -2.639  24.297  0.00  0.00    -0.273 OA
BRANCH   6   5
ATOM      5  C   UNL     1      -2.873  -1.968  24.662  0.00  0.00    +0.144 C 
BRANCH   5   4
ATOM      3  C   UNL     1      -4.155  -1.771  24.062  0.00  0.00    +0.136 A 
ATOM      4  C   UNL     1      -3.553  -1.512  24.562  0.00  0.00    +0.033 A 
ATOM     34  C   UNL     1      -3.631  -0.795  24.964  0.00  0.00    +0.000 A 
ATOM     35  C   UNL     1      -4.311  -0.339  24.865  0.00  0.00    -0.000 A 
ATOM     36  C   UNL     1      -4.913  -0.599  24.364  0.00  0.00    +0.003 A 
ATOM     37  C   UNL     1      -4.835  -1.315  23.962  0.00  0.00    +0.037 A 
BRANCH   3   2
ATOM      1  C   UNL     1      -4.748  -2.889  23.397  0.00  0.00    +0.252 C 
ATOM      2  O   UNL     1      -4.076  -2.488  23.659  0.00  0.00    -0.472 OA
ENDBRANCH   3   2
ENDBRANCH   5   4
ENDBRANCH   6   5
ENDBRANCH   9   7
ENDBRANCH  11   9
TORSDOF 8
ENDMDL
MODEL 7
REMARK VINA RESULT:     -10.3      1.760      4.904
REMARK  Name = 
REMARK  8 active torsions:
REMARK  status: ('A' for Active; 'I' for Inactive)
REMARK    1  A    between atoms: O_2  and  C_3
REMARK    2  A    between atoms: C_4  and  C_5
REMARK    3  A    between atoms: C_5  and  N_6
REMARK    4  A    between atoms: C_7  and  C_9
REMARK    5  A    between atoms: C_9  and  C_11
REMARK    6  A    between atoms: C_18  and  N_19
REMARK    7  A    between atoms: C_20  and  C_22
REMARK    8  A    between atoms: C_22  and  C_23
REMARK                            x       y       z     vdW  Elec       q    Type
REMARK                         _______ _______ _______ _____ _____    ______ ____
ROOT
ATOM     11  C   UNL     1      -0.498   3.256  25.475  0.00  0.00    +0.039 C 
ATOM     12  C   UNL     1      -0.318   3.983  25.127  0.00  0.00    +0.003 C 
ATOM     13  C   UNL     1      -0.909   4.548  25.022  0.00  0.00    +0.000 C 
ATOM     14  C   UNL     1      -1.681   4.387  25.263  0.00  0.00    +0.002 C 
ATOM     15  C   UNL     1      -1.500   5.112  24.916  0.00  0.00    +0.000 C 
ATOM     16  C   UNL     1      -2.273   4.952  25.158  0.00  0.00    +0.002 C 
ATOM     17  C   UNL     1      -3.045   4.791  25.399  0.00  0.00    +0.022 C 
ATOM     18  C   UNL     1      -3.225   4.064  25.747  0.00  0.00    +0.095 C 
ATOM     29  C   UNL     1      -2.634   3.499  25.852  0.00  0.00    +0.022 C 
ATOM     30  C   UNL     1      -2.814   2.773  26.200  0.00  0.00    +0.002 C 
ATOM     31  C   UNL     1      -1.861   3.660  25.611  0.00  0.00    +0.032 C 
ATOM     32  C   UNL     1      -1.270   3.095  25.716  0.00  0.00    +0.152 C 
ATOM     33  O   UNL     1      -1.450   2.369  26.064  0.00  0.00    -0.223 OA
ENDROOT
BRANCH  18  19
ATOM     19  N   UNL     1      -3.998   3.903  25.988  0.00  0.00    -0.207 NA
ATOM     20  C   UNL     1      -4.599   3.838  25.428  0.00  0.00    +0.246 C 
ATOM     21  O   UNL     1      -4.429   3.934  24.626  0.00  0.00    -0.273 OA
BRANCH  20  22
ATOM     22  C   UNL     1      -5.372   3.678  25.668  0.00  0.00    +0.113 C 
BRANCH  22  23
ATOM     23  C   UNL     1      -5.691   2.925  25.553  0.00  0.00    -0.013 A 
ATOM     24  C   UNL     1      -5.752   2.614  24.792  0.00  0.00    -0.004 A 
ATOM     25  C   UNL     1      -6.071   1.862  24.678  0.00  0.00    -0.000 A 
ATOM     26  C   UNL     1      -6.329   1.420  25.325  0.00  0.00    -0.000 A 
ATOM     27  C   UNL     1      -6.268   1.731  26.087  0.00  0.00    -0.000 A 
ATOM     28  C   UNL     1      -5.949   2.484  26.201  0.00  0.00    -0.004 A 
ENDBRANCH  22  23
ENDBRANCH  20  22
ENDBRANCH  18  19
BRANCH  11   9
ATOM      9  C   UNL     1       0.094   2.692  25.581  0.00  0.00    +0.081 C 
ATOM     10  C   UNL     1       0.424   2.575  26.328  0.00  0.00    +0.010 C 
BRANCH   9   7
ATOM      6  N   UNL     1       0.105   1.463  24.850  0.00  0.00    -0.200 NA
ATOM      7  C   UNL     1       0.357   2.243  24.940  0.00  0.00    +0.241 C 
ATOM      8  O   UNL     1       0.874   2.576  24.388  0.00  0.00    -0.273 OA
BRANCH   6   5
ATOM      5  C   UNL     1       0.368   1.016  24.210  0.00  0.00    +0.144 C 
BRANCH   5   4
ATOM      3  C   UNL     1       0.417  -0.230  23.512  0.00  0.00    +0.136 A 
ATOM      4  C   UNL     1       0.098   0.243  24.107  0.00  0.00    +0.033 A 
ATOM     34  C   UNL     1      -0.491  -0.057  24.601  0.00  0.00    +0.000 A 
ATOM     35  C   UNL     1      -0.761  -0.830  24.500  0.00  0.00    -0.000 A 
ATOM     36  C   UNL     1      -0.441  -1.303  23.903  0.00  0.00    +0.003 A 
ATOM     37  C   UNL     1       0.148  -1.004  23.410  0.00  0.00    +0.037 A 
BRANCH   3   2
ATOM      1  C   UNL     1       1.289  -0.385  22.389  0.00  0.00    +0.252 C 
ATOM      2  O   UNL     1       1.007   0.070  23.018  0.00  0.00    -0.472 OA
ENDBRANCH   3   2
ENDBRANCH   5   4
ENDBRANCH   6   5
ENDBRANCH   9   7
ENDBRANCH  11   9
TORSDOF 8
ENDMDL
MODEL 8
REMARK VINA RESULT:     -10.2      2.316      4.933
REMARK  Name = 
REMARK  8 active torsions:
REMARK  status: ('A' for Active; 'I' for Inactive)
REMARK    1  A    between atoms: O_2  and  C_3
REMARK    2  A    between atoms: C_4  and  C_5
REMARK    3  A    between atoms: C_5  and  N_6
REMARK    4  A    between atoms: C_7  and  C_9
REMARK    5  A    between atoms: C_9  and  C_11
REMARK    6  A    between atoms: C_18  and  N_19
REMARK    7  A    between atoms: C_20  and  C_22
REMARK    8  A    between atoms: C_22  and  C_23
REMARK                            x       y       z     vdW  Elec       q    Type
REMARK                         _______ _______ _______ _____ _____    ______ ____
ROOT
ATOM     11  C   UNL     1      -1.942   1.681  24.139  0.00  0.00    +0.039 C 
ATOM     12  C   UNL     1      -1.685   2.150  24.769  0.00  0.00    +0.003 C 
ATOM     13  C   UNL     1      -0.883   2.185  24.956  0.00  0.00    +0.000 C 
ATOM     14  C   UNL     1      -0.337   1.753  24.515  0.00  0.00    +0.002 C 
ATOM     15  C   UNL     1      -0.081   2.221  25.143  0.00  0.00    +0.000 C 
ATOM     16  C   UNL     1       0.466   1.788  24.702  0.00  0.00    +0.002 C 
ATOM     17  C   UNL     1       1.012   1.356  24.260  0.00  0.00    +0.022 C 
ATOM     18  C   UNL     1       0.755   0.887  23.630  0.00  0.00    +0.095 C 
ATOM     29  C   UNL     1      -0.047   0.852  23.443  0.00  0.00    +0.022 C 
ATOM     30  C   UNL     1      -0.304   0.384  22.814  0.00  0.00    +0.002 C 
ATOM     31  C   UNL     1      -0.594   1.284  23.885  0.00  0.00    +0.032 C 
ATOM     32  C   UNL     1      -1.396   1.249  23.698  0.00  0.00    +0.152 C 
ATOM     33  O   UNL     1      -1.653   0.781  23.069  0.00  0.00    -0.223 OA
ENDROOT
BRANCH  18  19
ATOM     19  N   UNL     1       1.302   0.455  23.189  0.00  0.00    -0.207 NA
ATOM     20  C   UNL     1       2.071   0.738  23.094  0.00  0.00    +0.246 C 
ATOM     21  O   UNL     1       2.293   1.454  23.440  0.00  0.00    -0.273 OA
BRANCH  20  22
ATOM     22  C   UNL     1       2.618   0.307  22.653  0.00  0.00    +0.113 C 
BRANCH  22  23
ATOM     23  C   UNL     1       3.410   0.288  22.884  0.00  0.00    -0.013 A 
ATOM     24  C   UNL     1       3.908   0.921  22.706  0.00  0.00    -0.004 A 
ATOM     25  C   UNL     1       4.699   0.902  22.937  0.00  0.00    -0.000 A 
ATOM     26  C   UNL     1       4.994   0.249  23.347  0.00  0.00    -0.000 A 
ATOM     27  C   UNL     1       4.496  -0.384  23.526  0.00  0.00    -0.000 A 
ATOM     28  C   UNL     1       3.704  -0.365  23.294  0.00  0.00    -0.004 A 
ENDBRANCH  22  23
ENDBRANCH  20  22
ENDBRANCH  18  19
BRANCH  11   9
ATOM      9  C   UNL     1      -2.745   1.646  23.952  0.00  0.00    +0.081 C 
ATOM     10  C   UNL     1      -3.036   2.067  23.306  0.00  0.00    +0.010 C 
BRANCH   9   7
ATOM      6  N   UNL     1      -3.324   0.380  24.276  0.00  0.00    -0.200 NA
ATOM      7  C   UNL     1      -3.257   1.191  24.412  0.00  0.00    +0.241 C 
ATOM      8  O   UNL     1      -3.703   1.547  25.009  0.00  0.00    -0.273 OA
BRANCH   6   5
ATOM      5  C   UNL     1      -3.836  -0.074  24.735  0.00  0.00    +0.144 C 
BRANCH   5   4
ATOM      3  C   UNL     1      -3.616  -1.399  25.224  0.00  0.00    +0.136 A 
ATOM      4  C   UNL     1      -3.872  -0.892  24.627  0.00  0.00    +0.033 A 
ATOM     34  C   UNL     1      -4.166  -1.201  23.920  0.00  0.00    +0.000 A 
ATOM     35  C   UNL     1      -4.203  -2.018  23.811  0.00  0.00    -0.000 A 
ATOM     36  C   UNL     1      -3.946  -2.526  24.409  0.00  0.00    +0.003 A 
ATOM     37  C   UNL     1      -3.653  -2.216  25.116  0.00  0.00    +0.037 A 
BRANCH   3   2
ATOM      1  C   UNL     1      -3.082  -1.598  26.535  0.00  0.00    +0.252 C 
ATOM      2  O   UNL     1      -3.323  -1.089  25.931  0.00  0.00    -0.472 OA
ENDBRANCH   3   2
ENDBRANCH   5   4
ENDBRANCH   6   5
ENDBRANCH   9   7
ENDBRANCH  11   9
TORSDOF 8
ENDMDL
MODEL 9
REMARK VINA RESULT:     -10.0      2.391      5.652
REMARK  Name = 
REMARK  8 active torsions:
REMARK  status: ('A' for Active; 'I' for Inactive)
REMARK    1  A    between atoms: O_2  and  C_3
REMARK    2  A    between atoms: C_4  and  C_5
REMARK    3  A    between atoms: C_5  and  N_6
REMARK    4  A    between atoms: C_7  and  C_9
REMARK    5  A    between atoms: C_9  and  C_11
REMARK    6  A    between atoms: C_18  and  N_19
REMARK    7  A    between atoms: C_20  and  C_22
REMARK    8  A    between atoms: C_22  and  C_23
REMARK                            x       y       z     vdW  Elec       q    Type
REMARK                         _______ _______ _______ _____ _____    ______ ____
ROOT
ATOM     11  C   UNL     1       0.136   0.750  23.865  0.00  0.00    +0.039 C 
ATOM     12  C   UNL     1       0.595   1.295  24.283  0.00  0.00    +0.003 C 
ATOM     13  C   UNL     1       0.260   2.003  24.541  0.00  0.00    +0.000 C 
ATOM     14  C   UNL     1      -0.532   2.167  24.382  0.00  0.00    +0.002 C 
ATOM     15  C   UNL     1      -0.075   2.711  24.799  0.00  0.00    +0.000 C 
ATOM     16  C   UNL     1      -0.867   2.875  24.641  0.00  0.00    +0.002 C 
ATOM     17  C   UNL     1      -1.660   3.039  24.482  0.00  0.00    +0.022 C 
ATOM     18  C   UNL     1      -2.118   2.494  24.064  0.00  0.00    +0.095 C 
ATOM     29  C   UNL     1      -1.784   1.786  23.806  0.00  0.00    +0.022 C 
ATOM     30  C   UNL     1      -2.242   1.241  23.388  0.00  0.00    +0.002 C 
ATOM     31  C   UNL     1      -0.991   1.621  23.965  0.00  0.00    +0.032 C 
ATOM     32  C   UNL     1      -0.656   0.914  23.706  0.00  0.00    +0.152 C 
ATOM     33  O   UNL     1      -1.114   0.369  23.289  0.00  0.00    -0.223 OA
ENDROOT
BRANCH  18  19
ATOM     19  N   UNL     1      -2.911   2.658  23.905  0.00  0.00    -0.207 NA
ATOM     20  C   UNL     1      -3.390   2.984  24.493  0.00  0.00    +0.246 C 
ATOM     21  O   UNL     1      -3.076   3.146  25.239  0.00  0.00    -0.273 OA
BRANCH  20  22
ATOM     22  C   UNL     1      -4.183   3.149  24.335  0.00  0.00    +0.113 C 
BRANCH  22  23
ATOM     23  C   UNL     1      -4.774   2.820  24.809  0.00  0.00    -0.013 A 
ATOM     24  C   UNL     1      -5.157   2.130  24.570  0.00  0.00    -0.004 A 
ATOM     25  C   UNL     1      -5.747   1.802  25.043  0.00  0.00    -0.000 A 
ATOM     26  C   UNL     1      -5.955   2.163  25.755  0.00  0.00    -0.000 A 
ATOM     27  C   UNL     1      -5.572   2.854  25.994  0.00  0.00    -0.000 A 
ATOM     28  C   UNL     1      -4.980   3.183  25.521  0.00  0.00    -0.004 A 
ENDBRANCH  22  23
ENDBRANCH  20  22
ENDBRANCH  18  19
BRANCH  11   9
ATOM      9  C   UNL     1       0.471   0.041  23.607  0.00  0.00    +0.081 C 
ATOM     10  C   UNL     1       0.190  -0.678  23.898  0.00  0.00    +0.010 C 
BRANCH   9   7
ATOM      6  N   UNL     1       1.868  -0.032  23.313  0.00  0.00    -0.200 NA
ATOM      7  C   UNL     1       1.088   0.051  23.059  0.00  0.00    +0.241 C 
ATOM      8  O   UNL     1       0.924   0.144  22.255  0.00  0.00    -0.273 OA
BRANCH   6   5
ATOM      5  C   UNL     1       2.484  -0.022  22.765  0.00  0.00    +0.144 C 
BRANCH   5   4
ATOM      3  C   UNL     1       3.838   0.421  22.875  0.00  0.00    +0.136 A 
ATOM      4  C   UNL     1       3.260  -0.151  23.013  0.00  0.00    +0.033 A 
ATOM     34  C   UNL     1       3.458  -0.852  23.400  0.00  0.00    +0.000 A 
ATOM     35  C   UNL     1       4.234  -0.982  23.648  0.00  0.00    -0.000 A 
ATOM     36  C   UNL     1       4.812  -0.409  23.510  0.00  0.00    +0.003 A 
ATOM     37  C   UNL     1       4.614   0.292  23.123  0.00  0.00    +0.037 A 
BRANCH   3   2
ATOM      1  C   UNL     1       4.191   1.735  22.437  0.00  0.00    +0.252 C 
ATOM      2  O   UNL     1       3.640   1.123  22.487  0.00  0.00    -0.472 OA
ENDBRANCH   3   2
ENDBRANCH   5   4
ENDBRANCH   6   5
ENDBRANCH   9   7
ENDBRANCH  11   9
TORSDOF 8
ENDMDL
MODEL 10
REMARK VINA RESULT:     -10.0      1.825      6.124
REMARK  Name = 
REMARK  8 active torsions:
REMARK  status: ('A' for Active; 'I' for Inactive)
REMARK    1  A    between atoms: O_2  and  C_3
REMARK    2  A    between atoms: C_4  and  C_5
REMARK    3  A    between atoms: C_5  and  N_6
REMARK    4  A    between atoms: C_7  and  C_9
REMARK    5  A    between atoms: C_9  and  C_11
REMARK    6  A    between atoms: C_18  and  N_19
REMARK    7  A    between atoms: C_20  and  C_22
REMARK    8  A    between atoms: C_22  and  C_23
REMARK                            x       y       z     vdW  Elec       q    Type
REMARK                         _______ _______ _______ _____ _____    ______ ____
ROOT
ATOM     11  C   UNL     1      -4.544   0.294  24.648  0.00  0.00    +0.039 C 
ATOM     12  C   UNL     1      -5.214   0.376  25.125  0.00  0.00    +0.003 C 
ATOM     13  C   UNL     1      -5.431   1.120  25.406  0.00  0.00    +0.000 C 
ATOM     14  C   UNL     1      -4.980   1.782  25.212  0.00  0.00    +0.002 C 
ATOM     15  C   UNL     1      -5.647   1.864  25.687  0.00  0.00    +0.000 C 
ATOM     16  C   UNL     1      -5.196   2.527  25.493  0.00  0.00    +0.002 C 
ATOM     17  C   UNL     1      -4.745   3.189  25.298  0.00  0.00    +0.022 C 
ATOM     18  C   UNL     1      -4.076   3.107  24.821  0.00  0.00    +0.095 C 
ATOM     29  C   UNL     1      -3.859   2.363  24.540  0.00  0.00    +0.022 C 
ATOM     30  C   UNL     1      -3.191   2.281  24.064  0.00  0.00    +0.002 C 
ATOM     31  C   UNL     1      -4.310   1.700  24.735  0.00  0.00    +0.032 C 
ATOM     32  C   UNL     1      -4.093   0.956  24.454  0.00  0.00    +0.152 C 
ATOM     33  O   UNL     1      -3.425   0.874  23.977  0.00  0.00    -0.223 OA
ENDROOT
BRANCH  18  19
ATOM     19  N   UNL     1      -3.625   3.770  24.626  0.00  0.00    -0.207 NA
ATOM     20  C   UNL     1      -3.236   4.192  25.219  0.00  0.00    +0.246 C 
ATOM     21  O   UNL     1      -3.299   3.952  26.006  0.00  0.00    -0.273 OA
BRANCH  20  22
ATOM     22  C   UNL     1      -2.785   4.855  25.026  0.00  0.00    +0.113 C 
BRANCH  22  23
ATOM     23  C   UNL     1      -1.961   4.810  25.038  0.00  0.00    -0.013 A 
ATOM     24  C   UNL     1      -1.585   4.247  25.509  0.00  0.00    -0.004 A 
ATOM     25  C   UNL     1      -0.762   4.202  25.521  0.00  0.00    -0.000 A 
ATOM     26  C   UNL     1      -0.313   4.721  25.062  0.00  0.00    -0.000 A 
ATOM     27  C   UNL     1      -0.689   5.285  24.590  0.00  0.00    -0.000 A 
ATOM     28  C   UNL     1      -1.513   5.329  24.579  0.00  0.00    -0.004 A 
ENDBRANCH  22  23
ENDBRANCH  20  22
ENDBRANCH  18  19
BRANCH  11   9
ATOM      9  C   UNL     1      -4.328  -0.451  24.367  0.00  0.00    +0.081 C 
ATOM     10  C   UNL     1      -4.538  -0.680  23.603  0.00  0.00    +0.010 C 
BRANCH   9   7
ATOM      6  N   UNL     1      -3.095  -1.081  24.720  0.00  0.00    -0.200 NA
ATOM      7  C   UNL     1      -3.901  -0.967  24.849  0.00  0.00    +0.241 C 
ATOM      8  O   UNL     1      -4.282  -1.369  25.462  0.00  0.00    -0.273 OA
BRANCH   6   5
ATOM      5  C   UNL     1      -2.668  -1.597  25.202  0.00  0.00    +0.144 C 
BRANCH   5   4
ATOM      3  C   UNL     1      -1.277  -1.370  25.433  0.00  0.00    +0.136 A 
ATOM      4  C   UNL     1      -1.879  -1.764  25.031  0.00  0.00    +0.033 A 
ATOM     34  C   UNL     1      -1.691  -2.327  24.457  0.00  0.00    +0.000 A 
ATOM     35  C   UNL     1      -0.902  -2.495  24.286  0.00  0.00    -0.000 A 
ATOM     36  C   UNL     1      -0.300  -2.100  24.689  0.00  0.00    +0.003 A 
ATOM     37  C   UNL     1      -0.487  -1.538  25.263  0.00  0.00    +0.037 A 
BRANCH   3   2
ATOM      1  C   UNL     1      -0.889  -0.274  26.265  0.00  0.00    +0.252 C 
ATOM      2  O   UNL     1      -1.464  -0.807  26.008  0.00  0.00    -0.472 OA
ENDBRANCH   3   2
ENDBRANCH   5   4
ENDBRANCH   6   5
ENDBRANCH   9   7
ENDBRANCH  11   9
TORSDOF 8
ENDMDL
