MODEL 1
REMARK VINA RESULT:      -8.3      0.000      0.000
REMARK  Name = 
REMARK  8 active torsions:
REMARK  status: ('A' for Active; 'I' for Inactive)
REMARK    1  A    between atoms: O_2  and  C_3
REMARK    2  A    between atoms: C_3  and  C_4
REMARK    3  A    between atoms: C_4  and  N_5
REMARK    4  A    between atoms: N_5  and  C_6
REMARK    5  A    between atoms: C_9  and  C_12
REMARK    6  A    between atoms: C_15  and  C_17
REMARK    7  A    between atoms: N_21  and  C_22
REMARK    8  A    between atoms: C_22  and  C_23
REMARK                            x       y       z     vdW  Elec       q    Type
REMARK                         _______ _______ _______ _____ _____    ______ ____
ROOT
ATOM     12  C   UNL     1      -0.903   0.200  24.451  0.00  0.00    +0.205 A 
ATOM     13  N   UNL     1      -0.948   0.198  25.275  0.00  0.00    -0.056 NA
ATOM     14  O   UNL     1      -1.744   0.161  25.487  0.00  0.00    -0.336 OA
ATOM     15  C   UNL     1      -2.192   0.141  24.794  0.00  0.00    +0.251 A 
ATOM     16  N   UNL     1      -1.671   0.165  24.154  0.00  0.00    -0.190 NA
ENDROOT
BRANCH  12   9
ATOM      6  C   UNL     1       1.175   0.298  23.110  0.00  0.00    +0.148 A 
ATOM      7  C   UNL     1       0.778  -0.420  23.205  0.00  0.00    +0.036 A 
ATOM      8  C   UNL     1       0.086  -0.452  23.652  0.00  0.00    +0.008 A 
ATOM      9  C   UNL     1      -0.210   0.232  24.004  0.00  0.00    +0.058 A 
ATOM     10  C   UNL     1       0.186   0.950  23.910  0.00  0.00    +0.103 A 
ATOM     11  N   UNL     1       0.879   0.983  23.463  0.00  0.00    -0.228 NA
BRANCH   6   5
ATOM      5  N   UNL     1       1.868   0.331  22.663  0.00  0.00    -0.218 NA
BRANCH   5   4
ATOM      4  C   UNL     1       2.589   0.492  23.030  0.00  0.00    +0.146 C 
BRANCH   4   3
ATOM      3  C   UNL     1       3.291   0.435  22.603  0.00  0.00    +0.166 C 
BRANCH   3   2
ATOM      1  C   UNL     1       4.670   0.464  22.978  0.00  0.00    +0.174 C 
ATOM      2  O   UNL     1       3.957   0.858  22.844  0.00  0.00    -0.349 OA
ENDBRANCH   3   2
ENDBRANCH   4   3
ENDBRANCH   5   4
ENDBRANCH   6   5
ENDBRANCH  12   9
BRANCH  15  17
ATOM     17  C   UNL     1      -3.015   0.103  24.749  0.00  0.00    +0.138 C 
ATOM     18  C   UNL     1      -3.530   0.748  24.757  0.00  0.00    +0.027 C 
ATOM     19  C   UNL     1      -4.301   0.457  24.701  0.00  0.00    +0.019 C 
ATOM     20  C   UNL     1      -4.261  -0.366  24.658  0.00  0.00    +0.073 C 
ATOM     21  N   UNL     1      -3.466  -0.584  24.688  0.00  0.00    -0.266 NA
BRANCH  21  22
ATOM     22  C   UNL     1      -3.174  -1.356  24.661  0.00  0.00    +0.072 C 
BRANCH  22  23
ATOM     23  C   UNL     1      -3.646  -1.966  24.368  0.00  0.00    +0.016 C 
ATOM     24  C   UNL     1      -4.250  -2.225  23.871  0.00  0.00    +0.001 C 
ATOM     25  C   UNL     1      -3.859  -2.762  24.359  0.00  0.00    +0.001 C 
ENDBRANCH  22  23
ENDBRANCH  21  22
ENDBRANCH  15  17
TORSDOF 8
ENDMDL
MODEL 2
REMARK VINA RESULT:      -8.3      3.783      5.648
REMARK  Name = 
REMARK  8 active torsions:
REMARK  status: ('A' for Active; 'I' for Inactive)
REMARK    1  A    between atoms: O_2  and  C_3
REMARK    2  A    between atoms: C_3  and  C_4
REMARK    3  A    between atoms: C_4  and  N_5
REMARK    4  A    between atoms: N_5  and  C_6
REMARK    5  A    between atoms: C_9  and  C_12
REMARK    6  A    between atoms: C_15  and  C_17
REMARK    7  A    between atoms: N_21  and  C_22
REMARK    8  A    between atoms: C_22  and  C_23
REMARK                            x       y       z     vdW  Elec       q    Type
REMARK                         _______ _______ _______ _____ _____    ______ ____
ROOT
ATOM     12  C   UNL     1      -3.946   1.941  24.479  0.00  0.00    +0.205 A 
ATOM     13  N   UNL     1      -4.223   2.531  23.974  0.00  0.00    -0.056 NA
ATOM     14  O   UNL     1      -4.022   3.262  24.302  0.00  0.00    -0.336 OA
ATOM     15  C   UNL     1      -3.621   3.122  25.010  0.00  0.00    +0.251 A 
ATOM     16  N   UNL     1      -3.575   2.306  25.119  0.00  0.00    -0.190 NA
ENDROOT
BRANCH  12   9
ATOM      6  C   UNL     1      -4.188  -0.497  24.132  0.00  0.00    +0.148 A 
ATOM      7  C   UNL     1      -4.653  -0.113  24.695  0.00  0.00    +0.036 A 
ATOM      8  C   UNL     1      -4.572   0.699  24.811  0.00  0.00    +0.008 A 
ATOM      9  C   UNL     1      -4.027   1.128  24.364  0.00  0.00    +0.058 A 
ATOM     10  C   UNL     1      -3.562   0.744  23.800  0.00  0.00    +0.103 A 
ATOM     11  N   UNL     1      -3.642  -0.069  23.684  0.00  0.00    -0.228 NA
BRANCH   6   5
ATOM      5  N   UNL     1      -4.268  -1.311  24.015  0.00  0.00    -0.218 NA
BRANCH   5   4
ATOM      4  C   UNL     1      -3.762  -1.835  24.402  0.00  0.00    +0.146 C 
BRANCH   4   3
ATOM      3  C   UNL     1      -3.758  -2.633  24.194  0.00  0.00    +0.166 C 
BRANCH   3   2
ATOM      1  C   UNL     1      -2.515  -3.260  24.520  0.00  0.00    +0.174 C 
ATOM      2  O   UNL     1      -3.326  -3.174  24.643  0.00  0.00    -0.349 OA
ENDBRANCH   3   2
ENDBRANCH   4   3
ENDBRANCH   5   4
ENDBRANCH   6   5
ENDBRANCH  12   9
BRANCH  15  17
ATOM     17  C   UNL     1      -3.321   3.698  25.518  0.00  0.00    +0.138 C 
ATOM     18  C   UNL     1      -3.713   4.024  26.167  0.00  0.00    +0.027 C 
ATOM     19  C   UNL     1      -3.209   4.576  26.517  0.00  0.00    +0.019 C 
ATOM     20  C   UNL     1      -2.506   4.591  26.085  0.00  0.00    +0.073 C 
ATOM     21  N   UNL     1      -2.576   4.048  25.468  0.00  0.00    -0.266 NA
BRANCH  21  22
ATOM     22  C   UNL     1      -2.000   3.884  24.899  0.00  0.00    +0.072 C 
BRANCH  22  23
ATOM     23  C   UNL     1      -1.294   4.311  24.892  0.00  0.00    +0.016 C 
ATOM     24  C   UNL     1      -0.896   5.033  24.899  0.00  0.00    +0.001 C 
ATOM     25  C   UNL     1      -0.470   4.328  24.874  0.00  0.00    +0.001 C 
ENDBRANCH  22  23
ENDBRANCH  21  22
ENDBRANCH  15  17
TORSDOF 8
ENDMDL
MODEL 3
REMARK VINA RESULT:      -8.2      0.973      2.045
REMARK  Name = 
REMARK  8 active torsions:
REMARK  status: ('A' for Active; 'I' for Inactive)
REMARK    1  A    between atoms: O_2  and  C_3
REMARK    2  A    between atoms: C_3  and  C_4
REMARK    3  A    between atoms: C_4  and  N_5
REMARK    4  A    between atoms: N_5  and  C_6
REMARK    5  A    between atoms: C_9  and  C_12
REMARK    6  A    between atoms: C_15  and  C_17
REMARK    7  A    between atoms: N_21  and  C_22
REMARK    8  A    between atoms: C_22  and  C_23
REMARK                            x       y       z     vdW  Elec       q    Type
REMARK                         _______ _______ _______ _____ _____    ______ ____
ROOT
ATOM     12  C   UNL     1      -1.209   0.182  24.557  0.00  0.00    +0.205 A 
ATOM     13  N   UNL     1      -1.243   0.224  25.380  0.00  0.00    -0.056 NA
ATOM     14  O   UNL     1      -2.037   0.260  25.601  0.00  0.00    -0.336 OA
ATOM     15  C   UNL     1      -2.494   0.239  24.914  0.00  0.00    +0.251 A 
ATOM     16  N   UNL     1      -1.982   0.191  24.269  0.00  0.00    -0.190 NA
ENDROOT
BRANCH  12   9
ATOM      6  C   UNL     1       0.853   0.048  23.195  0.00  0.00    +0.148 A 
ATOM      7  C   UNL     1       0.474   0.774  23.299  0.00  0.00    +0.036 A 
ATOM      8  C   UNL     1      -0.213   0.818  23.753  0.00  0.00    +0.008 A 
ATOM      9  C   UNL     1      -0.522   0.138  24.103  0.00  0.00    +0.058 A 
ATOM     10  C   UNL     1      -0.143  -0.588  23.998  0.00  0.00    +0.103 A 
ATOM     11  N   UNL     1       0.545  -0.633  23.544  0.00  0.00    -0.228 NA
BRANCH   6   5
ATOM      5  N   UNL     1       1.541   0.003  22.740  0.00  0.00    -0.218 NA
BRANCH   5   4
ATOM      4  C   UNL     1       2.231   0.373  22.998  0.00  0.00    +0.146 C 
BRANCH   4   3
ATOM      3  C   UNL     1       2.940   0.249  22.597  0.00  0.00    +0.166 C 
BRANCH   3   2
ATOM      1  C   UNL     1       4.330   0.512  22.808  0.00  0.00    +0.174 C 
ATOM      2  O   UNL     1       3.561   0.786  22.681  0.00  0.00    -0.349 OA
ENDBRANCH   3   2
ENDBRANCH   4   3
ENDBRANCH   5   4
ENDBRANCH   6   5
ENDBRANCH  12   9
BRANCH  15  17
ATOM     17  C   UNL     1      -3.318   0.263  24.878  0.00  0.00    +0.138 C 
ATOM     18  C   UNL     1      -3.821  -0.391  24.863  0.00  0.00    +0.027 C 
ATOM     19  C   UNL     1      -4.597  -0.113  24.826  0.00  0.00    +0.019 C 
ATOM     20  C   UNL     1      -4.574   0.711  24.819  0.00  0.00    +0.073 C 
ATOM     21  N   UNL     1      -3.783   0.943  24.851  0.00  0.00    -0.266 NA
BRANCH  21  22
ATOM     22  C   UNL     1      -3.506   1.721  24.855  0.00  0.00    +0.072 C 
BRANCH  22  23
ATOM     23  C   UNL     1      -4.037   2.349  24.788  0.00  0.00    +0.016 C 
ATOM     24  C   UNL     1      -4.677   2.776  25.082  0.00  0.00    +0.001 C 
ATOM     25  C   UNL     1      -4.315   3.007  24.379  0.00  0.00    +0.001 C 
ENDBRANCH  22  23
ENDBRANCH  21  22
ENDBRANCH  15  17
TORSDOF 8
ENDMDL
MODEL 4
REMARK VINA RESULT:      -8.2      2.718      4.903
REMARK  Name = 
REMARK  8 active torsions:
REMARK  status: ('A' for Active; 'I' for Inactive)
REMARK    1  A    between atoms: O_2  and  C_3
REMARK    2  A    between atoms: C_3  and  C_4
REMARK    3  A    between atoms: C_4  and  N_5
REMARK    4  A    between atoms: N_5  and  C_6
REMARK    5  A    between atoms: C_9  and  C_12
REMARK    6  A    between atoms: C_15  and  C_17
REMARK    7  A    between atoms: N_21  and  C_22
REMARK    8  A    between atoms: C_22  and  C_23
REMARK                            x       y       z     vdW  Elec       q    Type
REMARK                         _______ _______ _______ _____ _____    ______ ____
ROOT
ATOM     12  C   UNL     1      -0.591   1.614  25.356  0.00  0.00    +0.205 A 
ATOM     13  N   UNL     1       0.019   1.892  25.838  0.00  0.00    -0.056 NA
ATOM     14  O   UNL     1      -0.021   2.716  25.851  0.00  0.00    -0.336 OA
ATOM     15  C   UNL     1      -0.656   2.948  25.376  0.00  0.00    +0.251 A 
ATOM     16  N   UNL     1      -1.007   2.267  25.071  0.00  0.00    -0.190 NA
ENDROOT
BRANCH  12   9
ATOM      6  C   UNL     1      -1.079  -0.759  24.853  0.00  0.00    +0.148 A 
ATOM      7  C   UNL     1      -1.270  -0.446  25.593  0.00  0.00    +0.036 A 
ATOM      8  C   UNL     1      -1.107   0.345  25.760  0.00  0.00    +0.008 A 
ATOM      9  C   UNL     1      -0.754   0.824  25.189  0.00  0.00    +0.058 A 
ATOM     10  C   UNL     1      -0.562   0.511  24.449  0.00  0.00    +0.103 A 
ATOM     11  N   UNL     1      -0.725  -0.281  24.281  0.00  0.00    -0.228 NA
BRANCH   6   5
ATOM      5  N   UNL     1      -1.242  -1.551  24.685  0.00  0.00    -0.218 NA
BRANCH   5   4
ATOM      4  C   UNL     1      -2.019  -1.824  24.699  0.00  0.00    +0.146 C 
BRANCH   4   3
ATOM      3  C   UNL     1      -2.202  -2.565  24.386  0.00  0.00    +0.166 C 
BRANCH   3   2
ATOM      1  C   UNL     1      -3.581  -2.887  24.194  0.00  0.00    +0.174 C 
ATOM      2  O   UNL     1      -2.884  -2.959  24.630  0.00  0.00    -0.349 OA
ENDBRANCH   3   2
ENDBRANCH   4   3
ENDBRANCH   5   4
ENDBRANCH   6   5
ENDBRANCH  12   9
BRANCH  15  17
ATOM     17  C   UNL     1      -0.896   3.724  25.233  0.00  0.00    +0.138 C 
ATOM     18  C   UNL     1      -0.485   4.284  24.788  0.00  0.00    +0.027 C 
ATOM     19  C   UNL     1      -0.925   4.982  24.790  0.00  0.00    +0.019 C 
ATOM     20  C   UNL     1      -1.607   4.854  25.235  0.00  0.00    +0.073 C 
ATOM     21  N   UNL     1      -1.589   4.076  25.509  0.00  0.00    -0.266 NA
BRANCH  21  22
ATOM     22  C   UNL     1      -2.164   3.713  25.977  0.00  0.00    +0.072 C 
BRANCH  22  23
ATOM     23  C   UNL     1      -2.927   4.025  26.009  0.00  0.00    +0.016 C 
ATOM     24  C   UNL     1      -3.439   4.643  26.197  0.00  0.00    +0.001 C 
ATOM     25  C   UNL     1      -3.737   3.946  25.874  0.00  0.00    +0.001 C 
ENDBRANCH  22  23
ENDBRANCH  21  22
ENDBRANCH  15  17
TORSDOF 8
ENDMDL
MODEL 5
REMARK VINA RESULT:      -8.0      3.336      4.377
REMARK  Name = 
REMARK  8 active torsions:
REMARK  status: ('A' for Active; 'I' for Inactive)
REMARK    1  A    between atoms: O_2  and  C_3
REMARK    2  A    between atoms: C_3  and  C_4
REMARK    3  A    between atoms: C_4  and  N_5
REMARK    4  A    between atoms: N_5  and  C_6
REMARK    5  A    between atoms: C_9  and  C_12
REMARK    6  A    between atoms: C_15  and  C_17
REMARK    7  A    between atoms: N_21  and  C_22
REMARK    8  A    between atoms: C_22  and  C_23
REMARK                            x       y       z     vdW  Elec       q    Type
REMARK                         _______ _______ _______ _____ _____    ______ ____
ROOT
ATOM     12  C   UNL     1      -4.061   0.845  24.786  0.00  0.00    +0.205 A 
ATOM     13  N   UNL     1      -4.697   0.562  25.228  0.00  0.00    -0.056 NA
ATOM     14  O   UNL     1      -4.743  -0.254  25.116  0.00  0.00    -0.336 OA
ATOM     15  C   UNL     1      -4.135  -0.476  24.604  0.00  0.00    +0.251 A 
ATOM     16  N   UNL     1      -3.713   0.204  24.401  0.00  0.00    -0.190 NA
ENDROOT
BRANCH  12   9
ATOM      6  C   UNL     1      -3.327   3.204  24.644  0.00  0.00    +0.148 A 
ATOM      7  C   UNL     1      -3.236   2.704  23.993  0.00  0.00    +0.036 A 
ATOM      8  C   UNL     1      -3.481   1.918  24.041  0.00  0.00    +0.008 A 
ATOM      9  C   UNL     1      -3.816   1.631  24.738  0.00  0.00    +0.058 A 
ATOM     10  C   UNL     1      -3.907   2.131  25.388  0.00  0.00    +0.103 A 
ATOM     11  N   UNL     1      -3.662   2.918  25.341  0.00  0.00    -0.228 NA
BRANCH   6   5
ATOM      5  N   UNL     1      -3.082   3.991  24.597  0.00  0.00    -0.218 NA
BRANCH   5   4
ATOM      4  C   UNL     1      -2.418   4.243  25.017  0.00  0.00    +0.146 C 
BRANCH   4   3
ATOM      3  C   UNL     1      -2.078   4.976  24.851  0.00  0.00    +0.166 C 
BRANCH   3   2
ATOM      1  C   UNL     1      -0.704   5.369  24.848  0.00  0.00    +0.174 C 
ATOM      2  O   UNL     1      -1.405   5.220  25.259  0.00  0.00    -0.349 OA
ENDBRANCH   3   2
ENDBRANCH   4   3
ENDBRANCH   5   4
ENDBRANCH   6   5
ENDBRANCH  12   9
BRANCH  15  17
ATOM     17  C   UNL     1      -3.976  -1.242  24.343  0.00  0.00    +0.138 C 
ATOM     18  C   UNL     1      -4.453  -1.692  23.843  0.00  0.00    +0.027 C 
ATOM     19  C   UNL     1      -4.084  -2.421  23.727  0.00  0.00    +0.019 C 
ATOM     20  C   UNL     1      -3.378  -2.420  24.155  0.00  0.00    +0.073 C 
ATOM     21  N   UNL     1      -3.312  -1.692  24.535  0.00  0.00    -0.266 NA
BRANCH  21  22
ATOM     22  C   UNL     1      -2.690  -1.455  25.023  0.00  0.00    +0.072 C 
BRANCH  22  23
ATOM     23  C   UNL     1      -1.948  -1.809  24.948  0.00  0.00    +0.016 C 
ATOM     24  C   UNL     1      -1.485  -2.487  24.878  0.00  0.00    +0.001 C 
ATOM     25  C   UNL     1      -1.129  -1.745  24.889  0.00  0.00    +0.001 C 
ENDBRANCH  22  23
ENDBRANCH  21  22
ENDBRANCH  15  17
TORSDOF 8
ENDMDL
MODEL 6
REMARK VINA RESULT:      -7.9      2.183      2.960
REMARK  Name = 
REMARK  8 active torsions:
REMARK  status: ('A' for Active; 'I' for Inactive)
REMARK    1  A    between atoms: O_2  and  C_3
REMARK    2  A    between atoms: C_3  and  C_4
REMARK    3  A    between atoms: C_4  and  N_5
REMARK    4  A    between atoms: N_5  and  C_6
REMARK    5  A    between atoms: C_9  and  C_12
REMARK    6  A    between atoms: C_15  and  C_17
REMARK    7  A    between atoms: N_21  and  C_22
REMARK    8  A    between atoms: C_22  and  C_23
REMARK                            x       y       z     vdW  Elec       q    Type
REMARK                         _______ _______ _______ _____ _____    ______ ____
ROOT
ATOM     12  C   UNL     1      -2.195   2.071  23.966  0.00  0.00    +0.205 A 
ATOM     13  N   UNL     1      -2.618   2.392  23.334  0.00  0.00    -0.056 NA
ATOM     14  O   UNL     1      -3.257   2.813  23.641  0.00  0.00    -0.336 OA
ATOM     15  C   UNL     1      -3.230   2.753  24.464  0.00  0.00    +0.251 A 
ATOM     16  N   UNL     1      -2.574   2.295  24.664  0.00  0.00    -0.190 NA
ENDROOT
BRANCH  12   9
ATOM      6  C   UNL     1      -0.152   0.685  23.795  0.00  0.00    +0.148 A 
ATOM      7  C   UNL     1      -0.896   0.336  23.715  0.00  0.00    +0.036 A 
ATOM      8  C   UNL     1      -1.576   0.798  23.772  0.00  0.00    +0.008 A 
ATOM      9  C   UNL     1      -1.515   1.609  23.909  0.00  0.00    +0.058 A 
ATOM     10  C   UNL     1      -0.771   1.959  23.989  0.00  0.00    +0.103 A 
ATOM     11  N   UNL     1      -0.090   1.497  23.931  0.00  0.00    -0.228 NA
BRANCH   6   5
ATOM      5  N   UNL     1       0.529   0.223  23.738  0.00  0.00    -0.218 NA
BRANCH   5   4
ATOM      4  C   UNL     1       0.960   0.208  23.035  0.00  0.00    +0.146 C 
BRANCH   4   3
ATOM      3  C   UNL     1       1.735  -0.074  23.031  0.00  0.00    +0.166 C 
BRANCH   3   2
ATOM      1  C   UNL     1       3.017   0.133  22.435  0.00  0.00    +0.174 C 
ATOM      2  O   UNL     1       2.204   0.015  22.359  0.00  0.00    -0.349 OA
ENDBRANCH   3   2
ENDBRANCH   4   3
ENDBRANCH   5   4
ENDBRANCH   6   5
ENDBRANCH  12   9
BRANCH  15  17
ATOM     17  C   UNL     1      -3.764   3.092  24.993  0.00  0.00    +0.138 C 
ATOM     18  C   UNL     1      -3.627   3.759  25.460  0.00  0.00    +0.027 C 
ATOM     19  C   UNL     1      -4.308   3.903  25.903  0.00  0.00    +0.019 C 
ATOM     20  C   UNL     1      -4.865   3.325  25.711  0.00  0.00    +0.073 C 
ATOM     21  N   UNL     1      -4.528   2.825  25.149  0.00  0.00    -0.266 NA
BRANCH  21  22
ATOM     22  C   UNL     1      -4.893   2.170  24.802  0.00  0.00    +0.072 C 
BRANCH  22  23
ATOM     23  C   UNL     1      -5.603   1.883  25.109  0.00  0.00    +0.016 C 
ATOM     24  C   UNL     1      -6.040   1.588  25.743  0.00  0.00    +0.001 C 
ATOM     25  C   UNL     1      -6.395   1.681  25.005  0.00  0.00    +0.001 C 
ENDBRANCH  22  23
ENDBRANCH  21  22
ENDBRANCH  15  17
TORSDOF 8
ENDMDL
MODEL 7
REMARK VINA RESULT:      -7.7      2.801      3.678
REMARK  Name = 
REMARK  8 active torsions:
REMARK  status: ('A' for Active; 'I' for Inactive)
REMARK    1  A    between atoms: O_2  and  C_3
REMARK    2  A    between atoms: C_3  and  C_4
REMARK    3  A    between atoms: C_4  and  N_5
REMARK    4  A    between atoms: N_5  and  C_6
REMARK    5  A    between atoms: C_9  and  C_12
REMARK    6  A    between atoms: C_15  and  C_17
REMARK    7  A    between atoms: N_21  and  C_22
REMARK    8  A    between atoms: C_22  and  C_23
REMARK                            x       y       z     vdW  Elec       q    Type
REMARK                         _______ _______ _______ _____ _____    ______ ____
ROOT
ATOM     12  C   UNL     1      -1.224   0.383  25.415  0.00  0.00    +0.205 A 
ATOM     13  N   UNL     1      -1.334   0.026  26.150  0.00  0.00    -0.056 NA
ATOM     14  O   UNL     1      -1.500  -0.773  26.024  0.00  0.00    -0.336 OA
ATOM     15  C   UNL     1      -1.492  -0.909  25.210  0.00  0.00    +0.251 A 
ATOM     16  N   UNL     1      -1.322  -0.195  24.834  0.00  0.00    -0.190 NA
ENDROOT
BRANCH  12   9
ATOM      6  C   UNL     1      -0.696   2.768  25.021  0.00  0.00    +0.148 A 
ATOM      7  C   UNL     1      -0.246   2.329  25.556  0.00  0.00    +0.036 A 
ATOM      8  C   UNL     1      -0.422   1.534  25.687  0.00  0.00    +0.008 A 
ATOM      9  C   UNL     1      -1.048   1.178  25.284  0.00  0.00    +0.058 A 
ATOM     10  C   UNL     1      -1.498   1.617  24.749  0.00  0.00    +0.103 A 
ATOM     11  N   UNL     1      -1.322   2.413  24.618  0.00  0.00    -0.228 NA
BRANCH   6   5
ATOM      5  N   UNL     1      -0.520   3.564  24.890  0.00  0.00    -0.218 NA
BRANCH   5   4
ATOM      4  C   UNL     1      -1.076   4.145  25.070  0.00  0.00    +0.146 C 
BRANCH   4   3
ATOM      3  C   UNL     1      -0.912   4.937  24.912  0.00  0.00    +0.166 C 
BRANCH   3   2
ATOM      1  C   UNL     1      -1.827   6.032  24.829  0.00  0.00    +0.174 C 
ATOM      2  O   UNL     1      -1.350   5.531  25.279  0.00  0.00    -0.349 OA
ENDBRANCH   3   2
ENDBRANCH   4   3
ENDBRANCH   5   4
ENDBRANCH   6   5
ENDBRANCH  12   9
BRANCH  15  17
ATOM     17  C   UNL     1      -1.631  -1.633  24.838  0.00  0.00    +0.138 C 
ATOM     18  C   UNL     1      -1.057  -2.187  24.629  0.00  0.00    +0.027 C 
ATOM     19  C   UNL     1      -1.439  -2.825  24.272  0.00  0.00    +0.019 C 
ATOM     20  C   UNL     1      -2.248  -2.665  24.260  0.00  0.00    +0.073 C 
ATOM     21  N   UNL     1      -2.366  -1.928  24.611  0.00  0.00    -0.266 NA
BRANCH  21  22
ATOM     22  C   UNL     1      -3.094  -1.551  24.715  0.00  0.00    +0.072 C 
BRANCH  22  23
ATOM     23  C   UNL     1      -3.755  -1.807  24.292  0.00  0.00    +0.016 C 
ATOM     24  C   UNL     1      -4.259  -2.414  24.054  0.00  0.00    +0.001 C 
ATOM     25  C   UNL     1      -4.395  -1.642  23.800  0.00  0.00    +0.001 C 
ENDBRANCH  22  23
ENDBRANCH  21  22
ENDBRANCH  15  17
TORSDOF 8
ENDMDL
MODEL 8
REMARK VINA RESULT:      -7.4      2.574      5.047
REMARK  Name = 
REMARK  8 active torsions:
REMARK  status: ('A' for Active; 'I' for Inactive)
REMARK    1  A    between atoms: O_2  and  C_3
REMARK    2  A    between atoms: C_3  and  C_4
REMARK    3  A    between atoms: C_4  and  N_5
REMARK    4  A    between atoms: N_5  and  C_6
REMARK    5  A    between atoms: C_9  and  C_12
REMARK    6  A    between atoms: C_15  and  C_17
REMARK    7  A    between atoms: N_21  and  C_22
REMARK    8  A    between atoms: C_22  and  C_23
REMARK                            x       y       z     vdW  Elec       q    Type
REMARK                         _______ _______ _______ _____ _____    ______ ____
ROOT
ATOM     12  C   UNL     1      -1.918   1.007  24.336  0.00  0.00    +0.205 A 
ATOM     13  N   UNL     1      -1.326   0.929  23.768  0.00  0.00    -0.056 NA
ATOM     14  O   UNL     1      -0.996   0.176  23.844  0.00  0.00    -0.336 OA
ATOM     15  C   UNL     1      -1.385  -0.211  24.460  0.00  0.00    +0.251 A 
ATOM     16  N   UNL     1      -1.955   0.302  24.764  0.00  0.00    -0.190 NA
ENDROOT
BRANCH  12   9
ATOM      6  C   UNL     1      -3.334   3.005  24.695  0.00  0.00    +0.148 A 
ATOM      7  C   UNL     1      -3.515   2.474  24.089  0.00  0.00    +0.036 A 
ATOM      8  C   UNL     1      -3.043   1.809  23.970  0.00  0.00    +0.008 A 
ATOM      9  C   UNL     1      -2.390   1.672  24.456  0.00  0.00    +0.058 A 
ATOM     10  C   UNL     1      -2.209   2.203  25.061  0.00  0.00    +0.103 A 
ATOM     11  N   UNL     1      -2.681   2.869  25.181  0.00  0.00    -0.228 NA
BRANCH   6   5
ATOM      5  N   UNL     1      -3.805   3.671  24.815  0.00  0.00    -0.218 NA
BRANCH   5   4
ATOM      4  C   UNL     1      -4.540   3.596  25.182  0.00  0.00    +0.146 C 
BRANCH   4   3
ATOM      3  C   UNL     1      -4.988   4.268  25.350  0.00  0.00    +0.166 C 
BRANCH   3   2
ATOM      1  C   UNL     1      -6.274   4.808  25.661  0.00  0.00    +0.174 C 
ATOM      2  O   UNL     1      -5.727   4.193  25.709  0.00  0.00    -0.349 OA
ENDBRANCH   3   2
ENDBRANCH   4   3
ENDBRANCH   5   4
ENDBRANCH   6   5
ENDBRANCH  12   9
BRANCH  15  17
ATOM     17  C   UNL     1      -1.232  -0.977  24.725  0.00  0.00    +0.138 C 
ATOM     18  C   UNL     1      -0.538  -1.234  25.091  0.00  0.00    +0.027 C 
ATOM     19  C   UNL     1      -0.623  -2.036  25.263  0.00  0.00    +0.019 C 
ATOM     20  C   UNL     1      -1.369  -2.275  25.004  0.00  0.00    +0.073 C 
ATOM     21  N   UNL     1      -1.744  -1.621  24.672  0.00  0.00    -0.266 NA
BRANCH  21  22
ATOM     22  C   UNL     1      -2.502  -1.612  24.343  0.00  0.00    +0.072 C 
BRANCH  22  23
ATOM     23  C   UNL     1      -3.025  -2.232  24.494  0.00  0.00    +0.016 C 
ATOM     24  C   UNL     1      -3.430  -2.709  25.030  0.00  0.00    +0.001 C 
ATOM     25  C   UNL     1      -3.523  -2.828  24.220  0.00  0.00    +0.001 C 
ENDBRANCH  22  23
ENDBRANCH  21  22
ENDBRANCH  15  17
TORSDOF 8
ENDMDL
MODEL 9
REMARK VINA RESULT:      -5.2     13.636     15.593
REMARK  Name = 
REMARK  8 active torsions:
REMARK  status: ('A' for Active; 'I' for Inactive)
REMARK    1  A    between atoms: O_2  and  C_3
REMARK    2  A    between atoms: C_3  and  C_4
REMARK    3  A    between atoms: C_4  and  N_5
REMARK    4  A    between atoms: N_5  and  C_6
REMARK    5  A    between atoms: C_9  and  C_12
REMARK    6  A    between atoms: C_15  and  C_17
REMARK    7  A    between atoms: N_21  and  C_22
REMARK    8  A    between atoms: C_22  and  C_23
REMARK                            x       y       z     vdW  Elec       q    Type
REMARK                         _______ _______ _______ _____ _____    ______ ____
ROOT
ATOM     12  C   UNL     1      -4.901 -10.454  13.895  0.00  0.00    +0.205 A 
ATOM     13  N   UNL     1      -5.429 -10.768  13.345  0.00  0.00    -0.056 NA
ATOM     14  O   UNL     1      -5.060 -10.767  12.607  0.00  0.00    -0.336 OA
ATOM     15  C   UNL     1      -4.303 -10.452  12.701  0.00  0.00    +0.251 A 
ATOM     16  N   UNL     1      -4.205 -10.259  13.497  0.00  0.00    -0.190 NA
ENDROOT
BRANCH  12   9
ATOM      6  C   UNL     1      -5.332 -10.150  16.313  0.00  0.00    +0.148 A 
ATOM      7  C   UNL     1      -4.737 -10.663  16.062  0.00  0.00    +0.036 A 
ATOM      8  C   UNL     1      -4.593 -10.764  15.256  0.00  0.00    +0.008 A 
ATOM      9  C   UNL     1      -5.044 -10.353  14.701  0.00  0.00    +0.058 A 
ATOM     10  C   UNL     1      -5.640  -9.840  14.952  0.00  0.00    +0.103 A 
ATOM     11  N   UNL     1      -5.784  -9.738  15.759  0.00  0.00    -0.228 NA
BRANCH   6   5
ATOM      5  N   UNL     1      -5.477 -10.048  17.119  0.00  0.00    -0.218 NA
BRANCH   5   4
ATOM      4  C   UNL     1      -5.642 -10.701  17.595  0.00  0.00    +0.146 C 
BRANCH   4   3
ATOM      3  C   UNL     1      -5.577 -10.642  18.415  0.00  0.00    +0.166 C 
BRANCH   3   2
ATOM      1  C   UNL     1      -6.207 -10.547  19.694  0.00  0.00    +0.174 C 
ATOM      2  O   UNL     1      -6.248 -10.720  18.888  0.00  0.00    -0.349 OA
ENDBRANCH   3   2
ENDBRANCH   4   3
ENDBRANCH   5   4
ENDBRANCH   6   5
ENDBRANCH  12   9
BRANCH  15  17
ATOM     17  C   UNL     1      -3.743 -10.349  12.105  0.00  0.00    +0.138 C 
ATOM     18  C   UNL     1      -2.992 -10.691  12.080  0.00  0.00    +0.027 C 
ATOM     19  C   UNL     1      -2.621 -10.439  11.388  0.00  0.00    +0.019 C 
ATOM     20  C   UNL     1      -3.141  -9.942  10.985  0.00  0.00    +0.073 C 
ATOM     21  N   UNL     1      -3.835  -9.887  11.428  0.00  0.00    -0.266 NA
BRANCH  21  22
ATOM     22  C   UNL     1      -4.503  -9.446  11.229  0.00  0.00    +0.072 C 
BRANCH  22  23
ATOM     23  C   UNL     1      -4.527  -9.032  10.515  0.00  0.00    +0.016 C 
ATOM     24  C   UNL     1      -4.419  -9.010   9.699  0.00  0.00    +0.001 C 
ATOM     25  C   UNL     1      -4.677  -8.337  10.098  0.00  0.00    +0.001 C 
ENDBRANCH  22  23
ENDBRANCH  21  22
ENDBRANCH  15  17
TORSDOF 8
ENDMDL
MODEL 10
REMARK VINA RESULT:      -5.2     16.532     17.764
REMARK  Name = 
REMARK  8 active torsions:
REMARK  status: ('A' for Active; 'I' for Inactive)
REMARK    1  A    between atoms: O_2  and  C_3
REMARK    2  A    between atoms: C_3  and  C_4
REMARK    3  A    between atoms: C_4  and  N_5
REMARK    4  A    between atoms: N_5  and  C_6
REMARK    5  A    between atoms: C_9  and  C_12
REMARK    6  A    between atoms: C_15  and  C_17
REMARK    7  A    between atoms: N_21  and  C_22
REMARK    8  A    between atoms: C_22  and  C_23
REMARK                            x       y       z     vdW  Elec       q    Type
REMARK                         _______ _______ _______ _____ _____    ______ ____
ROOT
ATOM     12  C   UNL     1      -6.710  -8.554   9.198  0.00  0.00    +0.205 A 
ATOM     13  N   UNL     1      -6.810  -8.520   8.380  0.00  0.00    -0.056 NA
ATOM     14  O   UNL     1      -7.595  -8.317   8.227  0.00  0.00    -0.336 OA
ATOM     15  C   UNL     1      -7.980  -8.225   8.951  0.00  0.00    +0.251 A 
ATOM     16  N   UNL     1      -7.433  -8.372   9.551  0.00  0.00    -0.190 NA
ENDROOT
BRANCH  12   9
ATOM      6  C   UNL     1      -4.607  -9.103  10.382  0.00  0.00    +0.148 A 
ATOM      7  C   UNL     1      -5.137  -9.704  10.182  0.00  0.00    +0.036 A 
ATOM      8  C   UNL     1      -5.837  -9.520   9.787  0.00  0.00    +0.008 A 
ATOM      9  C   UNL     1      -6.009  -8.738   9.593  0.00  0.00    +0.058 A 
ATOM     10  C   UNL     1      -5.480  -8.137   9.793  0.00  0.00    +0.103 A 
ATOM     11  N   UNL     1      -4.778  -8.320  10.188  0.00  0.00    -0.228 NA
BRANCH   6   5
ATOM      5  N   UNL     1      -3.906  -9.286  10.777  0.00  0.00    -0.218 NA
BRANCH   5   4
ATOM      4  C   UNL     1      -3.182  -9.209  10.390  0.00  0.00    +0.146 C 
BRANCH   4   3
ATOM      3  C   UNL     1      -2.489  -9.467  10.755  0.00  0.00    +0.166 C 
BRANCH   3   2
ATOM      1  C   UNL     1      -1.127  -9.197  11.094  0.00  0.00    +0.174 C 
ATOM      2  O   UNL     1      -1.772  -9.095  10.589  0.00  0.00    -0.349 OA
ENDBRANCH   3   2
ENDBRANCH   4   3
ENDBRANCH   5   4
ENDBRANCH   6   5
ENDBRANCH  12   9
BRANCH  15  17
ATOM     17  C   UNL     1      -8.773  -8.023   9.057  0.00  0.00    +0.138 C 
ATOM     18  C   UNL     1      -9.362  -8.514   9.361  0.00  0.00    +0.027 C 
ATOM     19  C   UNL     1     -10.069  -8.088   9.369  0.00  0.00    +0.019 C 
ATOM     20  C   UNL     1      -9.916  -7.334   9.070  0.00  0.00    +0.073 C 
ATOM     21  N   UNL     1      -9.115  -7.295   8.878  0.00  0.00    -0.266 NA
BRANCH  21  22
ATOM     22  C   UNL     1      -8.725  -6.640   8.561  0.00  0.00    +0.072 C 
BRANCH  22  23
ATOM     23  C   UNL     1      -9.129  -5.927   8.461  0.00  0.00    +0.016 C 
ATOM     24  C   UNL     1      -9.817  -5.518   8.265  0.00  0.00    +0.001 C 
ATOM     25  C   UNL     1      -9.139  -5.103   8.483  0.00  0.00    +0.001 C 
ENDBRANCH  22  23
ENDBRANCH  21  22
ENDBRANCH  15  17
TORSDOF 8
ENDMDL
