MODEL 1
REMARK VINA RESULT:      -9.0      0.000      0.000
REMARK  Name = 
REMARK  7 active torsions:
REMARK  status: ('A' for Active; 'I' for Inactive)
REMARK    1  A    between atoms: C_2  and  C_4
REMARK    2  A    between atoms: C_4  and  C_5
REMARK    3  A    between atoms: N_7  and  C_8
REMARK    4  A    between atoms: C_11  and  C_14
REMARK    5  A    between atoms: N_19  and  C_20
REMARK    6  A    between atoms: C_20  and  C_21
REMARK    7  A    between atoms: C_26  and  C_27
REMARK                            x       y       z     vdW  Elec       q    Type
REMARK                         _______ _______ _______ _____ _____    ______ ____
ROOT
ATOM     14  C   UNL     1      -3.836   2.203  25.086  0.00  0.00    +0.159 C 
ATOM     15  O   UNL     1      -4.489   2.678  25.253  0.00  0.00    -0.341 OA
ATOM     16  C   UNL     1      -4.381   3.452  25.515  0.00  0.00    +0.227 C 
ATOM     17  C   UNL     1      -3.618   3.752  25.611  0.00  0.00    +0.256 C 
ATOM     18  O   UNL     1      -3.509   4.526  25.874  0.00  0.00    -0.272 OA
ATOM     19  N   UNL     1      -2.964   3.277  25.444  0.00  0.00    -0.265 N 
ATOM     26  C   UNL     1      -3.073   2.503  25.181  0.00  0.00    +0.140 C 
ENDROOT
BRANCH  14  11
ATOM      8  C   UNL     1      -4.162  -0.122  24.299  0.00  0.00    +0.073 A 
ATOM      9  C   UNL     1      -4.398   0.094  25.060  0.00  0.00    +0.016 A 
ATOM     10  C   UNL     1      -4.290   0.868  25.322  0.00  0.00    -0.001 A 
ATOM     11  C   UNL     1      -3.944   1.428  24.823  0.00  0.00    +0.006 A 
ATOM     12  C   UNL     1      -3.707   1.213  24.063  0.00  0.00    -0.001 A 
ATOM     13  C   UNL     1      -3.816   0.438  23.800  0.00  0.00    +0.016 A 
BRANCH   8   7
ATOM      5  C   UNL     1      -3.745  -1.488  24.271  0.00  0.00    +0.246 C 
ATOM      6  O   UNL     1      -3.111  -1.306  24.768  0.00  0.00    -0.273 OA
ATOM      7  N   UNL     1      -4.270  -0.896  24.037  0.00  0.00    -0.179 NA
BRANCH   5   4
ATOM      4  C   UNL     1      -3.854  -2.262  24.008  0.00  0.00    +0.087 C 
BRANCH   4   2
ATOM      1  C   UNL     1      -2.656  -3.037  23.929  0.00  0.00    +0.001 C 
ATOM      2  C   UNL     1      -3.374  -2.867  24.298  0.00  0.00    +0.009 C 
ATOM      3  C   UNL     1      -3.612  -3.303  24.958  0.00  0.00    +0.001 C 
ENDBRANCH   4   2
ENDBRANCH   5   4
ENDBRANCH   8   7
ENDBRANCH  14  11
BRANCH  26  27
ATOM     27  C   UNL     1      -2.419   2.028  25.014  0.00  0.00    +0.205 C 
ATOM     28  O   UNL     1      -1.956   1.734  25.630  0.00  0.00    -0.218 OA
ENDBRANCH  26  27
BRANCH  19  20
ATOM     20  C   UNL     1      -2.202   3.576  25.540  0.00  0.00    +0.179 C 
BRANCH  20  21
ATOM     21  C   UNL     1      -1.928   4.175  25.041  0.00  0.00    +0.246 C 
ATOM     22  O   UNL     1      -2.427   4.493  24.466  0.00  0.00    -0.273 OA
ATOM     23  N   UNL     1      -1.155   4.454  25.117  0.00  0.00    -0.275 N 
ATOM     24  C   UNL     1      -0.882   5.051  24.619  0.00  0.00    +0.115 C 
ATOM     25  C   UNL     1      -0.657   4.135  25.693  0.00  0.00    +0.115 C 
ENDBRANCH  20  21
ENDBRANCH  19  20
TORSDOF 7
ENDMDL
MODEL 2
REMARK VINA RESULT:      -8.5      1.811      5.874
REMARK  Name = 
REMARK  7 active torsions:
REMARK  status: ('A' for Active; 'I' for Inactive)
REMARK    1  A    between atoms: C_2  and  C_4
REMARK    2  A    between atoms: C_4  and  C_5
REMARK    3  A    between atoms: N_7  and  C_8
REMARK    4  A    between atoms: C_11  and  C_14
REMARK    5  A    between atoms: N_19  and  C_20
REMARK    6  A    between atoms: C_20  and  C_21
REMARK    7  A    between atoms: C_26  and  C_27
REMARK                            x       y       z     vdW  Elec       q    Type
REMARK                         _______ _______ _______ _____ _____    ______ ____
ROOT
ATOM     14  C   UNL     1      -0.913  -0.078  24.736  0.00  0.00    +0.159 C 
ATOM     15  O   UNL     1      -0.280  -0.606  24.726  0.00  0.00    -0.341 OA
ATOM     16  C   UNL     1      -0.410  -1.404  24.557  0.00  0.00    +0.227 C 
ATOM     17  C   UNL     1      -1.173  -1.672  24.397  0.00  0.00    +0.256 C 
ATOM     18  O   UNL     1      -1.304  -2.469  24.227  0.00  0.00    -0.272 OA
ATOM     19  N   UNL     1      -1.807  -1.144  24.407  0.00  0.00    -0.265 N 
ATOM     26  C   UNL     1      -1.677  -0.347  24.577  0.00  0.00    +0.140 C 
ENDROOT
BRANCH  14  11
ATOM      8  C   UNL     1      -0.525   2.313  25.244  0.00  0.00    +0.073 A 
ATOM      9  C   UNL     1      -0.339   2.014  24.497  0.00  0.00    +0.016 A 
ATOM     10  C   UNL     1      -0.469   1.218  24.328  0.00  0.00    -0.001 A 
ATOM     11  C   UNL     1      -0.784   0.719  24.906  0.00  0.00    +0.006 A 
ATOM     12  C   UNL     1      -0.969   1.017  25.652  0.00  0.00    -0.001 A 
ATOM     13  C   UNL     1      -0.840   1.815  25.822  0.00  0.00    +0.016 A 
BRANCH   8   7
ATOM      5  C   UNL     1      -0.961   3.674  25.205  0.00  0.00    +0.246 C 
ATOM      6  O   UNL     1      -1.657   3.440  24.828  0.00  0.00    -0.273 OA
ATOM      7  N   UNL     1      -0.395   3.110  25.413  0.00  0.00    -0.179 NA
BRANCH   5   4
ATOM      4  C   UNL     1      -0.832   4.470  25.374  0.00  0.00    +0.087 C 
BRANCH   4   2
ATOM      1  C   UNL     1      -1.087   5.553  24.478  0.00  0.00    +0.001 C 
ATOM      2  C   UNL     1      -1.343   5.044  25.075  0.00  0.00    +0.009 C 
ATOM      3  C   UNL     1      -2.110   5.109  25.372  0.00  0.00    +0.001 C 
ENDBRANCH   4   2
ENDBRANCH   5   4
ENDBRANCH   8   7
ENDBRANCH  14  11
BRANCH  26  27
ATOM     27  C   UNL     1      -2.311   0.182  24.587  0.00  0.00    +0.205 C 
ATOM     28  O   UNL     1      -2.686   0.389  23.882  0.00  0.00    -0.218 OA
ENDBRANCH  26  27
BRANCH  19  20
ATOM     20  C   UNL     1      -2.570  -1.412  24.247  0.00  0.00    +0.179 C 
BRANCH  20  21
ATOM     21  C   UNL     1      -2.927  -1.963  24.748  0.00  0.00    +0.246 C 
ATOM     22  O   UNL     1      -2.597  -2.123  25.487  0.00  0.00    -0.273 OA
ATOM     23  N   UNL     1      -3.613  -2.353  24.509  0.00  0.00    -0.275 N 
ATOM     24  C   UNL     1      -3.970  -2.904  25.009  0.00  0.00    +0.115 C 
ATOM     25  C   UNL     1      -3.943  -2.193  23.770  0.00  0.00    +0.115 C 
ENDBRANCH  20  21
ENDBRANCH  19  20
TORSDOF 7
ENDMDL
MODEL 3
REMARK VINA RESULT:      -8.3      1.734      2.535
REMARK  Name = 
REMARK  7 active torsions:
REMARK  status: ('A' for Active; 'I' for Inactive)
REMARK    1  A    between atoms: C_2  and  C_4
REMARK    2  A    between atoms: C_4  and  C_5
REMARK    3  A    between atoms: N_7  and  C_8
REMARK    4  A    between atoms: C_11  and  C_14
REMARK    5  A    between atoms: N_19  and  C_20
REMARK    6  A    between atoms: C_20  and  C_21
REMARK    7  A    between atoms: C_26  and  C_27
REMARK                            x       y       z     vdW  Elec       q    Type
REMARK                         _______ _______ _______ _____ _____    ______ ____
ROOT
ATOM     14  C   UNL     1      -0.770   1.415  25.203  0.00  0.00    +0.159 C 
ATOM     15  O   UNL     1      -0.011   1.617  25.452  0.00  0.00    -0.341 OA
ATOM     16  C   UNL     1       0.189   2.410  25.565  0.00  0.00    +0.227 C 
ATOM     17  C   UNL     1      -0.371   3.000  25.428  0.00  0.00    +0.256 C 
ATOM     18  O   UNL     1      -0.172   3.792  25.540  0.00  0.00    -0.272 OA
ATOM     19  N   UNL     1      -1.131   2.797  25.178  0.00  0.00    -0.265 N 
ATOM     26  C   UNL     1      -1.330   2.005  25.066  0.00  0.00    +0.140 C 
ENDROOT
BRANCH  14  11
ATOM      8  C   UNL     1      -1.372  -0.963  24.868  0.00  0.00    +0.073 A 
ATOM      9  C   UNL     1      -1.523  -0.597  25.591  0.00  0.00    +0.016 A 
ATOM     10  C   UNL     1      -1.323   0.195  25.703  0.00  0.00    -0.001 A 
ATOM     11  C   UNL     1      -0.971   0.622  25.091  0.00  0.00    +0.006 A 
ATOM     12  C   UNL     1      -0.819   0.256  24.367  0.00  0.00    -0.001 A 
ATOM     13  C   UNL     1      -1.020  -0.536  24.255  0.00  0.00    +0.016 A 
BRANCH   8   7
ATOM      5  C   UNL     1      -2.342  -1.960  24.537  0.00  0.00    +0.246 C 
ATOM      6  O   UNL     1      -2.911  -1.371  24.431  0.00  0.00    -0.273 OA
ATOM      7  N   UNL     1      -1.573  -1.755  24.756  0.00  0.00    -0.179 NA
BRANCH   5   4
ATOM      4  C   UNL     1      -2.542  -2.752  24.425  0.00  0.00    +0.087 C 
BRANCH   4   2
ATOM      1  C   UNL     1      -3.646  -3.299  25.148  0.00  0.00    +0.001 C 
ATOM      2  C   UNL     1      -3.332  -2.985  24.453  0.00  0.00    +0.009 C 
ATOM      3  C   UNL     1      -3.810  -2.905  23.784  0.00  0.00    +0.001 C 
ENDBRANCH   4   2
ENDBRANCH   5   4
ENDBRANCH   8   7
ENDBRANCH  14  11
BRANCH  26  27
ATOM     27  C   UNL     1      -2.091   1.802  24.817  0.00  0.00    +0.205 C 
ATOM     28  O   UNL     1      -2.315   1.929  24.033  0.00  0.00    -0.218 OA
ENDBRANCH  26  27
BRANCH  19  20
ATOM     20  C   UNL     1      -1.691   3.386  25.041  0.00  0.00    +0.179 C 
BRANCH  20  21
ATOM     21  C   UNL     1      -2.079   3.743  25.677  0.00  0.00    +0.246 C 
ATOM     22  O   UNL     1      -1.906   3.509  26.449  0.00  0.00    -0.273 OA
ATOM     23  N   UNL     1      -2.639   4.333  25.540  0.00  0.00    -0.275 N 
ATOM     24  C   UNL     1      -3.026   4.689  26.175  0.00  0.00    +0.115 C 
ATOM     25  C   UNL     1      -2.812   4.566  24.767  0.00  0.00    +0.115 C 
ENDBRANCH  20  21
ENDBRANCH  19  20
TORSDOF 7
ENDMDL
MODEL 4
REMARK VINA RESULT:      -8.1      3.058      4.632
REMARK  Name = 
REMARK  7 active torsions:
REMARK  status: ('A' for Active; 'I' for Inactive)
REMARK    1  A    between atoms: C_2  and  C_4
REMARK    2  A    between atoms: C_4  and  C_5
REMARK    3  A    between atoms: N_7  and  C_8
REMARK    4  A    between atoms: C_11  and  C_14
REMARK    5  A    between atoms: N_19  and  C_20
REMARK    6  A    between atoms: C_20  and  C_21
REMARK    7  A    between atoms: C_26  and  C_27
REMARK                            x       y       z     vdW  Elec       q    Type
REMARK                         _______ _______ _______ _____ _____    ______ ____
ROOT
ATOM     14  C   UNL     1      -1.274   0.274  24.307  0.00  0.00    +0.159 C 
ATOM     15  O   UNL     1      -1.335  -0.500  24.582  0.00  0.00    -0.341 OA
ATOM     16  C   UNL     1      -0.687  -1.009  24.533  0.00  0.00    +0.227 C 
ATOM     17  C   UNL     1       0.022  -0.742  24.207  0.00  0.00    +0.256 C 
ATOM     18  O   UNL     1       0.670  -1.250  24.157  0.00  0.00    -0.272 OA
ATOM     19  N   UNL     1       0.084   0.034  23.931  0.00  0.00    -0.265 N 
ATOM     26  C   UNL     1      -0.565   0.541  23.981  0.00  0.00    +0.140 C 
ENDROOT
BRANCH  14  11
ATOM      8  C   UNL     1      -3.218   1.800  24.453  0.00  0.00    +0.073 A 
ATOM      9  C   UNL     1      -3.106   1.337  23.779  0.00  0.00    +0.016 A 
ATOM     10  C   UNL     1      -2.459   0.829  23.730  0.00  0.00    -0.001 A 
ATOM     11  C   UNL     1      -1.922   0.783  24.356  0.00  0.00    +0.006 A 
ATOM     12  C   UNL     1      -2.034   1.245  25.030  0.00  0.00    -0.001 A 
ATOM     13  C   UNL     1      -2.681   1.753  25.080  0.00  0.00    +0.016 A 
BRANCH   8   7
ATOM      5  C   UNL     1      -4.574   2.044  24.832  0.00  0.00    +0.246 C 
ATOM      6  O   UNL     1      -4.635   1.269  25.113  0.00  0.00    -0.273 OA
ATOM      7  N   UNL     1      -3.866   2.308  24.502  0.00  0.00    -0.179 NA
BRANCH   5   4
ATOM      4  C   UNL     1      -5.222   2.552  24.881  0.00  0.00    +0.087 C 
BRANCH   4   2
ATOM      1  C   UNL     1      -6.476   1.872  24.964  0.00  0.00    +0.001 C 
ATOM      2  C   UNL     1      -5.887   2.331  25.315  0.00  0.00    +0.009 C 
ATOM      3  C   UNL     1      -5.964   2.571  26.102  0.00  0.00    +0.001 C 
ENDBRANCH   4   2
ENDBRANCH   5   4
ENDBRANCH   8   7
ENDBRANCH  14  11
BRANCH  26  27
ATOM     27  C   UNL     1      -0.503   1.317  23.705  0.00  0.00    +0.205 C 
ATOM     28  O   UNL     1      -0.045   1.865  24.118  0.00  0.00    -0.218 OA
ENDBRANCH  26  27
BRANCH  19  20
ATOM     20  C   UNL     1       0.792   0.300  23.606  0.00  0.00    +0.179 C 
BRANCH  20  21
ATOM     21  C   UNL     1       1.049   0.006  22.879  0.00  0.00    +0.246 C 
ATOM     22  O   UNL     1       0.527  -0.409  22.394  0.00  0.00    -0.273 OA
ATOM     23  N   UNL     1       1.829   0.127  22.637  0.00  0.00    -0.275 N 
ATOM     24  C   UNL     1       2.085  -0.166  21.910  0.00  0.00    +0.115 C 
ATOM     25  C   UNL     1       2.351   0.543  23.122  0.00  0.00    +0.115 C 
ENDBRANCH  20  21
ENDBRANCH  19  20
TORSDOF 7
ENDMDL
MODEL 5
REMARK VINA RESULT:      -7.9      1.207      5.271
REMARK  Name = 
REMARK  7 active torsions:
REMARK  status: ('A' for Active; 'I' for Inactive)
REMARK    1  A    between atoms: C_2  and  C_4
REMARK    2  A    between atoms: C_4  and  C_5
REMARK    3  A    between atoms: N_7  and  C_8
REMARK    4  A    between atoms: C_11  and  C_14
REMARK    5  A    between atoms: N_19  and  C_20
REMARK    6  A    between atoms: C_20  and  C_21
REMARK    7  A    between atoms: C_26  and  C_27
REMARK                            x       y       z     vdW  Elec       q    Type
REMARK                         _______ _______ _______ _____ _____    ______ ____
ROOT
ATOM     14  C   UNL     1      -3.757   0.770  24.471  0.00  0.00    +0.159 C 
ATOM     15  O   UNL     1      -4.545   0.550  24.375  0.00  0.00    -0.341 OA
ATOM     16  C   UNL     1      -4.741  -0.240  24.238  0.00  0.00    +0.227 C 
ATOM     17  C   UNL     1      -4.146  -0.810  24.197  0.00  0.00    +0.256 C 
ATOM     18  O   UNL     1      -4.340  -1.600  24.061  0.00  0.00    -0.272 OA
ATOM     19  N   UNL     1      -3.356  -0.591  24.293  0.00  0.00    -0.265 N 
ATOM     26  C   UNL     1      -3.162   0.199  24.430  0.00  0.00    +0.140 C 
ENDROOT
BRANCH  14  11
ATOM      8  C   UNL     1      -3.171   3.139  24.884  0.00  0.00    +0.073 A 
ATOM      9  C   UNL     1      -3.294   2.627  25.519  0.00  0.00    +0.016 A 
ATOM     10  C   UNL     1      -3.489   1.838  25.382  0.00  0.00    -0.001 A 
ATOM     11  C   UNL     1      -3.561   1.560  24.608  0.00  0.00    +0.006 A 
ATOM     12  C   UNL     1      -3.439   2.071  23.973  0.00  0.00    -0.001 A 
ATOM     13  C   UNL     1      -3.244   2.861  24.110  0.00  0.00    +0.016 A 
BRANCH   8   7
ATOM      5  C   UNL     1      -2.200   4.135  25.212  0.00  0.00    +0.246 C 
ATOM      6  O   UNL     1      -1.619   3.551  25.266  0.00  0.00    -0.273 OA
ATOM      7  N   UNL     1      -2.976   3.929  25.021  0.00  0.00    -0.179 NA
BRANCH   5   4
ATOM      4  C   UNL     1      -2.005   4.925  25.350  0.00  0.00    +0.087 C 
BRANCH   4   2
ATOM      1  C   UNL     1      -0.622   4.844  25.002  0.00  0.00    +0.001 C 
ATOM      2  C   UNL     1      -1.338   5.253  24.993  0.00  0.00    +0.009 C 
ATOM      3  C   UNL     1      -1.387   5.991  24.627  0.00  0.00    +0.001 C 
ENDBRANCH   4   2
ENDBRANCH   5   4
ENDBRANCH   8   7
ENDBRANCH  14  11
BRANCH  26  27
ATOM     27  C   UNL     1      -2.372   0.419  24.526  0.00  0.00    +0.205 C 
ATOM     28  O   UNL     1      -1.865   0.430  23.875  0.00  0.00    -0.218 OA
ENDBRANCH  26  27
BRANCH  19  20
ATOM     20  C   UNL     1      -2.762  -1.160  24.252  0.00  0.00    +0.179 C 
BRANCH  20  21
ATOM     21  C   UNL     1      -2.680  -1.716  24.857  0.00  0.00    +0.246 C 
ATOM     22  O   UNL     1      -3.121  -1.639  25.550  0.00  0.00    -0.273 OA
ATOM     23  N   UNL     1      -2.157  -2.348  24.769  0.00  0.00    -0.275 N 
ATOM     24  C   UNL     1      -2.076  -2.903  25.373  0.00  0.00    +0.115 C 
ATOM     25  C   UNL     1      -1.716  -2.424  24.076  0.00  0.00    +0.115 C 
ENDBRANCH  20  21
ENDBRANCH  19  20
TORSDOF 7
ENDMDL
MODEL 6
REMARK VINA RESULT:      -7.5      2.423      3.783
REMARK  Name = 
REMARK  7 active torsions:
REMARK  status: ('A' for Active; 'I' for Inactive)
REMARK    1  A    between atoms: C_2  and  C_4
REMARK    2  A    between atoms: C_4  and  C_5
REMARK    3  A    between atoms: N_7  and  C_8
REMARK    4  A    between atoms: C_11  and  C_14
REMARK    5  A    between atoms: N_19  and  C_20
REMARK    6  A    between atoms: C_20  and  C_21
REMARK    7  A    between atoms: C_26  and  C_27
REMARK                            x       y       z     vdW  Elec       q    Type
REMARK                         _______ _______ _______ _____ _____    ______ ____
ROOT
ATOM     14  C   UNL     1      -2.981   3.157  24.910  0.00  0.00    +0.159 C 
ATOM     15  O   UNL     1      -3.024   3.960  25.092  0.00  0.00    -0.341 OA
ATOM     16  C   UNL     1      -3.754   4.311  25.247  0.00  0.00    +0.227 C 
ATOM     17  C   UNL     1      -4.443   3.857  25.219  0.00  0.00    +0.256 C 
ATOM     18  O   UNL     1      -5.174   4.207  25.374  0.00  0.00    -0.272 OA
ATOM     19  N   UNL     1      -4.401   3.053  25.037  0.00  0.00    -0.265 N 
ATOM     26  C   UNL     1      -3.670   2.704  24.882  0.00  0.00    +0.140 C 
ENDROOT
BRANCH  14  11
ATOM      8  C   UNL     1      -0.789   2.104  24.447  0.00  0.00    +0.073 A 
ATOM      9  C   UNL     1      -1.114   2.065  25.205  0.00  0.00    +0.016 A 
ATOM     10  C   UNL     1      -1.844   2.416  25.359  0.00  0.00    -0.001 A 
ATOM     11  C   UNL     1      -2.251   2.806  24.755  0.00  0.00    +0.006 A 
ATOM     12  C   UNL     1      -1.926   2.845  23.998  0.00  0.00    -0.001 A 
ATOM     13  C   UNL     1      -1.195   2.494  23.843  0.00  0.00    +0.016 A 
BRANCH   8   7
ATOM      5  C   UNL     1      -0.025   1.000  23.959  0.00  0.00    +0.246 C 
ATOM      6  O   UNL     1      -0.723   0.596  23.779  0.00  0.00    -0.273 OA
ATOM      7  N   UNL     1      -0.059   1.753  24.293  0.00  0.00    -0.179 NA
BRANCH   5   4
ATOM      4  C   UNL     1       0.705   0.649  23.805  0.00  0.00    +0.087 C 
BRANCH   4   2
ATOM      1  C   UNL     1       1.129  -0.080  22.651  0.00  0.00    +0.001 C 
ATOM      2  C   UNL     1       0.742  -0.056  23.380  0.00  0.00    +0.009 C 
ATOM      3  C   UNL     1       0.392  -0.740  23.683  0.00  0.00    +0.001 C 
ENDBRANCH   4   2
ENDBRANCH   5   4
ENDBRANCH   8   7
ENDBRANCH  14  11
BRANCH  26  27
ATOM     27  C   UNL     1      -3.628   1.900  24.699  0.00  0.00    +0.205 C 
ATOM     28  O   UNL     1      -3.889   1.630  23.965  0.00  0.00    -0.218 OA
ENDBRANCH  26  27
BRANCH  19  20
ATOM     20  C   UNL     1      -5.089   2.600  25.009  0.00  0.00    +0.179 C 
BRANCH  20  21
ATOM     21  C   UNL     1      -5.500   2.431  25.704  0.00  0.00    +0.246 C 
ATOM     22  O   UNL     1      -5.229   2.725  26.425  0.00  0.00    -0.273 OA
ATOM     23  N   UNL     1      -6.182   1.967  25.678  0.00  0.00    -0.275 N 
ATOM     24  C   UNL     1      -6.593   1.798  26.372  0.00  0.00    +0.115 C 
ATOM     25  C   UNL     1      -6.453   1.674  24.956  0.00  0.00    +0.115 C 
ENDBRANCH  20  21
ENDBRANCH  19  20
TORSDOF 7
ENDMDL
MODEL 7
REMARK VINA RESULT:      -6.4     15.735     18.606
REMARK  Name = 
REMARK  7 active torsions:
REMARK  status: ('A' for Active; 'I' for Inactive)
REMARK    1  A    between atoms: C_2  and  C_4
REMARK    2  A    between atoms: C_4  and  C_5
REMARK    3  A    between atoms: N_7  and  C_8
REMARK    4  A    between atoms: C_11  and  C_14
REMARK    5  A    between atoms: N_19  and  C_20
REMARK    6  A    between atoms: C_20  and  C_21
REMARK    7  A    between atoms: C_26  and  C_27
REMARK                            x       y       z     vdW  Elec       q    Type
REMARK                         _______ _______ _______ _____ _____    ______ ____
ROOT
ATOM     14  C   UNL     1      12.684   7.888  19.664  0.00  0.00    +0.159 C 
ATOM     15  O   UNL     1      12.185   8.224  19.100  0.00  0.00    -0.341 OA
ATOM     16  C   UNL     1      11.404   8.405  19.295  0.00  0.00    +0.227 C 
ATOM     17  C   UNL     1      11.122   8.249  20.054  0.00  0.00    +0.256 C 
ATOM     18  O   UNL     1      10.341   8.429  20.250  0.00  0.00    -0.272 OA
ATOM     19  N   UNL     1      11.621   7.912  20.619  0.00  0.00    -0.265 N 
ATOM     26  C   UNL     1      12.401   7.732  20.424  0.00  0.00    +0.140 C 
ENDROOT
BRANCH  14  11
ATOM      8  C   UNL     1      15.028   7.347  19.082  0.00  0.00    +0.073 A 
ATOM      9  C   UNL     1      14.852   8.051  19.475  0.00  0.00    +0.016 A 
ATOM     10  C   UNL     1      14.071   8.231  19.669  0.00  0.00    -0.001 A 
ATOM     11  C   UNL     1      13.465   7.707  19.470  0.00  0.00    +0.006 A 
ATOM     12  C   UNL     1      13.641   7.003  19.077  0.00  0.00    -0.001 A 
ATOM     13  C   UNL     1      14.422   6.823  18.883  0.00  0.00    +0.016 A 
BRANCH   8   7
ATOM      5  C   UNL     1      16.271   6.720  19.405  0.00  0.00    +0.246 C 
ATOM      6  O   UNL     1      15.951   6.453  20.118  0.00  0.00    -0.273 OA
ATOM      7  N   UNL     1      15.809   7.167  18.888  0.00  0.00    -0.179 NA
BRANCH   5   4
ATOM      4  C   UNL     1      17.052   6.539  19.212  0.00  0.00    +0.087 C 
BRANCH   4   2
ATOM      1  C   UNL     1      17.390   5.272  19.778  0.00  0.00    +0.001 C 
ATOM      2  C   UNL     1      17.282   5.754  19.117  0.00  0.00    +0.009 C 
ATOM      3  C   UNL     1      17.405   5.448  18.360  0.00  0.00    +0.001 C 
ENDBRANCH   4   2
ENDBRANCH   5   4
ENDBRANCH   8   7
ENDBRANCH  14  11
BRANCH  26  27
ATOM     27  C   UNL     1      12.901   7.395  20.989  0.00  0.00    +0.205 C 
ATOM     28  O   UNL     1      12.802   6.606  21.207  0.00  0.00    -0.218 OA
ENDBRANCH  26  27
BRANCH  19  20
ATOM     20  C   UNL     1      11.339   7.756  21.378  0.00  0.00    +0.179 C 
BRANCH  20  21
ATOM     21  C   UNL     1      11.200   8.378  21.902  0.00  0.00    +0.246 C 
ATOM     22  O   UNL     1      11.662   9.060  21.864  0.00  0.00    -0.273 OA
ATOM     23  N   UNL     1      10.599   8.318  22.464  0.00  0.00    -0.275 N 
ATOM     24  C   UNL     1      10.461   8.939  22.988  0.00  0.00    +0.115 C 
ATOM     25  C   UNL     1      10.137   7.635  22.502  0.00  0.00    +0.115 C 
ENDBRANCH  20  21
ENDBRANCH  19  20
TORSDOF 7
ENDMDL
MODEL 8
REMARK VINA RESULT:      -5.6     16.061     19.006
REMARK  Name = 
REMARK  7 active torsions:
REMARK  status: ('A' for Active; 'I' for Inactive)
REMARK    1  A    between atoms: C_2  and  C_4
REMARK    2  A    between atoms: C_4  and  C_5
REMARK    3  A    between atoms: N_7  and  C_8
REMARK    4  A    between atoms: C_11  and  C_14
REMARK    5  A    between atoms: N_19  and  C_20
REMARK    6  A    between atoms: C_20  and  C_21
REMARK    7  A    between atoms: C_26  and  C_27
REMARK                            x       y       z     vdW  Elec       q    Type
REMARK                         _______ _______ _______ _____ _____    ______ ____
ROOT
ATOM     14  C   UNL     1      13.757   7.455  18.842  0.00  0.00    +0.159 C 
ATOM     15  O   UNL     1      13.703   7.278  18.039  0.00  0.00    -0.341 OA
ATOM     16  C   UNL     1      14.379   7.065  17.616  0.00  0.00    +0.227 C 
ATOM     17  C   UNL     1      15.109   7.029  17.998  0.00  0.00    +0.256 C 
ATOM     18  O   UNL     1      15.785   6.816  17.577  0.00  0.00    -0.272 OA
ATOM     19  N   UNL     1      15.163   7.207  18.802  0.00  0.00    -0.265 N 
ATOM     26  C   UNL     1      14.487   7.420  19.224  0.00  0.00    +0.140 C 
ENDROOT
BRANCH  14  11
ATOM      8  C   UNL     1      11.729   8.097  20.109  0.00  0.00    +0.073 A 
ATOM      9  C   UNL     1      12.104   8.648  19.623  0.00  0.00    +0.016 A 
ATOM     10  C   UNL     1      12.779   8.435  19.201  0.00  0.00    -0.001 A 
ATOM     11  C   UNL     1      13.081   7.669  19.264  0.00  0.00    +0.006 A 
ATOM     12  C   UNL     1      12.706   7.118  19.750  0.00  0.00    -0.001 A 
ATOM     13  C   UNL     1      12.030   7.331  20.173  0.00  0.00    +0.016 A 
BRANCH   8   7
ATOM      5  C   UNL     1      11.110   8.501  21.332  0.00  0.00    +0.246 C 
ATOM      6  O   UNL     1      11.843   8.477  21.711  0.00  0.00    -0.273 OA
ATOM      7  N   UNL     1      11.054   8.310  20.531  0.00  0.00    -0.179 NA
BRANCH   5   4
ATOM      4  C   UNL     1      10.434   8.714  21.754  0.00  0.00    +0.087 C 
BRANCH   4   2
ATOM      1  C   UNL     1      10.651   9.094  23.114  0.00  0.00    +0.001 C 
ATOM      2  C   UNL     1      10.381   8.546  22.559  0.00  0.00    +0.009 C 
ATOM      3  C   UNL     1      10.057   7.829  22.811  0.00  0.00    +0.001 C 
ENDBRANCH   4   2
ENDBRANCH   5   4
ENDBRANCH   8   7
ENDBRANCH  14  11
BRANCH  26  27
ATOM     27  C   UNL     1      14.541   7.598  20.028  0.00  0.00    +0.205 C 
ATOM     28  O   UNL     1      14.946   8.273  20.274  0.00  0.00    -0.218 OA
ENDBRANCH  26  27
BRANCH  19  20
ATOM     20  C   UNL     1      15.893   7.171  19.184  0.00  0.00    +0.179 C 
BRANCH  20  21
ATOM     21  C   UNL     1      16.279   6.447  19.271  0.00  0.00    +0.246 C 
ATOM     22  O   UNL     1      15.923   5.755  18.995  0.00  0.00    -0.273 OA
ATOM     23  N   UNL     1      17.019   6.414  19.633  0.00  0.00    -0.275 N 
ATOM     24  C   UNL     1      17.404   5.690  19.720  0.00  0.00    +0.115 C 
ATOM     25  C   UNL     1      17.374   7.106  19.909  0.00  0.00    +0.115 C 
ENDBRANCH  20  21
ENDBRANCH  19  20
TORSDOF 7
ENDMDL
MODEL 9
REMARK VINA RESULT:      -5.4     17.603     20.091
REMARK  Name = 
REMARK  7 active torsions:
REMARK  status: ('A' for Active; 'I' for Inactive)
REMARK    1  A    between atoms: C_2  and  C_4
REMARK    2  A    between atoms: C_4  and  C_5
REMARK    3  A    between atoms: N_7  and  C_8
REMARK    4  A    between atoms: C_11  and  C_14
REMARK    5  A    between atoms: N_19  and  C_20
REMARK    6  A    between atoms: C_20  and  C_21
REMARK    7  A    between atoms: C_26  and  C_27
REMARK                            x       y       z     vdW  Elec       q    Type
REMARK                         _______ _______ _______ _____ _____    ______ ____
ROOT
ATOM     14  C   UNL     1      15.102   7.184  18.455  0.00  0.00    +0.159 C 
ATOM     15  O   UNL     1      15.343   6.550  17.986  0.00  0.00    -0.341 OA
ATOM     16  C   UNL     1      16.022   6.124  18.183  0.00  0.00    +0.227 C 
ATOM     17  C   UNL     1      16.460   6.333  18.850  0.00  0.00    +0.256 C 
ATOM     18  O   UNL     1      17.139   5.908  19.048  0.00  0.00    -0.272 OA
ATOM     19  N   UNL     1      16.219   6.968  19.320  0.00  0.00    -0.265 N 
ATOM     26  C   UNL     1      15.541   7.393  19.122  0.00  0.00    +0.140 C 
ENDROOT
BRANCH  14  11
ATOM      8  C   UNL     1      13.064   8.460  17.866  0.00  0.00    +0.073 A 
ATOM      9  C   UNL     1      13.018   7.828  18.395  0.00  0.00    +0.016 A 
ATOM     10  C   UNL     1      13.696   7.403  18.591  0.00  0.00    -0.001 A 
ATOM     11  C   UNL     1      14.424   7.610  18.258  0.00  0.00    +0.006 A 
ATOM     12  C   UNL     1      14.471   8.241  17.730  0.00  0.00    -0.001 A 
ATOM     13  C   UNL     1      13.792   8.666  17.533  0.00  0.00    +0.016 A 
BRANCH   8   7
ATOM      5  C   UNL     1      11.755   8.507  17.295  0.00  0.00    +0.246 C 
ATOM      6  O   UNL     1      11.804   7.702  17.117  0.00  0.00    -0.273 OA
ATOM      7  N   UNL     1      12.386   8.885  17.669  0.00  0.00    -0.179 NA
BRANCH   5   4
ATOM      4  C   UNL     1      11.077   8.932  17.099  0.00  0.00    +0.087 C 
BRANCH   4   2
ATOM      1  C   UNL     1      10.018   8.207  16.469  0.00  0.00    +0.001 C 
ATOM      2  C   UNL     1      10.649   8.737  16.422  0.00  0.00    +0.009 C 
ATOM      3  C   UNL     1      10.852   9.072  15.695  0.00  0.00    +0.001 C 
ENDBRANCH   4   2
ENDBRANCH   5   4
ENDBRANCH   8   7
ENDBRANCH  14  11
BRANCH  26  27
ATOM     27  C   UNL     1      15.300   8.027  19.592  0.00  0.00    +0.205 C 
ATOM     28  O   UNL     1      15.788   8.687  19.674  0.00  0.00    -0.218 OA
ENDBRANCH  26  27
BRANCH  19  20
ATOM     20  C   UNL     1      16.657   7.176  19.986  0.00  0.00    +0.179 C 
BRANCH  20  21
ATOM     21  C   UNL     1      16.646   6.693  20.656  0.00  0.00    +0.246 C 
ATOM     22  O   UNL     1      16.279   5.955  20.625  0.00  0.00    -0.273 OA
ATOM     23  N   UNL     1      17.001   6.949  21.355  0.00  0.00    -0.275 N 
ATOM     24  C   UNL     1      16.989   6.466  22.023  0.00  0.00    +0.115 C 
ATOM     25  C   UNL     1      17.368   7.687  21.385  0.00  0.00    +0.115 C 
ENDBRANCH  20  21
ENDBRANCH  19  20
TORSDOF 7
ENDMDL
MODEL 10
REMARK VINA RESULT:      -5.2     15.581     18.328
REMARK  Name = 
REMARK  7 active torsions:
REMARK  status: ('A' for Active; 'I' for Inactive)
REMARK    1  A    between atoms: C_2  and  C_4
REMARK    2  A    between atoms: C_4  and  C_5
REMARK    3  A    between atoms: N_7  and  C_8
REMARK    4  A    between atoms: C_11  and  C_14
REMARK    5  A    between atoms: N_19  and  C_20
REMARK    6  A    between atoms: C_20  and  C_21
REMARK    7  A    between atoms: C_26  and  C_27
REMARK                            x       y       z     vdW  Elec       q    Type
REMARK                         _______ _______ _______ _____ _____    ______ ____
ROOT
ATOM     14  C   UNL     1      12.165   7.506  19.527  0.00  0.00    +0.159 C 
ATOM     15  O   UNL     1      12.492   6.776  19.726  0.00  0.00    -0.341 OA
ATOM     16  C   UNL     1      12.307   6.424  20.449  0.00  0.00    +0.227 C 
ATOM     17  C   UNL     1      11.795   6.802  20.973  0.00  0.00    +0.256 C 
ATOM     18  O   UNL     1      11.609   6.451  21.695  0.00  0.00    -0.272 OA
ATOM     19  N   UNL     1      11.467   7.534  20.774  0.00  0.00    -0.265 N 
ATOM     26  C   UNL     1      11.652   7.885  20.051  0.00  0.00    +0.140 C 
ENDROOT
BRANCH  14  11
ATOM      8  C   UNL     1      12.721   8.565  17.359  0.00  0.00    +0.073 A 
ATOM      9  C   UNL     1      13.149   8.761  18.037  0.00  0.00    +0.016 A 
ATOM     10  C   UNL     1      12.964   8.409  18.759  0.00  0.00    -0.001 A 
ATOM     11  C   UNL     1      12.349   7.859  18.804  0.00  0.00    +0.006 A 
ATOM     12  C   UNL     1      11.921   7.663  18.127  0.00  0.00    -0.001 A 
ATOM     13  C   UNL     1      12.106   8.015  17.405  0.00  0.00    +0.016 A 
BRANCH   8   7
ATOM      5  C   UNL     1      13.607   8.722  16.249  0.00  0.00    +0.246 C 
ATOM      6  O   UNL     1      14.124   8.173  16.585  0.00  0.00    -0.273 OA
ATOM      7  N   UNL     1      12.906   8.918  16.637  0.00  0.00    -0.179 NA
BRANCH   5   4
ATOM      4  C   UNL     1      13.792   9.075  15.528  0.00  0.00    +0.087 C 
BRANCH   4   2
ATOM      1  C   UNL     1      15.221   9.085  15.541  0.00  0.00    +0.001 C 
ATOM      2  C   UNL     1      14.511   8.909  15.160  0.00  0.00    +0.009 C 
ATOM      3  C   UNL     1      14.520   8.566  14.408  0.00  0.00    +0.001 C 
ENDBRANCH   4   2
ENDBRANCH   5   4
ENDBRANCH   8   7
ENDBRANCH  14  11
BRANCH  26  27
ATOM     27  C   UNL     1      11.324   8.616  19.852  0.00  0.00    +0.205 C 
ATOM     28  O   UNL     1      10.523   8.670  19.664  0.00  0.00    -0.218 OA
ENDBRANCH  26  27
BRANCH  19  20
ATOM     20  C   UNL     1      10.954   7.912  21.297  0.00  0.00    +0.179 C 
BRANCH  20  21
ATOM     21  C   UNL     1      11.256   8.313  21.952  0.00  0.00    +0.246 C 
ATOM     22  O   UNL     1      12.071   8.411  22.036  0.00  0.00    -0.273 OA
ATOM     23  N   UNL     1      10.743   8.616  22.523  0.00  0.00    -0.275 N 
ATOM     24  C   UNL     1      11.044   9.017  23.177  0.00  0.00    +0.115 C 
ATOM     25  C   UNL     1       9.928   8.518  22.438  0.00  0.00    +0.115 C 
ENDBRANCH  20  21
ENDBRANCH  19  20
TORSDOF 7
ENDMDL
