MODEL 1
REMARK VINA RESULT:      -9.1      0.000      0.000
REMARK  Name = 
REMARK  8 active torsions:
REMARK  status: ('A' for Active; 'I' for Inactive)
REMARK    1  A    between atoms: O_2  and  C_3
REMARK    2  A    between atoms: C_3  and  C_4
REMARK    3  A    between atoms: N_8  and  C_9
REMARK    4  A    between atoms: C_10  and  C_11
REMARK    5  A    between atoms: C_11  and  N_12
REMARK    6  A    between atoms: C_13  and  C_15
REMARK    7  A    between atoms: C_18  and  O_19
REMARK    8  A    between atoms: C_24  and  C_25
REMARK                            x       y       z     vdW  Elec       q    Type
REMARK                         _______ _______ _______ _____ _____    ______ ____
ROOT
ATOM      9  C   UNL     1      -4.041   2.584  24.185  0.00  0.00    +0.120 C 
ATOM     10  C   UNL     1      -3.803   1.795  24.151  0.00  0.00    +0.154 C 
ATOM     23  O   UNL     1      -3.341   1.697  23.474  0.00  0.00    -0.350 OA
ATOM     24  C   UNL     1      -3.293   2.426  23.090  0.00  0.00    +0.180 C 
ATOM     27  C   UNL     1      -3.726   2.974  23.529  0.00  0.00    +0.198 C 
ATOM     28  O   UNL     1      -3.826   3.772  23.346  0.00  0.00    -0.219 OA
ENDROOT
BRANCH   9   8
ATOM      4  C   UNL     1      -4.241   3.364  25.414  0.00  0.00    +0.087 C 
ATOM      5  C   UNL     1      -4.897   3.595  25.858  0.00  0.00    +0.020 C 
ATOM      6  C   UNL     1      -5.572   3.299  25.489  0.00  0.00    +0.019 C 
ATOM      7  C   UNL     1      -5.333   2.883  24.817  0.00  0.00    +0.072 C 
ATOM      8  N   UNL     1      -4.511   2.924  24.771  0.00  0.00    -0.269 NA
BRANCH   4   3
ATOM      3  C   UNL     1      -3.454   3.542  25.584  0.00  0.00    +0.158 C 
BRANCH   3   2
ATOM      1  C   UNL     1      -2.484   4.215  26.391  0.00  0.00    +0.174 C 
ATOM      2  O   UNL     1      -3.267   4.000  26.245  0.00  0.00    -0.350 OA
ENDBRANCH   3   2
ENDBRANCH   4   3
ENDBRANCH   9   8
BRANCH  24  25
ATOM     25  C   UNL     1      -2.885   2.579  22.390  0.00  0.00    +0.214 C 
ATOM     26  O   UNL     1      -2.548   1.956  21.965  0.00  0.00    -0.218 OA
ENDBRANCH  24  25
BRANCH  10  11
ATOM     11  C   UNL     1      -3.994   1.207  24.697  0.00  0.00    +0.146 C 
BRANCH  11  12
ATOM     12  N   UNL     1      -3.833   0.416  24.524  0.00  0.00    -0.199 NA
ATOM     13  C   UNL     1      -4.067  -0.176  25.049  0.00  0.00    +0.265 C 
ATOM     14  O   UNL     1      -4.463   0.023  25.746  0.00  0.00    -0.268 OA
BRANCH  13  15
ATOM     15  C   UNL     1      -3.907  -0.967  24.878  0.00  0.00    +0.055 A 
ATOM     16  C   UNL     1      -4.228  -1.317  24.203  0.00  0.00    +0.008 A 
ATOM     17  C   UNL     1      -4.066  -2.108  24.033  0.00  0.00    +0.037 A 
ATOM     18  C   UNL     1      -3.585  -2.548  24.536  0.00  0.00    +0.139 A 
ATOM     21  C   UNL     1      -3.264  -2.199  25.211  0.00  0.00    +0.037 A 
ATOM     22  C   UNL     1      -3.424  -1.408  25.382  0.00  0.00    +0.008 A 
BRANCH  18  19
ATOM     19  O   UNL     1      -3.423  -3.340  24.366  0.00  0.00    -0.471 OA
ATOM     20  C   UNL     1      -2.706  -3.547  24.016  0.00  0.00    +0.252 C 
ENDBRANCH  18  19
ENDBRANCH  13  15
ENDBRANCH  11  12
ENDBRANCH  10  11
TORSDOF 8
ENDMDL
MODEL 2
REMARK VINA RESULT:      -8.9      1.489      1.663
REMARK  Name = 
REMARK  8 active torsions:
REMARK  status: ('A' for Active; 'I' for Inactive)
REMARK    1  A    between atoms: O_2  and  C_3
REMARK    2  A    between atoms: C_3  and  C_4
REMARK    3  A    between atoms: N_8  and  C_9
REMARK    4  A    between atoms: C_10  and  C_11
REMARK    5  A    between atoms: C_11  and  N_12
REMARK    6  A    between atoms: C_13  and  C_15
REMARK    7  A    between atoms: C_18  and  O_19
REMARK    8  A    between atoms: C_24  and  C_25
REMARK                            x       y       z     vdW  Elec       q    Type
REMARK                         _______ _______ _______ _____ _____    ______ ____
ROOT
ATOM      9  C   UNL     1      -2.310   2.461  24.352  0.00  0.00    +0.120 C 
ATOM     10  C   UNL     1      -2.346   1.678  24.606  0.00  0.00    +0.154 C 
ATOM     23  O   UNL     1      -1.573   1.394  24.669  0.00  0.00    -0.350 OA
ATOM     24  C   UNL     1      -1.060   2.004  24.453  0.00  0.00    +0.180 C 
ATOM     27  C   UNL     1      -1.515   2.663  24.257  0.00  0.00    +0.198 C 
ATOM     28  O   UNL     1      -1.227   3.395  24.011  0.00  0.00    -0.219 OA
ENDROOT
BRANCH   9   8
ATOM      4  C   UNL     1      -3.277   3.492  24.756  0.00  0.00    +0.087 C 
ATOM      5  C   UNL     1      -3.913   3.870  24.391  0.00  0.00    +0.020 C 
ATOM      6  C   UNL     1      -3.984   3.569  23.627  0.00  0.00    +0.019 C 
ATOM      7  C   UNL     1      -3.392   3.004  23.519  0.00  0.00    +0.072 C 
ATOM      8  N   UNL     1      -2.956   2.957  24.217  0.00  0.00    -0.269 NA
BRANCH   4   3
ATOM      3  C   UNL     1      -3.010   3.626  25.525  0.00  0.00    +0.158 C 
BRANCH   3   2
ATOM      1  C   UNL     1      -3.167   4.260  26.797  0.00  0.00    +0.174 C 
ATOM      2  O   UNL     1      -3.413   4.153  26.016  0.00  0.00    -0.350 OA
ENDBRANCH   3   2
ENDBRANCH   4   3
ENDBRANCH   9   8
BRANCH  24  25
ATOM     25  C   UNL     1      -0.236   1.960  24.436  0.00  0.00    +0.214 C 
ATOM     26  O   UNL     1       0.136   1.233  24.317  0.00  0.00    -0.218 OA
ENDBRANCH  24  25
BRANCH  10  11
ATOM     11  C   UNL     1      -3.033   1.251  24.770  0.00  0.00    +0.146 C 
BRANCH  11  12
ATOM     12  N   UNL     1      -3.040   0.431  24.681  0.00  0.00    -0.199 NA
ATOM     13  C   UNL     1      -3.695  -0.005  24.928  0.00  0.00    +0.265 C 
ATOM     14  O   UNL     1      -4.344   0.380  25.264  0.00  0.00    -0.268 OA
BRANCH  13  15
ATOM     15  C   UNL     1      -3.703  -0.825  24.840  0.00  0.00    +0.055 A 
ATOM     16  C   UNL     1      -3.997  -1.163  24.147  0.00  0.00    +0.008 A 
ATOM     17  C   UNL     1      -4.005  -1.983  24.060  0.00  0.00    +0.037 A 
ATOM     18  C   UNL     1      -3.719  -2.465  24.665  0.00  0.00    +0.139 A 
ATOM     21  C   UNL     1      -3.426  -2.127  25.358  0.00  0.00    +0.037 A 
ATOM     22  C   UNL     1      -3.418  -1.307  25.446  0.00  0.00    +0.008 A 
BRANCH  18  19
ATOM     19  O   UNL     1      -3.727  -3.286  24.578  0.00  0.00    -0.471 OA
ATOM     20  C   UNL     1      -3.267  -3.642  23.993  0.00  0.00    +0.252 C 
ENDBRANCH  18  19
ENDBRANCH  13  15
ENDBRANCH  11  12
ENDBRANCH  10  11
TORSDOF 8
ENDMDL
MODEL 3
REMARK VINA RESULT:      -8.7      1.085      2.159
REMARK  Name = 
REMARK  8 active torsions:
REMARK  status: ('A' for Active; 'I' for Inactive)
REMARK    1  A    between atoms: O_2  and  C_3
REMARK    2  A    between atoms: C_3  and  C_4
REMARK    3  A    between atoms: N_8  and  C_9
REMARK    4  A    between atoms: C_10  and  C_11
REMARK    5  A    between atoms: C_11  and  N_12
REMARK    6  A    between atoms: C_13  and  C_15
REMARK    7  A    between atoms: C_18  and  O_19
REMARK    8  A    between atoms: C_24  and  C_25
REMARK                            x       y       z     vdW  Elec       q    Type
REMARK                         _______ _______ _______ _____ _____    ______ ____
ROOT
ATOM      9  C   UNL     1      -4.684   2.764  24.956  0.00  0.00    +0.120 C 
ATOM     10  C   UNL     1      -4.646   1.941  25.007  0.00  0.00    +0.154 C 
ATOM     23  O   UNL     1      -5.228   1.692  25.537  0.00  0.00    -0.350 OA
ATOM     24  C   UNL     1      -5.624   2.361  25.814  0.00  0.00    +0.180 C 
ATOM     27  C   UNL     1      -5.288   3.023  25.454  0.00  0.00    +0.198 C 
ATOM     28  O   UNL     1      -5.516   3.807  25.572  0.00  0.00    -0.219 OA
ENDROOT
BRANCH   9   8
ATOM      4  C   UNL     1      -3.506   3.613  24.729  0.00  0.00    +0.087 C 
ATOM      5  C   UNL     1      -3.205   4.034  24.087  0.00  0.00    +0.020 C 
ATOM      6  C   UNL     1      -3.715   3.925  23.449  0.00  0.00    +0.019 C 
ATOM      7  C   UNL     1      -4.332   3.435  23.697  0.00  0.00    +0.072 C 
ATOM      8  N   UNL     1      -4.202   3.243  24.488  0.00  0.00    -0.269 NA
BRANCH   4   3
ATOM      3  C   UNL     1      -3.169   3.569  25.481  0.00  0.00    +0.158 C 
BRANCH   3   2
ATOM      1  C   UNL     1      -2.049   3.797  26.341  0.00  0.00    +0.174 C 
ATOM      2  O   UNL     1      -2.448   3.943  25.633  0.00  0.00    -0.350 OA
ENDBRANCH   3   2
ENDBRANCH   4   3
ENDBRANCH   9   8
BRANCH  24  25
ATOM     25  C   UNL     1      -6.247   2.366  26.354  0.00  0.00    +0.214 C 
ATOM     26  O   UNL     1      -6.574   1.654  26.613  0.00  0.00    -0.218 OA
ENDBRANCH  24  25
BRANCH  10  11
ATOM     11  C   UNL     1      -4.120   1.453  24.599  0.00  0.00    +0.146 C 
BRANCH  11  12
ATOM     12  N   UNL     1      -4.150   0.636  24.707  0.00  0.00    -0.199 NA
ATOM     13  C   UNL     1      -3.594   0.151  24.336  0.00  0.00    +0.265 C 
ATOM     14  O   UNL     1      -3.010   0.485  23.857  0.00  0.00    -0.268 OA
BRANCH  13  15
ATOM     15  C   UNL     1      -3.622  -0.666  24.442  0.00  0.00    +0.055 A 
ATOM     16  C   UNL     1      -4.052  -1.136  23.918  0.00  0.00    +0.008 A 
ATOM     17  C   UNL     1      -4.080  -1.954  24.026  0.00  0.00    +0.037 A 
ATOM     18  C   UNL     1      -3.678  -2.301  24.656  0.00  0.00    +0.139 A 
ATOM     21  C   UNL     1      -3.248  -1.831  25.180  0.00  0.00    +0.037 A 
ATOM     22  C   UNL     1      -3.220  -1.013  25.073  0.00  0.00    +0.008 A 
BRANCH  18  19
ATOM     19  O   UNL     1      -3.705  -3.119  24.764  0.00  0.00    -0.471 OA
ATOM     20  C   UNL     1      -3.310  -3.617  24.238  0.00  0.00    +0.252 C 
ENDBRANCH  18  19
ENDBRANCH  13  15
ENDBRANCH  11  12
ENDBRANCH  10  11
TORSDOF 8
ENDMDL
MODEL 4
REMARK VINA RESULT:      -8.4      2.026      5.268
REMARK  Name = 
REMARK  8 active torsions:
REMARK  status: ('A' for Active; 'I' for Inactive)
REMARK    1  A    between atoms: O_2  and  C_3
REMARK    2  A    between atoms: C_3  and  C_4
REMARK    3  A    between atoms: N_8  and  C_9
REMARK    4  A    between atoms: C_10  and  C_11
REMARK    5  A    between atoms: C_11  and  N_12
REMARK    6  A    between atoms: C_13  and  C_15
REMARK    7  A    between atoms: C_18  and  O_19
REMARK    8  A    between atoms: C_24  and  C_25
REMARK                            x       y       z     vdW  Elec       q    Type
REMARK                         _______ _______ _______ _____ _____    ______ ____
ROOT
ATOM      9  C   UNL     1      -1.858  -0.693  24.958  0.00  0.00    +0.120 C 
ATOM     10  C   UNL     1      -1.811   0.095  24.719  0.00  0.00    +0.154 C 
ATOM     23  O   UNL     1      -1.129   0.182  24.262  0.00  0.00    -0.350 OA
ATOM     24  C   UNL     1      -0.755  -0.552  24.219  0.00  0.00    +0.180 C 
ATOM     27  C   UNL     1      -1.205  -1.093  24.649  0.00  0.00    +0.198 C 
ATOM     28  O   UNL     1      -1.034  -1.893  24.753  0.00  0.00    -0.219 OA
ENDROOT
BRANCH   9   8
ATOM      4  C   UNL     1      -3.132  -1.402  25.148  0.00  0.00    +0.087 C 
ATOM      5  C   UNL     1      -3.572  -1.645  25.802  0.00  0.00    +0.020 C 
ATOM      6  C   UNL     1      -3.166  -1.417  26.482  0.00  0.00    +0.019 C 
ATOM      7  C   UNL     1      -2.474  -1.032  26.248  0.00  0.00    +0.072 C 
ATOM      8  N   UNL     1      -2.453  -1.023  25.424  0.00  0.00    -0.269 NA
BRANCH   4   3
ATOM      3  C   UNL     1      -3.335  -1.517  24.356  0.00  0.00    +0.158 C 
BRANCH   3   2
ATOM      1  C   UNL     1      -4.212  -2.178  23.442  0.00  0.00    +0.174 C 
ATOM      2  O   UNL     1      -4.089  -1.789  24.159  0.00  0.00    -0.350 OA
ENDBRANCH   3   2
ENDBRANCH   4   3
ENDBRANCH   9   8
BRANCH  24  25
ATOM     25  C   UNL     1      -0.054  -0.717  23.817  0.00  0.00    +0.214 C 
ATOM     26  O   UNL     1       0.358  -0.108  23.441  0.00  0.00    -0.218 OA
ENDBRANCH  24  25
BRANCH  10  11
ATOM     11  C   UNL     1      -2.350   0.691  24.903  0.00  0.00    +0.146 C 
BRANCH  11  12
ATOM     12  N   UNL     1      -2.094   1.473  24.965  0.00  0.00    -0.199 NA
ATOM     13  C   UNL     1      -2.645   2.080  25.060  0.00  0.00    +0.265 C 
ATOM     14  O   UNL     1      -3.451   1.905  25.093  0.00  0.00    -0.268 OA
BRANCH  13  15
ATOM     15  C   UNL     1      -2.390   2.863  25.122  0.00  0.00    +0.055 A 
ATOM     16  C   UNL     1      -2.739   3.448  24.658  0.00  0.00    +0.008 A 
ATOM     17  C   UNL     1      -2.484   4.231  24.720  0.00  0.00    +0.037 A 
ATOM     18  C   UNL     1      -1.881   4.427  25.247  0.00  0.00    +0.139 A 
ATOM     21  C   UNL     1      -1.532   3.841  25.712  0.00  0.00    +0.037 A 
ATOM     22  C   UNL     1      -1.786   3.059  25.650  0.00  0.00    +0.008 A 
BRANCH  18  19
ATOM     19  O   UNL     1      -1.625   5.209  25.310  0.00  0.00    -0.471 OA
ATOM     20  C   UNL     1      -0.970   5.465  24.878  0.00  0.00    +0.252 C 
ENDBRANCH  18  19
ENDBRANCH  13  15
ENDBRANCH  11  12
ENDBRANCH  10  11
TORSDOF 8
ENDMDL
MODEL 5
REMARK VINA RESULT:      -8.4      2.242      2.938
REMARK  Name = 
REMARK  8 active torsions:
REMARK  status: ('A' for Active; 'I' for Inactive)
REMARK    1  A    between atoms: O_2  and  C_3
REMARK    2  A    between atoms: C_3  and  C_4
REMARK    3  A    between atoms: N_8  and  C_9
REMARK    4  A    between atoms: C_10  and  C_11
REMARK    5  A    between atoms: C_11  and  N_12
REMARK    6  A    between atoms: C_13  and  C_15
REMARK    7  A    between atoms: C_18  and  O_19
REMARK    8  A    between atoms: C_24  and  C_25
REMARK                            x       y       z     vdW  Elec       q    Type
REMARK                         _______ _______ _______ _____ _____    ______ ____
ROOT
ATOM      9  C   UNL     1      -1.655   2.359  25.078  0.00  0.00    +0.120 C 
ATOM     10  C   UNL     1      -2.086   1.661  24.991  0.00  0.00    +0.154 C 
ATOM     23  O   UNL     1      -2.725   1.816  24.493  0.00  0.00    -0.350 OA
ATOM     24  C   UNL     1      -2.689   2.610  24.271  0.00  0.00    +0.180 C 
ATOM     27  C   UNL     1      -2.027   2.946  24.632  0.00  0.00    +0.198 C 
ATOM     28  O   UNL     1      -1.781   3.730  24.561  0.00  0.00    -0.219 OA
ENDROOT
BRANCH   9   8
ATOM      4  C   UNL     1      -0.197   2.341  25.268  0.00  0.00    +0.087 C 
ATOM      5  C   UNL     1       0.310   2.496  25.899  0.00  0.00    +0.020 C 
ATOM      6  C   UNL     1      -0.149   2.704  26.551  0.00  0.00    +0.019 C 
ATOM      7  C   UNL     1      -0.942   2.678  26.322  0.00  0.00    +0.072 C 
ATOM      8  N   UNL     1      -0.971   2.454  25.530  0.00  0.00    -0.269 NA
BRANCH   4   3
ATOM      3  C   UNL     1       0.029   2.113  24.508  0.00  0.00    +0.158 C 
BRANCH   3   2
ATOM      1  C   UNL     1       1.045   1.588  23.650  0.00  0.00    +0.174 C 
ATOM      2  O   UNL     1       0.828   1.998  24.332  0.00  0.00    -0.350 OA
ENDBRANCH   3   2
ENDBRANCH   4   3
ENDBRANCH   9   8
BRANCH  24  25
ATOM     25  C   UNL     1      -3.220   3.000  23.775  0.00  0.00    +0.214 C 
ATOM     26  O   UNL     1      -4.007   2.752  23.738  0.00  0.00    -0.218 OA
ENDBRANCH  24  25
BRANCH  10  11
ATOM     11  C   UNL     1      -1.909   0.935  25.342  0.00  0.00    +0.146 C 
BRANCH  11  12
ATOM     12  N   UNL     1      -2.290   0.250  25.085  0.00  0.00    -0.199 NA
ATOM     13  C   UNL     1      -2.150  -0.467  25.467  0.00  0.00    +0.265 C 
ATOM     14  O   UNL     1      -1.628  -0.500  26.106  0.00  0.00    -0.268 OA
BRANCH  13  15
ATOM     15  C   UNL     1      -2.530  -1.153  25.211  0.00  0.00    +0.055 A 
ATOM     16  C   UNL     1      -2.145  -1.671  24.696  0.00  0.00    +0.008 A 
ATOM     17  C   UNL     1      -2.527  -2.356  24.440  0.00  0.00    +0.037 A 
ATOM     18  C   UNL     1      -3.291  -2.525  24.699  0.00  0.00    +0.139 A 
ATOM     21  C   UNL     1      -3.675  -2.007  25.214  0.00  0.00    +0.037 A 
ATOM     22  C   UNL     1      -3.295  -1.321  25.470  0.00  0.00    +0.008 A 
BRANCH  18  19
ATOM     19  O   UNL     1      -3.672  -3.211  24.444  0.00  0.00    -0.471 OA
ATOM     20  C   UNL     1      -4.230  -3.170  23.837  0.00  0.00    +0.252 C 
ENDBRANCH  18  19
ENDBRANCH  13  15
ENDBRANCH  11  12
ENDBRANCH  10  11
TORSDOF 8
ENDMDL
MODEL 6
REMARK VINA RESULT:      -8.3      2.728      3.221
REMARK  Name = 
REMARK  8 active torsions:
REMARK  status: ('A' for Active; 'I' for Inactive)
REMARK    1  A    between atoms: O_2  and  C_3
REMARK    2  A    between atoms: C_3  and  C_4
REMARK    3  A    between atoms: N_8  and  C_9
REMARK    4  A    between atoms: C_10  and  C_11
REMARK    5  A    between atoms: C_11  and  N_12
REMARK    6  A    between atoms: C_13  and  C_15
REMARK    7  A    between atoms: C_18  and  O_19
REMARK    8  A    between atoms: C_24  and  C_25
REMARK                            x       y       z     vdW  Elec       q    Type
REMARK                         _______ _______ _______ _____ _____    ______ ____
ROOT
ATOM      9  C   UNL     1      -0.354   1.819  24.348  0.00  0.00    +0.120 C 
ATOM     10  C   UNL     1      -0.827   1.146  24.287  0.00  0.00    +0.154 C 
ATOM     23  O   UNL     1      -0.376   0.549  23.938  0.00  0.00    -0.350 OA
ATOM     24  C   UNL     1       0.375   0.854  23.783  0.00  0.00    +0.180 C 
ATOM     27  C   UNL     1       0.389   1.639  24.037  0.00  0.00    +0.198 C 
ATOM     28  O   UNL     1       1.032   2.153  23.988  0.00  0.00    -0.219 OA
ENDROOT
BRANCH   9   8
ATOM      4  C   UNL     1      -0.454   2.800  25.438  0.00  0.00    +0.087 C 
ATOM      5  C   UNL     1      -0.773   3.557  25.514  0.00  0.00    +0.020 C 
ATOM      6  C   UNL     1      -1.100   3.770  24.788  0.00  0.00    +0.019 C 
ATOM      7  C   UNL     1      -0.983   3.144  24.262  0.00  0.00    +0.072 C 
ATOM      8  N   UNL     1      -0.584   2.546  24.664  0.00  0.00    -0.269 NA
BRANCH   4   3
ATOM      3  C   UNL     1      -0.072   2.373  26.032  0.00  0.00    +0.158 C 
BRANCH   3   2
ATOM      1  C   UNL     1       0.438   2.297  27.365  0.00  0.00    +0.174 C 
ATOM      2  O   UNL     1      -0.006   2.690  26.791  0.00  0.00    -0.350 OA
ENDBRANCH   3   2
ENDBRANCH   4   3
ENDBRANCH   9   8
BRANCH  24  25
ATOM     25  C   UNL     1       1.002   0.445  23.437  0.00  0.00    +0.214 C 
ATOM     26  O   UNL     1       0.865  -0.276  23.058  0.00  0.00    -0.218 OA
ENDBRANCH  24  25
BRANCH  10  11
ATOM     11  C   UNL     1      -1.612   1.081  24.532  0.00  0.00    +0.146 C 
BRANCH  11  12
ATOM     12  N   UNL     1      -2.028   0.380  24.400  0.00  0.00    -0.199 NA
ATOM     13  C   UNL     1      -2.798   0.299  24.683  0.00  0.00    +0.265 C 
ATOM     14  O   UNL     1      -3.153   0.918  25.098  0.00  0.00    -0.268 OA
BRANCH  13  15
ATOM     15  C   UNL     1      -3.215  -0.401  24.552  0.00  0.00    +0.055 A 
ATOM     16  C   UNL     1      -3.122  -1.039  25.067  0.00  0.00    +0.008 A 
ATOM     17  C   UNL     1      -3.539  -1.739  24.935  0.00  0.00    +0.037 A 
ATOM     18  C   UNL     1      -4.049  -1.800  24.290  0.00  0.00    +0.139 A 
ATOM     21  C   UNL     1      -4.142  -1.162  23.775  0.00  0.00    +0.037 A 
ATOM     22  C   UNL     1      -3.725  -0.462  23.906  0.00  0.00    +0.008 A 
BRANCH  18  19
ATOM     19  O   UNL     1      -4.466  -2.500  24.158  0.00  0.00    -0.471 OA
ATOM     20  C   UNL     1      -4.068  -3.173  23.894  0.00  0.00    +0.252 C 
ENDBRANCH  18  19
ENDBRANCH  13  15
ENDBRANCH  11  12
ENDBRANCH  10  11
TORSDOF 8
ENDMDL
MODEL 7
REMARK VINA RESULT:      -8.0      2.396      4.830
REMARK  Name = 
REMARK  8 active torsions:
REMARK  status: ('A' for Active; 'I' for Inactive)
REMARK    1  A    between atoms: O_2  and  C_3
REMARK    2  A    between atoms: C_3  and  C_4
REMARK    3  A    between atoms: N_8  and  C_9
REMARK    4  A    between atoms: C_10  and  C_11
REMARK    5  A    between atoms: C_11  and  N_12
REMARK    6  A    between atoms: C_13  and  C_15
REMARK    7  A    between atoms: C_18  and  O_19
REMARK    8  A    between atoms: C_24  and  C_25
REMARK                            x       y       z     vdW  Elec       q    Type
REMARK                         _______ _______ _______ _____ _____    ______ ____
ROOT
ATOM      9  C   UNL     1      -1.341   0.266  24.758  0.00  0.00    +0.120 C 
ATOM     10  C   UNL     1      -2.134   0.494  24.761  0.00  0.00    +0.154 C 
ATOM     23  O   UNL     1      -2.558  -0.064  25.196  0.00  0.00    -0.350 OA
ATOM     24  C   UNL     1      -2.027  -0.638  25.461  0.00  0.00    +0.180 C 
ATOM     27  C   UNL     1      -1.275  -0.434  25.190  0.00  0.00    +0.198 C 
ATOM     28  O   UNL     1      -0.580  -0.855  25.327  0.00  0.00    -0.219 OA
ENDROOT
BRANCH   9   8
ATOM      4  C   UNL     1      -0.252   1.252  24.727  0.00  0.00    +0.087 C 
ATOM      5  C   UNL     1       0.295   1.500  24.161  0.00  0.00    +0.020 C 
ATOM      6  C   UNL     1       0.162   1.068  23.472  0.00  0.00    +0.019 C 
ATOM      7  C   UNL     1      -0.468   0.552  23.611  0.00  0.00    +0.072 C 
ATOM      8  N   UNL     1      -0.723   0.667  24.387  0.00  0.00    -0.269 NA
BRANCH   4   3
ATOM      3  C   UNL     1      -0.316   1.540  25.497  0.00  0.00    +0.158 C 
BRANCH   3   2
ATOM      1  C   UNL     1       0.091   2.460  26.513  0.00  0.00    +0.174 C 
ATOM      2  O   UNL     1       0.173   2.155  25.751  0.00  0.00    -0.350 OA
ENDBRANCH   3   2
ENDBRANCH   4   3
ENDBRANCH   9   8
BRANCH  24  25
ATOM     25  C   UNL     1      -2.216  -1.299  25.916  0.00  0.00    +0.214 C 
ATOM     26  O   UNL     1      -2.998  -1.559  25.962  0.00  0.00    -0.218 OA
ENDBRANCH  24  25
BRANCH  10  11
ATOM     11  C   UNL     1      -2.447   1.164  24.395  0.00  0.00    +0.146 C 
BRANCH  11  12
ATOM     12  N   UNL     1      -3.064   1.579  24.753  0.00  0.00    -0.199 NA
ATOM     13  C   UNL     1      -3.508   2.117  24.314  0.00  0.00    +0.265 C 
ATOM     14  O   UNL     1      -3.337   2.240  23.516  0.00  0.00    -0.268 OA
BRANCH  13  15
ATOM     15  C   UNL     1      -4.124   2.533  24.671  0.00  0.00    +0.055 A 
ATOM     16  C   UNL     1      -3.994   3.293  24.965  0.00  0.00    +0.008 A 
ATOM     17  C   UNL     1      -4.612   3.708  25.322  0.00  0.00    +0.037 A 
ATOM     18  C   UNL     1      -5.358   3.364  25.386  0.00  0.00    +0.139 A 
ATOM     21  C   UNL     1      -5.488   2.604  25.092  0.00  0.00    +0.037 A 
ATOM     22  C   UNL     1      -4.872   2.188  24.735  0.00  0.00    +0.008 A 
BRANCH  18  19
ATOM     19  O   UNL     1      -5.975   3.779  25.743  0.00  0.00    -0.471 OA
ATOM     20  C   UNL     1      -6.045   4.593  25.629  0.00  0.00    +0.252 C 
ENDBRANCH  18  19
ENDBRANCH  13  15
ENDBRANCH  11  12
ENDBRANCH  10  11
TORSDOF 8
ENDMDL
