MODEL 1
REMARK VINA RESULT:      -9.7      0.000      0.000
REMARK  Name = 
REMARK  6 active torsions:
REMARK  status: ('A' for Active; 'I' for Inactive)
REMARK    1  A    between atoms: C_5  and  S_8
REMARK    2  A    between atoms: S_8  and  N_11
REMARK    3  A    between atoms: N_11  and  C_12
REMARK    4  A    between atoms: C_12  and  C_13
REMARK    5  A    between atoms: C_16  and  N_17
REMARK    6  A    between atoms: N_17  and  C_18
REMARK                            x       y       z     vdW  Elec       q    Type
REMARK                         _______ _______ _______ _____ _____    ______ ____
ROOT
ATOM     13  C   UNL     1      -2.657   0.788  24.916  0.00  0.00    +0.166 C 
ATOM     14  O   UNL     1      -2.097   0.188  24.839  0.00  0.00    -0.350 OA
ATOM     15  C   UNL     1      -2.484  -0.536  24.929  0.00  0.00    +0.162 C 
ATOM     16  C   UNL     1      -3.284  -0.382  25.062  0.00  0.00    +0.135 C 
ATOM     24  C   UNL     1      -3.391   0.436  25.054  0.00  0.00    +0.199 C 
ATOM     25  O   UNL     1      -4.106   0.832  25.164  0.00  0.00    -0.219 OA
ENDROOT
BRANCH  13  12
ATOM     12  C   UNL     1      -2.511   1.598  24.863  0.00  0.00    +0.148 C 
BRANCH  12  11
ATOM     11  N   UNL     1      -1.753   1.890  25.008  0.00  0.00    -0.075 NA
BRANCH  11   8
ATOM      8  S   UNL     1      -1.617   2.703  25.003  0.00  0.00    +0.077 S 
ATOM      9  O   UNL     1      -1.511   2.691  25.821  0.00  0.00    -0.152 OA
ATOM     10  O   UNL     1      -1.722   2.716  24.184  0.00  0.00    -0.152 OA
BRANCH   8   5
ATOM      1  C   UNL     1      -1.070   5.958  24.981  0.00  0.00    +0.031 C 
ATOM      2  C   UNL     1      -1.207   5.144  24.986  0.00  0.00    -0.022 A 
ATOM      3  C   UNL     1      -0.624   4.627  24.716  0.00  0.00    -0.003 A 
ATOM      4  C   UNL     1      -0.760   3.813  24.722  0.00  0.00    +0.020 A 
ATOM      5  C   UNL     1      -1.480   3.517  24.997  0.00  0.00    +0.124 A 
ATOM      6  C   UNL     1      -2.062   4.035  25.267  0.00  0.00    +0.020 A 
ATOM      7  C   UNL     1      -1.926   4.849  25.261  0.00  0.00    -0.003 A 
ENDBRANCH   8   5
ENDBRANCH  11   8
ENDBRANCH  12  11
ENDBRANCH  13  12
BRANCH  16  17
ATOM     17  N   UNL     1      -3.873  -0.947  25.183  0.00  0.00    -0.215 NA
BRANCH  17  18
ATOM     18  C   UNL     1      -3.839  -1.669  24.786  0.00  0.00    +0.078 C 
ATOM     19  C   UNL     1      -3.448  -2.310  25.127  0.00  0.00    +0.050 C 
ATOM     20  C   UNL     1      -3.414  -3.032  24.729  0.00  0.00    +0.144 C 
ATOM     21  O   UNL     1      -3.773  -3.113  23.991  0.00  0.00    -0.354 OA
ATOM     22  C   UNL     1      -4.165  -2.473  23.650  0.00  0.00    +0.144 C 
ATOM     23  C   UNL     1      -4.198  -1.751  24.047  0.00  0.00    +0.050 C 
ENDBRANCH  17  18
ENDBRANCH  16  17
TORSDOF 6
ENDMDL
MODEL 2
REMARK VINA RESULT:      -9.5      1.282      5.829
REMARK  Name = 
REMARK  6 active torsions:
REMARK  status: ('A' for Active; 'I' for Inactive)
REMARK    1  A    between atoms: C_5  and  S_8
REMARK    2  A    between atoms: S_8  and  N_11
REMARK    3  A    between atoms: N_11  and  C_12
REMARK    4  A    between atoms: C_12  and  C_13
REMARK    5  A    between atoms: C_16  and  N_17
REMARK    6  A    between atoms: N_17  and  C_18
REMARK                            x       y       z     vdW  Elec       q    Type
REMARK                         _______ _______ _______ _____ _____    ______ ____
ROOT
ATOM     13  C   UNL     1      -2.583   1.699  24.936  0.00  0.00    +0.166 C 
ATOM     14  O   UNL     1      -3.101   2.309  24.737  0.00  0.00    -0.350 OA
ATOM     15  C   UNL     1      -2.793   3.013  25.039  0.00  0.00    +0.162 C 
ATOM     16  C   UNL     1      -2.085   2.838  25.424  0.00  0.00    +0.135 C 
ATOM     24  C   UNL     1      -1.955   2.025  25.361  0.00  0.00    +0.199 C 
ATOM     25  O   UNL     1      -1.311   1.612  25.668  0.00  0.00    -0.219 OA
ENDROOT
BRANCH  13  12
ATOM     12  C   UNL     1      -2.676   0.902  24.744  0.00  0.00    +0.148 C 
BRANCH  12  11
ATOM     11  N   UNL     1      -3.431   0.579  24.678  0.00  0.00    -0.075 NA
BRANCH  11   8
ATOM      8  S   UNL     1      -3.526  -0.235  24.585  0.00  0.00    +0.077 S 
ATOM      9  O   UNL     1      -3.937  -0.269  25.299  0.00  0.00    -0.152 OA
ATOM     10  O   UNL     1      -3.114  -0.201  23.870  0.00  0.00    -0.152 OA
BRANCH   8   5
ATOM      1  C   UNL     1      -3.903  -3.492  24.213  0.00  0.00    +0.031 C 
ATOM      2  C   UNL     1      -3.809  -2.678  24.306  0.00  0.00    -0.022 A 
ATOM      3  C   UNL     1      -3.289  -2.386  24.877  0.00  0.00    -0.003 A 
ATOM      4  C   UNL     1      -3.195  -1.571  24.970  0.00  0.00    +0.020 A 
ATOM      5  C   UNL     1      -3.620  -1.049  24.492  0.00  0.00    +0.124 A 
ATOM      6  C   UNL     1      -4.139  -1.343  23.922  0.00  0.00    +0.020 A 
ATOM      7  C   UNL     1      -4.233  -2.157  23.829  0.00  0.00    -0.003 A 
ENDBRANCH   8   5
ENDBRANCH  11   8
ENDBRANCH  12  11
ENDBRANCH  13  12
BRANCH  16  17
ATOM     17  N   UNL     1      -1.594   3.379  25.806  0.00  0.00    -0.215 NA
BRANCH  17  18
ATOM     18  C   UNL     1      -1.397   4.090  25.436  0.00  0.00    +0.078 C 
ATOM     19  C   UNL     1      -0.712   4.142  24.979  0.00  0.00    +0.050 C 
ATOM     20  C   UNL     1      -0.515   4.853  24.610  0.00  0.00    +0.144 C 
ATOM     21  O   UNL     1      -1.004   5.512  24.697  0.00  0.00    -0.354 OA
ATOM     22  C   UNL     1      -1.689   5.460  25.154  0.00  0.00    +0.144 C 
ATOM     23  C   UNL     1      -1.885   4.749  25.524  0.00  0.00    +0.050 C 
ENDBRANCH  17  18
ENDBRANCH  16  17
TORSDOF 6
ENDMDL
MODEL 3
REMARK VINA RESULT:      -6.0     17.519     19.212
REMARK  Name = 
REMARK  6 active torsions:
REMARK  status: ('A' for Active; 'I' for Inactive)
REMARK    1  A    between atoms: C_5  and  S_8
REMARK    2  A    between atoms: S_8  and  N_11
REMARK    3  A    between atoms: N_11  and  C_12
REMARK    4  A    between atoms: C_12  and  C_13
REMARK    5  A    between atoms: C_16  and  N_17
REMARK    6  A    between atoms: N_17  and  C_18
REMARK                            x       y       z     vdW  Elec       q    Type
REMARK                         _______ _______ _______ _____ _____    ______ ____
ROOT
ATOM     13  C   UNL     1      13.979   8.177  19.676  0.00  0.00    +0.166 C 
ATOM     14  O   UNL     1      13.866   7.555  20.206  0.00  0.00    -0.350 OA
ATOM     15  C   UNL     1      14.569   7.447  20.625  0.00  0.00    +0.162 C 
ATOM     16  C   UNL     1      15.116   8.002  20.354  0.00  0.00    +0.135 C 
ATOM     24  C   UNL     1      14.751   8.454  19.767  0.00  0.00    +0.199 C 
ATOM     25  O   UNL     1      15.097   9.072  19.346  0.00  0.00    -0.219 OA
ENDROOT
BRANCH  13  12
ATOM     12  C   UNL     1      13.417   8.471  19.148  0.00  0.00    +0.148 C 
BRANCH  12  11
ATOM     11  N   UNL     1      12.835   7.972  18.845  0.00  0.00    -0.075 NA
BRANCH  11   8
ATOM      8  S   UNL     1      12.407   8.197  18.176  0.00  0.00    +0.077 S 
ATOM      9  O   UNL     1      11.997   8.754  18.626  0.00  0.00    -0.152 OA
ATOM     10  O   UNL     1      12.817   7.640  17.727  0.00  0.00    -0.152 OA
BRANCH   8   5
ATOM      1  C   UNL     1      10.694   9.094  15.502  0.00  0.00    +0.031 C 
ATOM      2  C   UNL     1      11.123   8.869  16.171  0.00  0.00    -0.022 A 
ATOM      3  C   UNL     1      10.757   8.431  16.766  0.00  0.00    -0.003 A 
ATOM      4  C   UNL     1      11.185   8.207  17.435  0.00  0.00    +0.020 A 
ATOM      5  C   UNL     1      11.979   8.421  17.508  0.00  0.00    +0.124 A 
ATOM      6  C   UNL     1      12.344   8.859  16.911  0.00  0.00    +0.020 A 
ATOM      7  C   UNL     1      11.915   9.083  16.243  0.00  0.00    -0.003 A 
ENDBRANCH   8   5
ENDBRANCH  11   8
ENDBRANCH  12  11
ENDBRANCH  13  12
BRANCH  16  17
ATOM     17  N   UNL     1      15.891   8.090  20.622  0.00  0.00    -0.215 NA
BRANCH  17  18
ATOM     18  C   UNL     1      16.379   7.430  20.698  0.00  0.00    +0.078 C 
ATOM     19  C   UNL     1      16.332   6.958  21.372  0.00  0.00    +0.050 C 
ATOM     20  C   UNL     1      16.821   6.297  21.448  0.00  0.00    +0.144 C 
ATOM     21  O   UNL     1      17.357   6.110  20.849  0.00  0.00    -0.354 OA
ATOM     22  C   UNL     1      17.403   6.582  20.175  0.00  0.00    +0.144 C 
ATOM     23  C   UNL     1      16.915   7.242  20.099  0.00  0.00    +0.050 C 
ENDBRANCH  17  18
ENDBRANCH  16  17
TORSDOF 6
ENDMDL
MODEL 4
REMARK VINA RESULT:      -5.7     14.046     16.206
REMARK  Name = 
REMARK  6 active torsions:
REMARK  status: ('A' for Active; 'I' for Inactive)
REMARK    1  A    between atoms: C_5  and  S_8
REMARK    2  A    between atoms: S_8  and  N_11
REMARK    3  A    between atoms: N_11  and  C_12
REMARK    4  A    between atoms: C_12  and  C_13
REMARK    5  A    between atoms: C_16  and  N_17
REMARK    6  A    between atoms: N_17  and  C_18
REMARK                            x       y       z     vdW  Elec       q    Type
REMARK                         _______ _______ _______ _____ _____    ______ ____
ROOT
ATOM     13  C   UNL     1      -5.051 -10.373  14.204  0.00  0.00    +0.166 C 
ATOM     14  O   UNL     1      -5.675 -10.142  13.716  0.00  0.00    -0.350 OA
ATOM     15  C   UNL     1      -5.408 -10.159  12.935  0.00  0.00    +0.162 C 
ATOM     16  C   UNL     1      -4.619 -10.400  12.940  0.00  0.00    +0.135 C 
ATOM     24  C   UNL     1      -4.398 -10.533  13.724  0.00  0.00    +0.199 C 
ATOM     25  O   UNL     1      -3.656 -10.781  13.983  0.00  0.00    -0.219 OA
ENDROOT
BRANCH  13  12
ATOM     12  C   UNL     1      -5.074 -10.434  15.026  0.00  0.00    +0.148 C 
BRANCH  12  11
ATOM     11  N   UNL     1      -5.669 -10.052  15.450  0.00  0.00    -0.075 NA
BRANCH  11   8
ATOM      8  S   UNL     1      -5.737 -10.172  16.264  0.00  0.00    +0.077 S 
ATOM      9  O   UNL     1      -5.197  -9.563  16.398  0.00  0.00    -0.152 OA
ATOM     10  O   UNL     1      -6.277 -10.781  16.129  0.00  0.00    -0.152 OA
BRANCH   8   5
ATOM      1  C   UNL     1      -6.008 -10.650  19.518  0.00  0.00    +0.031 C 
ATOM      2  C   UNL     1      -5.940 -10.530  18.704  0.00  0.00    -0.022 A 
ATOM      3  C   UNL     1      -6.601 -10.305  18.265  0.00  0.00    -0.003 A 
ATOM      4  C   UNL     1      -6.533 -10.185  17.451  0.00  0.00    +0.020 A 
ATOM      5  C   UNL     1      -5.805 -10.291  17.077  0.00  0.00    +0.124 A 
ATOM      6  C   UNL     1      -5.145 -10.516  17.518  0.00  0.00    +0.020 A 
ATOM      7  C   UNL     1      -5.213 -10.636  18.331  0.00  0.00    -0.003 A 
ENDBRANCH   8   5
ENDBRANCH  11   8
ENDBRANCH  12  11
ENDBRANCH  13  12
BRANCH  16  17
ATOM     17  N   UNL     1      -4.137 -10.493  12.278  0.00  0.00    -0.215 NA
BRANCH  17  18
ATOM     18  C   UNL     1      -4.399 -10.243  11.537  0.00  0.00    +0.078 C 
ATOM     19  C   UNL     1      -4.764 -10.778  11.027  0.00  0.00    +0.050 C 
ATOM     20  C   UNL     1      -5.027 -10.527  10.285  0.00  0.00    +0.144 C 
ATOM     21  O   UNL     1      -4.924  -9.742  10.055  0.00  0.00    -0.354 OA
ATOM     22  C   UNL     1      -4.559  -9.207  10.566  0.00  0.00    +0.144 C 
ATOM     23  C   UNL     1      -4.297  -9.457  11.307  0.00  0.00    +0.050 C 
ENDBRANCH  17  18
ENDBRANCH  16  17
TORSDOF 6
ENDMDL
