MODEL 1
REMARK VINA RESULT:     -10.3      0.000      0.000
REMARK  Name = 
REMARK  11 active torsions:
REMARK  status: ('A' for Active; 'I' for Inactive)
REMARK    1  A    between atoms: N_2  and  C_3
REMARK    2  A    between atoms: C_3  and  C_5
REMARK    3  A    between atoms: C_10  and  N_29
REMARK    4  A    between atoms: C_12  and  C_13
REMARK    5  A    between atoms: N_15  and  C_16
REMARK    6  A    between atoms: C_16  and  C_17
REMARK    7  A    between atoms: C_16  and  C_26
REMARK    8  A    between atoms: C_17  and  C_18
REMARK    9  A    between atoms: C_21  and  O_22
REMARK   10  A    between atoms: C_30  and  C_32
REMARK   11  A    between atoms: C_32  and  C_33
REMARK                            x       y       z     vdW  Elec       q    Type
REMARK                         _______ _______ _______ _____ _____    ______ ____
ROOT
ATOM      5  C   UNL     1       0.350   0.651  23.687  0.00  0.00    +0.242 C 
ATOM      6  O   UNL     1       0.334   1.475  23.700  0.00  0.00    -0.273 OA
ATOM      7  N   UNL     1      -0.133   0.220  24.199  0.00  0.00    -0.272 N 
ATOM      8  C   UNL     1      -0.117  -0.604  24.184  0.00  0.00    +0.096 C 
ATOM      9  C   UNL     1      -0.600  -1.035  24.697  0.00  0.00    +0.043 C 
ATOM     10  C   UNL     1      -1.099  -0.642  25.222  0.00  0.00    +0.099 C 
ATOM     11  C   UNL     1      -1.115   0.182  25.236  0.00  0.00    +0.051 C 
ATOM     12  C   UNL     1      -0.632   0.614  24.724  0.00  0.00    +0.155 C 
ENDROOT
BRANCH  12  13
ATOM     13  C   UNL     1      -0.649   1.439  24.738  0.00  0.00    +0.260 C 
ATOM     14  O   UNL     1       0.008   1.870  24.485  0.00  0.00    -0.272 OA
ATOM     15  N   UNL     1      -1.322   1.832  25.006  0.00  0.00    -0.196 NA
BRANCH  15  16
ATOM     16  C   UNL     1      -1.340   2.658  25.021  0.00  0.00    +0.179 C 
BRANCH  16  26
ATOM     26  C   UNL     1      -0.902   3.069  25.587  0.00  0.00    +0.281 C 
ATOM     27  N   UNL     1      -0.479   3.743  25.372  0.00  0.00    -0.086 NA
ATOM     28  O   UNL     1      -0.889   2.805  26.368  0.00  0.00    -0.270 OA
ENDBRANCH  16  26
BRANCH  16  17
ATOM     17  C   UNL     1      -1.794   3.070  24.471  0.00  0.00    +0.057 C 
BRANCH  17  18
ATOM     18  C   UNL     1      -2.617   3.013  24.489  0.00  0.00    -0.020 A 
ATOM     19  C   UNL     1      -3.036   3.317  25.131  0.00  0.00    -0.001 A 
ATOM     20  C   UNL     1      -3.860   3.260  25.149  0.00  0.00    +0.037 A 
ATOM     21  C   UNL     1      -4.263   2.900  24.526  0.00  0.00    +0.139 A 
ATOM     24  C   UNL     1      -3.842   2.596  23.884  0.00  0.00    +0.037 A 
ATOM     25  C   UNL     1      -3.019   2.653  23.866  0.00  0.00    -0.001 A 
BRANCH  21  22
ATOM     22  O   UNL     1      -5.085   2.843  24.544  0.00  0.00    -0.471 OA
ATOM     23  C   UNL     1      -5.446   2.191  24.901  0.00  0.00    +0.252 C 
ENDBRANCH  21  22
ENDBRANCH  17  18
ENDBRANCH  16  17
ENDBRANCH  15  16
ENDBRANCH  12  13
BRANCH  10  29
ATOM     29  N   UNL     1      -1.582  -1.073  25.734  0.00  0.00    -0.207 NA
ATOM     30  C   UNL     1      -2.292  -1.392  25.461  0.00  0.00    +0.246 C 
ATOM     31  O   UNL     1      -2.774  -1.822  25.972  0.00  0.00    -0.273 OA
BRANCH  30  32
ATOM     32  C   UNL     1      -2.519  -1.280  24.675  0.00  0.00    +0.120 C 
BRANCH  32  33
ATOM     33  C   UNL     1      -3.249  -1.562  24.412  0.00  0.00    +0.016 A 
ATOM     34  C   UNL     1      -3.912  -1.104  24.239  0.00  0.00    +0.003 A 
ATOM     35  C   UNL     1      -4.515  -1.612  23.996  0.00  0.00    +0.007 A 
ATOM     36  C   UNL     1      -4.225  -2.383  24.020  0.00  0.00    +0.035 A 
ATOM     37  S   UNL     1      -3.442  -2.353  24.277  0.00  0.00    -0.090 S 
ENDBRANCH  32  33
ENDBRANCH  30  32
ENDBRANCH  10  29
BRANCH   5   3
ATOM      3  C   UNL     1       0.849   0.258  23.161  0.00  0.00    +0.149 C 
ATOM      4  C   UNL     1       0.532  -0.153  22.521  0.00  0.00    +0.029 C 
BRANCH   3   2
ATOM      1  C   UNL     1       2.175   0.088  22.656  0.00  0.00    +0.108 C 
ATOM      2  N   UNL     1       1.666   0.276  23.277  0.00  0.00    -0.209 NA
ENDBRANCH   3   2
ENDBRANCH   5   3
TORSDOF 11
ENDMDL
MODEL 2
REMARK VINA RESULT:      -9.4      1.801      4.257
REMARK  Name = 
REMARK  11 active torsions:
REMARK  status: ('A' for Active; 'I' for Inactive)
REMARK    1  A    between atoms: N_2  and  C_3
REMARK    2  A    between atoms: C_3  and  C_5
REMARK    3  A    between atoms: C_10  and  N_29
REMARK    4  A    between atoms: C_12  and  C_13
REMARK    5  A    between atoms: N_15  and  C_16
REMARK    6  A    between atoms: C_16  and  C_17
REMARK    7  A    between atoms: C_16  and  C_26
REMARK    8  A    between atoms: C_17  and  C_18
REMARK    9  A    between atoms: C_21  and  O_22
REMARK   10  A    between atoms: C_30  and  C_32
REMARK   11  A    between atoms: C_32  and  C_33
REMARK                            x       y       z     vdW  Elec       q    Type
REMARK                         _______ _______ _______ _____ _____    ______ ____
ROOT
ATOM      5  C   UNL     1      -0.547   1.748  25.607  0.00  0.00    +0.242 C 
ATOM      6  O   UNL     1      -0.391   0.983  25.872  0.00  0.00    -0.273 OA
ATOM      7  N   UNL     1      -1.197   1.892  25.120  0.00  0.00    -0.272 N 
ATOM      8  C   UNL     1      -1.352   2.658  24.856  0.00  0.00    +0.096 C 
ATOM      9  C   UNL     1      -2.003   2.802  24.369  0.00  0.00    +0.043 C 
ATOM     10  C   UNL     1      -2.499   2.181  24.148  0.00  0.00    +0.099 C 
ATOM     11  C   UNL     1      -2.344   1.416  24.412  0.00  0.00    +0.051 C 
ATOM     12  C   UNL     1      -1.692   1.271  24.899  0.00  0.00    +0.155 C 
ENDROOT
BRANCH  12  13
ATOM     13  C   UNL     1      -1.538   0.505  25.164  0.00  0.00    +0.260 C 
ATOM     14  O   UNL     1      -1.330   0.374  25.952  0.00  0.00    -0.272 OA
ATOM     15  N   UNL     1      -1.591  -0.130  24.640  0.00  0.00    -0.196 NA
BRANCH  15  16
ATOM     16  C   UNL     1      -1.436  -0.897  24.904  0.00  0.00    +0.179 C 
BRANCH  16  26
ATOM     26  C   UNL     1      -0.723  -1.263  24.710  0.00  0.00    +0.281 C 
ATOM     27  N   UNL     1      -0.308  -1.688  25.283  0.00  0.00    -0.086 NA
ATOM     28  O   UNL     1      -0.426  -1.205  23.943  0.00  0.00    -0.270 OA
ENDBRANCH  16  26
BRANCH  16  17
ATOM     17  C   UNL     1      -1.994  -1.296  25.361  0.00  0.00    +0.057 C 
BRANCH  17  18
ATOM     18  C   UNL     1      -2.619  -1.693  24.997  0.00  0.00    -0.020 A 
ATOM     19  C   UNL     1      -3.378  -1.371  25.017  0.00  0.00    -0.001 A 
ATOM     20  C   UNL     1      -4.004  -1.768  24.652  0.00  0.00    +0.037 A 
ATOM     21  C   UNL     1      -3.869  -2.485  24.268  0.00  0.00    +0.139 A 
ATOM     24  C   UNL     1      -3.109  -2.806  24.249  0.00  0.00    +0.037 A 
ATOM     25  C   UNL     1      -2.484  -2.410  24.613  0.00  0.00    -0.001 A 
BRANCH  21  22
ATOM     22  O   UNL     1      -4.494  -2.881  23.904  0.00  0.00    -0.471 OA
ATOM     23  C   UNL     1      -4.736  -2.662  23.146  0.00  0.00    +0.252 C 
ENDBRANCH  21  22
ENDBRANCH  17  18
ENDBRANCH  16  17
ENDBRANCH  15  16
ENDBRANCH  12  13
BRANCH  10  29
ATOM     29  N   UNL     1      -3.149   2.326  23.662  0.00  0.00    -0.207 NA
ATOM     30  C   UNL     1      -3.890   2.470  23.995  0.00  0.00    +0.246 C 
ATOM     31  O   UNL     1      -4.540   2.614  23.509  0.00  0.00    -0.273 OA
BRANCH  30  32
ATOM     32  C   UNL     1      -3.980   2.469  24.816  0.00  0.00    +0.120 C 
BRANCH  32  33
ATOM     33  C   UNL     1      -4.735   2.483  25.148  0.00  0.00    +0.016 A 
ATOM     34  C   UNL     1      -5.258   1.847  25.189  0.00  0.00    +0.003 A 
ATOM     35  C   UNL     1      -5.946   2.107  25.564  0.00  0.00    +0.007 A 
ATOM     36  C   UNL     1      -5.847   2.903  25.754  0.00  0.00    +0.035 A 
ATOM     37  S   UNL     1      -5.099   3.136  25.497  0.00  0.00    -0.090 S 
ENDBRANCH  32  33
ENDBRANCH  30  32
ENDBRANCH  10  29
BRANCH   5   3
ATOM      3  C   UNL     1      -0.051   2.369  25.828  0.00  0.00    +0.149 C 
ATOM      4  C   UNL     1       0.477   2.690  25.283  0.00  0.00    +0.029 C 
BRANCH   3   2
ATOM      1  C   UNL     1       0.613   2.867  26.993  0.00  0.00    +0.108 C 
ATOM      2  N   UNL     1      -0.084   2.668  26.597  0.00  0.00    -0.209 NA
ENDBRANCH   3   2
ENDBRANCH   5   3
TORSDOF 11
ENDMDL
MODEL 3
REMARK VINA RESULT:      -9.2      1.756      3.686
REMARK  Name = 
REMARK  11 active torsions:
REMARK  status: ('A' for Active; 'I' for Inactive)
REMARK    1  A    between atoms: N_2  and  C_3
REMARK    2  A    between atoms: C_3  and  C_5
REMARK    3  A    between atoms: C_10  and  N_29
REMARK    4  A    between atoms: C_12  and  C_13
REMARK    5  A    between atoms: N_15  and  C_16
REMARK    6  A    between atoms: C_16  and  C_17
REMARK    7  A    between atoms: C_16  and  C_26
REMARK    8  A    between atoms: C_17  and  C_18
REMARK    9  A    between atoms: C_21  and  O_22
REMARK   10  A    between atoms: C_30  and  C_32
REMARK   11  A    between atoms: C_32  and  C_33
REMARK                            x       y       z     vdW  Elec       q    Type
REMARK                         _______ _______ _______ _____ _____    ______ ____
ROOT
ATOM      5  C   UNL     1      -0.308   0.057  23.777  0.00  0.00    +0.242 C 
ATOM      6  O   UNL     1      -0.906  -0.507  23.704  0.00  0.00    -0.273 OA
ATOM      7  N   UNL     1      -0.315   0.587  24.410  0.00  0.00    -0.272 N 
ATOM      8  C   UNL     1       0.282   1.150  24.482  0.00  0.00    +0.096 C 
ATOM      9  C   UNL     1       0.275   1.680  25.115  0.00  0.00    +0.043 C 
ATOM     10  C   UNL     1      -0.330   1.646  25.674  0.00  0.00    +0.099 C 
ATOM     11  C   UNL     1      -0.927   1.083  25.602  0.00  0.00    +0.051 C 
ATOM     12  C   UNL     1      -0.920   0.553  24.969  0.00  0.00    +0.155 C 
ENDROOT
BRANCH  12  13
ATOM     13  C   UNL     1      -1.518  -0.011  24.897  0.00  0.00    +0.260 C 
ATOM     14  O   UNL     1      -1.349  -0.757  24.586  0.00  0.00    -0.272 OA
ATOM     15  N   UNL     1      -2.287   0.171  25.135  0.00  0.00    -0.196 NA
BRANCH  15  16
ATOM     16  C   UNL     1      -2.886  -0.392  25.063  0.00  0.00    +0.179 C 
BRANCH  16  26
ATOM     26  C   UNL     1      -2.880  -1.064  25.543  0.00  0.00    +0.281 C 
ATOM     27  N   UNL     1      -3.018  -1.807  25.214  0.00  0.00    -0.086 NA
ATOM     28  O   UNL     1      -2.736  -0.990  26.352  0.00  0.00    -0.270 OA
ENDBRANCH  16  26
BRANCH  16  17
ATOM     17  C   UNL     1      -3.490  -0.284  24.513  0.00  0.00    +0.057 C 
BRANCH  17  18
ATOM     18  C   UNL     1      -4.009   0.352  24.589  0.00  0.00    -0.020 A 
ATOM     19  C   UNL     1      -4.591   0.341  25.172  0.00  0.00    -0.001 A 
ATOM     20  C   UNL     1      -5.111   0.978  25.249  0.00  0.00    +0.037 A 
ATOM     21  C   UNL     1      -5.047   1.626  24.741  0.00  0.00    +0.139 A 
ATOM     24  C   UNL     1      -4.463   1.636  24.158  0.00  0.00    +0.037 A 
ATOM     25  C   UNL     1      -3.944   1.000  24.082  0.00  0.00    -0.001 A 
BRANCH  21  22
ATOM     22  O   UNL     1      -5.566   2.262  24.818  0.00  0.00    -0.471 OA
ATOM     23  C   UNL     1      -5.578   2.703  25.516  0.00  0.00    +0.252 C 
ENDBRANCH  21  22
ENDBRANCH  17  18
ENDBRANCH  16  17
ENDBRANCH  15  16
ENDBRANCH  12  13
BRANCH  10  29
ATOM     29  N   UNL     1      -0.337   2.176  26.307  0.00  0.00    -0.207 NA
ATOM     30  C   UNL     1      -0.668   2.926  26.214  0.00  0.00    +0.246 C 
ATOM     31  O   UNL     1      -0.676   3.455  26.845  0.00  0.00    -0.273 OA
BRANCH  30  32
ATOM     32  C   UNL     1      -0.993   3.146  25.487  0.00  0.00    +0.120 C 
BRANCH  32  33
ATOM     33  C   UNL     1      -1.386   3.868  25.412  0.00  0.00    +0.016 A 
ATOM     34  C   UNL     1      -2.160   4.025  25.647  0.00  0.00    +0.003 A 
ATOM     35  C   UNL     1      -2.325   4.813  25.469  0.00  0.00    +0.007 A 
ATOM     36  C   UNL     1      -1.652   5.143  25.125  0.00  0.00    +0.035 A 
ATOM     37  S   UNL     1      -1.071   4.559  25.089  0.00  0.00    -0.090 S 
ENDBRANCH  32  33
ENDBRANCH  30  32
ENDBRANCH  10  29
BRANCH   5   3
ATOM      3  C   UNL     1       0.297   0.090  23.217  0.00  0.00    +0.149 C 
ATOM      4  C   UNL     1       0.232   0.595  22.570  0.00  0.00    +0.029 C 
BRANCH   3   2
ATOM      1  C   UNL     1       1.511  -0.449  22.689  0.00  0.00    +0.108 C 
ATOM      2  N   UNL     1       0.968  -0.383  23.307  0.00  0.00    -0.209 NA
ENDBRANCH   3   2
ENDBRANCH   5   3
TORSDOF 11
ENDMDL
MODEL 4
REMARK VINA RESULT:      -9.1      1.653      4.076
REMARK  Name = 
REMARK  11 active torsions:
REMARK  status: ('A' for Active; 'I' for Inactive)
REMARK    1  A    between atoms: N_2  and  C_3
REMARK    2  A    between atoms: C_3  and  C_5
REMARK    3  A    between atoms: C_10  and  N_29
REMARK    4  A    between atoms: C_12  and  C_13
REMARK    5  A    between atoms: N_15  and  C_16
REMARK    6  A    between atoms: C_16  and  C_17
REMARK    7  A    between atoms: C_16  and  C_26
REMARK    8  A    between atoms: C_17  and  C_18
REMARK    9  A    between atoms: C_21  and  O_22
REMARK   10  A    between atoms: C_30  and  C_32
REMARK   11  A    between atoms: C_32  and  C_33
REMARK                            x       y       z     vdW  Elec       q    Type
REMARK                         _______ _______ _______ _____ _____    ______ ____
ROOT
ATOM      5  C   UNL     1      -2.605  -1.114  24.845  0.00  0.00    +0.242 C 
ATOM      6  O   UNL     1      -1.797  -1.081  25.005  0.00  0.00    -0.273 OA
ATOM      7  N   UNL     1      -2.988  -0.460  24.517  0.00  0.00    -0.272 N 
ATOM      8  C   UNL     1      -3.796  -0.493  24.357  0.00  0.00    +0.096 C 
ATOM      9  C   UNL     1      -4.179   0.162  24.030  0.00  0.00    +0.043 C 
ATOM     10  C   UNL     1      -3.753   0.848  23.863  0.00  0.00    +0.099 C 
ATOM     11  C   UNL     1      -2.945   0.880  24.023  0.00  0.00    +0.051 C 
ATOM     12  C   UNL     1      -2.562   0.226  24.351  0.00  0.00    +0.155 C 
ENDROOT
BRANCH  12  13
ATOM     13  C   UNL     1      -1.753   0.259  24.510  0.00  0.00    +0.260 C 
ATOM     14  O   UNL     1      -1.417  -0.261  25.056  0.00  0.00    -0.272 OA
ATOM     15  N   UNL     1      -1.279   0.813  24.124  0.00  0.00    -0.196 NA
BRANCH  15  16
ATOM     16  C   UNL     1      -0.470   0.847  24.284  0.00  0.00    +0.179 C 
BRANCH  16  26
ATOM     26  C   UNL     1       0.065   0.466  23.784  0.00  0.00    +0.281 C 
ATOM     27  N   UNL     1       0.682   0.021  24.103  0.00  0.00    -0.086 NA
ATOM     28  O   UNL     1      -0.019   0.530  22.966  0.00  0.00    -0.270 OA
ENDBRANCH  16  26
BRANCH  16  17
ATOM     17  C   UNL     1      -0.196   1.262  24.941  0.00  0.00    +0.057 C 
BRANCH  17  18
ATOM     18  C   UNL     1      -0.277   2.082  24.975  0.00  0.00    -0.020 A 
ATOM     19  C   UNL     1      -0.501   2.445  25.681  0.00  0.00    -0.001 A 
ATOM     20  C   UNL     1      -0.582   3.266  25.716  0.00  0.00    +0.037 A 
ATOM     21  C   UNL     1      -0.439   3.723  25.044  0.00  0.00    +0.139 A 
ATOM     24  C   UNL     1      -0.214   3.359  24.338  0.00  0.00    +0.037 A 
ATOM     25  C   UNL     1      -0.133   2.539  24.303  0.00  0.00    -0.001 A 
BRANCH  21  22
ATOM     22  O   UNL     1      -0.519   4.543  25.079  0.00  0.00    -0.471 OA
ATOM     23  C   UNL     1      -1.272   4.883  25.105  0.00  0.00    +0.252 C 
ENDBRANCH  21  22
ENDBRANCH  17  18
ENDBRANCH  16  17
ENDBRANCH  15  16
ENDBRANCH  12  13
BRANCH  10  29
ATOM     29  N   UNL     1      -4.135   1.501  23.536  0.00  0.00    -0.207 NA
ATOM     30  C   UNL     1      -4.447   2.086  24.027  0.00  0.00    +0.246 C 
ATOM     31  O   UNL     1      -4.829   2.739  23.700  0.00  0.00    -0.273 OA
BRANCH  30  32
ATOM     32  C   UNL     1      -4.377   2.016  24.847  0.00  0.00    +0.120 C 
BRANCH  32  33
ATOM     33  C   UNL     1      -4.669   2.612  25.338  0.00  0.00    +0.016 A 
ATOM     34  C   UNL     1      -4.257   3.280  25.588  0.00  0.00    +0.003 A 
ATOM     35  C   UNL     1      -4.759   3.724  26.069  0.00  0.00    +0.007 A 
ATOM     36  C   UNL     1      -5.481   3.329  26.117  0.00  0.00    +0.035 A 
ATOM     37  S   UNL     1      -5.426   2.641  25.665  0.00  0.00    -0.090 S 
ENDBRANCH  32  33
ENDBRANCH  30  32
ENDBRANCH  10  29
BRANCH   5   3
ATOM      3  C   UNL     1      -3.031  -1.800  25.012  0.00  0.00    +0.149 C 
ATOM      4  C   UNL     1      -3.424  -1.877  25.732  0.00  0.00    +0.029 C 
BRANCH   3   2
ATOM      1  C   UNL     1      -3.298  -3.167  24.688  0.00  0.00    +0.108 C 
ATOM      2  N   UNL     1      -3.063  -2.411  24.457  0.00  0.00    -0.209 NA
ENDBRANCH   3   2
ENDBRANCH   5   3
TORSDOF 11
ENDMDL
MODEL 5
REMARK VINA RESULT:      -8.9      2.080      5.616
REMARK  Name = 
REMARK  11 active torsions:
REMARK  status: ('A' for Active; 'I' for Inactive)
REMARK    1  A    between atoms: N_2  and  C_3
REMARK    2  A    between atoms: C_3  and  C_5
REMARK    3  A    between atoms: C_10  and  N_29
REMARK    4  A    between atoms: C_12  and  C_13
REMARK    5  A    between atoms: N_15  and  C_16
REMARK    6  A    between atoms: C_16  and  C_17
REMARK    7  A    between atoms: C_16  and  C_26
REMARK    8  A    between atoms: C_17  and  C_18
REMARK    9  A    between atoms: C_21  and  O_22
REMARK   10  A    between atoms: C_30  and  C_32
REMARK   11  A    between atoms: C_32  and  C_33
REMARK                            x       y       z     vdW  Elec       q    Type
REMARK                         _______ _______ _______ _____ _____    ______ ____
ROOT
ATOM      5  C   UNL     1      -5.195   1.394  25.058  0.00  0.00    +0.242 C 
ATOM      6  O   UNL     1      -5.306   0.592  25.215  0.00  0.00    -0.273 OA
ATOM      7  N   UNL     1      -4.514   1.647  24.667  0.00  0.00    -0.272 N 
ATOM      8  C   UNL     1      -4.404   2.449  24.510  0.00  0.00    +0.096 C 
ATOM      9  C   UNL     1      -3.722   2.703  24.118  0.00  0.00    +0.043 C 
ATOM     10  C   UNL     1      -3.153   2.154  23.883  0.00  0.00    +0.099 C 
ATOM     11  C   UNL     1      -3.264   1.353  24.040  0.00  0.00    +0.051 C 
ATOM     12  C   UNL     1      -3.945   1.099  24.432  0.00  0.00    +0.155 C 
ENDROOT
BRANCH  12  13
ATOM     13  C   UNL     1      -4.056   0.296  24.589  0.00  0.00    +0.260 C 
ATOM     14  O   UNL     1      -4.652   0.053  25.105  0.00  0.00    -0.272 OA
ATOM     15  N   UNL     1      -3.569  -0.265  24.229  0.00  0.00    -0.196 NA
BRANCH  15  16
ATOM     16  C   UNL     1      -3.679  -1.068  24.385  0.00  0.00    +0.179 C 
BRANCH  16  26
ATOM     26  C   UNL     1      -4.121  -1.532  23.866  0.00  0.00    +0.281 C 
ATOM     27  N   UNL     1      -4.596  -2.140  24.157  0.00  0.00    -0.086 NA
ATOM     28  O   UNL     1      -4.087  -1.387  23.054  0.00  0.00    -0.270 OA
ENDBRANCH  16  26
BRANCH  16  17
ATOM     17  C   UNL     1      -3.347  -1.406  25.060  0.00  0.00    +0.057 C 
BRANCH  17  18
ATOM     18  C   UNL     1      -2.530  -1.501  25.114  0.00  0.00    -0.020 A 
ATOM     19  C   UNL     1      -2.135  -1.982  24.573  0.00  0.00    -0.001 A 
ATOM     20  C   UNL     1      -1.317  -2.078  24.627  0.00  0.00    +0.037 A 
ATOM     21  C   UNL     1      -0.895  -1.693  25.222  0.00  0.00    +0.139 A 
ATOM     24  C   UNL     1      -1.291  -1.212  25.764  0.00  0.00    +0.037 A 
ATOM     25  C   UNL     1      -2.108  -1.116  25.710  0.00  0.00    -0.001 A 
BRANCH  21  22
ATOM     22  O   UNL     1      -0.078  -1.789  25.276  0.00  0.00    -0.471 OA
ATOM     23  C   UNL     1       0.413  -1.494  24.681  0.00  0.00    +0.252 C 
ENDBRANCH  21  22
ENDBRANCH  17  18
ENDBRANCH  16  17
ENDBRANCH  15  16
ENDBRANCH  12  13
BRANCH  10  29
ATOM     29  N   UNL     1      -2.473   2.408  23.492  0.00  0.00    -0.207 NA
ATOM     30  C   UNL     1      -1.784   2.563  23.919  0.00  0.00    +0.246 C 
ATOM     31  O   UNL     1      -1.105   2.816  23.527  0.00  0.00    -0.273 OA
BRANCH  30  32
ATOM     32  C   UNL     1      -1.777   2.465  24.738  0.00  0.00    +0.120 C 
BRANCH  32  33
ATOM     33  C   UNL     1      -1.062   2.494  25.151  0.00  0.00    +0.016 A 
ATOM     34  C   UNL     1      -0.392   2.040  24.993  0.00  0.00    +0.003 A 
ATOM     35  C   UNL     1       0.191   2.249  25.538  0.00  0.00    +0.007 A 
ATOM     36  C   UNL     1      -0.119   2.832  26.032  0.00  0.00    +0.035 A 
ATOM     37  S   UNL     1      -0.894   2.984  25.793  0.00  0.00    -0.090 S 
ENDBRANCH  32  33
ENDBRANCH  30  32
ENDBRANCH  10  29
BRANCH   5   3
ATOM      3  C   UNL     1      -5.765   1.942  25.293  0.00  0.00    +0.149 C 
ATOM      4  C   UNL     1      -6.391   2.127  24.791  0.00  0.00    +0.029 C 
BRANCH   3   2
ATOM      1  C   UNL     1      -6.390   2.485  26.458  0.00  0.00    +0.108 C 
ATOM      2  N   UNL     1      -5.707   2.306  26.032  0.00  0.00    -0.209 NA
ENDBRANCH   3   2
ENDBRANCH   5   3
TORSDOF 11
ENDMDL
MODEL 6
REMARK VINA RESULT:      -8.7      1.895      4.250
REMARK  Name = 
REMARK  11 active torsions:
REMARK  status: ('A' for Active; 'I' for Inactive)
REMARK    1  A    between atoms: N_2  and  C_3
REMARK    2  A    between atoms: C_3  and  C_5
REMARK    3  A    between atoms: C_10  and  N_29
REMARK    4  A    between atoms: C_12  and  C_13
REMARK    5  A    between atoms: N_15  and  C_16
REMARK    6  A    between atoms: C_16  and  C_17
REMARK    7  A    between atoms: C_16  and  C_26
REMARK    8  A    between atoms: C_17  and  C_18
REMARK    9  A    between atoms: C_21  and  O_22
REMARK   10  A    between atoms: C_30  and  C_32
REMARK   11  A    between atoms: C_32  and  C_33
REMARK                            x       y       z     vdW  Elec       q    Type
REMARK                         _______ _______ _______ _____ _____    ______ ____
ROOT
ATOM      5  C   UNL     1      -4.809   1.871  24.713  0.00  0.00    +0.242 C 
ATOM      6  O   UNL     1      -4.447   2.482  24.293  0.00  0.00    -0.273 OA
ATOM      7  N   UNL     1      -4.548   1.094  24.619  0.00  0.00    -0.272 N 
ATOM      8  C   UNL     1      -4.910   0.484  25.038  0.00  0.00    +0.096 C 
ATOM      9  C   UNL     1      -4.648  -0.294  24.944  0.00  0.00    +0.043 C 
ATOM     10  C   UNL     1      -4.025  -0.459  24.431  0.00  0.00    +0.099 C 
ATOM     11  C   UNL     1      -3.663   0.151  24.011  0.00  0.00    +0.051 C 
ATOM     12  C   UNL     1      -3.925   0.929  24.105  0.00  0.00    +0.155 C 
ENDROOT
BRANCH  12  13
ATOM     13  C   UNL     1      -3.562   1.539  23.685  0.00  0.00    +0.260 C 
ATOM     14  O   UNL     1      -4.019   2.073  23.253  0.00  0.00    -0.272 OA
ATOM     15  N   UNL     1      -2.740   1.616  23.696  0.00  0.00    -0.196 NA
BRANCH  15  16
ATOM     16  C   UNL     1      -2.377   2.226  23.276  0.00  0.00    +0.179 C 
BRANCH  16  26
ATOM     26  C   UNL     1      -2.337   2.193  22.453  0.00  0.00    +0.281 C 
ATOM     27  N   UNL     1      -2.594   2.833  22.000  0.00  0.00    -0.086 NA
ATOM     28  O   UNL     1      -2.040   1.518  22.083  0.00  0.00    -0.270 OA
ENDBRANCH  16  26
BRANCH  16  17
ATOM     17  C   UNL     1      -2.054   2.869  23.679  0.00  0.00    +0.057 C 
BRANCH  17  18
ATOM     18  C   UNL     1      -1.431   2.754  24.207  0.00  0.00    -0.020 A 
ATOM     19  C   UNL     1      -0.736   2.390  23.951  0.00  0.00    -0.001 A 
ATOM     20  C   UNL     1      -0.112   2.275  24.479  0.00  0.00    +0.037 A 
ATOM     21  C   UNL     1      -0.184   2.525  25.262  0.00  0.00    +0.139 A 
ATOM     24  C   UNL     1      -0.879   2.889  25.517  0.00  0.00    +0.037 A 
ATOM     25  C   UNL     1      -1.502   3.004  24.990  0.00  0.00    -0.001 A 
BRANCH  21  22
ATOM     22  O   UNL     1       0.440   2.410  25.790  0.00  0.00    -0.471 OA
ATOM     23  C   UNL     1       0.295   2.394  26.603  0.00  0.00    +0.252 C 
ENDBRANCH  21  22
ENDBRANCH  17  18
ENDBRANCH  16  17
ENDBRANCH  15  16
ENDBRANCH  12  13
BRANCH  10  29
ATOM     29  N   UNL     1      -3.763  -1.236  24.337  0.00  0.00    -0.207 NA
ATOM     30  C   UNL     1      -3.059  -1.480  24.690  0.00  0.00    +0.246 C 
ATOM     31  O   UNL     1      -2.798  -2.256  24.596  0.00  0.00    -0.273 OA
BRANCH  30  32
ATOM     32  C   UNL     1      -2.615  -0.947  25.137  0.00  0.00    +0.120 C 
BRANCH  32  33
ATOM     33  C   UNL     1      -1.818  -1.097  25.288  0.00  0.00    +0.016 A 
ATOM     34  C   UNL     1      -1.257  -1.338  24.733  0.00  0.00    +0.003 A 
ATOM     35  C   UNL     1      -0.535  -1.423  25.122  0.00  0.00    +0.007 A 
ATOM     36  C   UNL     1      -0.649  -1.235  25.917  0.00  0.00    +0.035 A 
ATOM     37  S   UNL     1      -1.443  -1.033  26.019  0.00  0.00    -0.090 S 
ENDBRANCH  32  33
ENDBRANCH  30  32
ENDBRANCH  10  29
BRANCH   5   3
ATOM      3  C   UNL     1      -5.433   2.038  25.226  0.00  0.00    +0.149 C 
ATOM      4  C   UNL     1      -6.203   1.827  25.023  0.00  0.00    +0.029 C 
BRANCH   3   2
ATOM      1  C   UNL     1      -5.818   2.975  26.235  0.00  0.00    +0.108 C 
ATOM      2  N   UNL     1      -5.285   2.416  25.945  0.00  0.00    -0.209 NA
ENDBRANCH   3   2
ENDBRANCH   5   3
TORSDOF 11
ENDMDL
MODEL 7
REMARK VINA RESULT:      -8.5      1.422      2.350
REMARK  Name = 
REMARK  11 active torsions:
REMARK  status: ('A' for Active; 'I' for Inactive)
REMARK    1  A    between atoms: N_2  and  C_3
REMARK    2  A    between atoms: C_3  and  C_5
REMARK    3  A    between atoms: C_10  and  N_29
REMARK    4  A    between atoms: C_12  and  C_13
REMARK    5  A    between atoms: N_15  and  C_16
REMARK    6  A    between atoms: C_16  and  C_17
REMARK    7  A    between atoms: C_16  and  C_26
REMARK    8  A    between atoms: C_17  and  C_18
REMARK    9  A    between atoms: C_21  and  O_22
REMARK   10  A    between atoms: C_30  and  C_32
REMARK   11  A    between atoms: C_32  and  C_33
REMARK                            x       y       z     vdW  Elec       q    Type
REMARK                         _______ _______ _______ _____ _____    ______ ____
ROOT
ATOM      5  C   UNL     1      -0.861   2.047  25.310  0.00  0.00    +0.242 C 
ATOM      6  O   UNL     1      -1.285   2.631  24.910  0.00  0.00    -0.273 OA
ATOM      7  N   UNL     1      -0.843   1.276  25.018  0.00  0.00    -0.272 N 
ATOM      8  C   UNL     1      -0.419   0.693  25.418  0.00  0.00    +0.096 C 
ATOM      9  C   UNL     1      -0.401  -0.079  25.125  0.00  0.00    +0.043 C 
ATOM     10  C   UNL     1      -0.806  -0.266  24.432  0.00  0.00    +0.099 C 
ATOM     11  C   UNL     1      -1.230   0.316  24.032  0.00  0.00    +0.051 C 
ATOM     12  C   UNL     1      -1.248   1.088  24.325  0.00  0.00    +0.155 C 
ENDROOT
BRANCH  12  13
ATOM     13  C   UNL     1      -1.672   1.671  23.923  0.00  0.00    +0.260 C 
ATOM     14  O   UNL     1      -1.284   2.338  23.631  0.00  0.00    -0.272 OA
ATOM     15  N   UNL     1      -2.486   1.587  23.814  0.00  0.00    -0.196 NA
BRANCH  15  16
ATOM     16  C   UNL     1      -2.911   2.170  23.413  0.00  0.00    +0.179 C 
BRANCH  16  26
ATOM     26  C   UNL     1      -2.921   2.178  22.588  0.00  0.00    +0.281 C 
ATOM     27  N   UNL     1      -2.920   2.896  22.181  0.00  0.00    -0.086 NA
ATOM     28  O   UNL     1      -2.933   1.466  22.170  0.00  0.00    -0.270 OA
ENDBRANCH  16  26
BRANCH  16  17
ATOM     17  C   UNL     1      -3.324   2.744  23.836  0.00  0.00    +0.057 C 
BRANCH  17  18
ATOM     18  C   UNL     1      -4.016   2.543  24.237  0.00  0.00    -0.020 A 
ATOM     19  C   UNL     1      -4.368   3.087  24.748  0.00  0.00    -0.001 A 
ATOM     20  C   UNL     1      -5.061   2.886  25.149  0.00  0.00    +0.037 A 
ATOM     21  C   UNL     1      -5.400   2.142  25.040  0.00  0.00    +0.139 A 
ATOM     24  C   UNL     1      -5.047   1.599  24.529  0.00  0.00    +0.037 A 
ATOM     25  C   UNL     1      -4.355   1.799  24.128  0.00  0.00    -0.001 A 
BRANCH  21  22
ATOM     22  O   UNL     1      -6.092   1.942  25.442  0.00  0.00    -0.471 OA
ATOM     23  C   UNL     1      -6.169   2.119  26.245  0.00  0.00    +0.252 C 
ENDBRANCH  21  22
ENDBRANCH  17  18
ENDBRANCH  16  17
ENDBRANCH  15  16
ENDBRANCH  12  13
BRANCH  10  29
ATOM     29  N   UNL     1      -0.788  -1.038  24.140  0.00  0.00    -0.207 NA
ATOM     30  C   UNL     1      -1.413  -1.553  24.295  0.00  0.00    +0.246 C 
ATOM     31  O   UNL     1      -1.394  -2.324  24.003  0.00  0.00    -0.273 OA
BRANCH  30  32
ATOM     32  C   UNL     1      -2.056  -1.297  24.745  0.00  0.00    +0.120 C 
BRANCH  32  33
ATOM     33  C   UNL     1      -2.744  -1.753  24.777  0.00  0.00    +0.016 A 
ATOM     34  C   UNL     1      -3.343  -1.768  24.210  0.00  0.00    +0.003 A 
ATOM     35  C   UNL     1      -3.921  -2.297  24.465  0.00  0.00    +0.007 A 
ATOM     36  C   UNL     1      -3.681  -2.609  25.189  0.00  0.00    +0.035 A 
ATOM     37  S   UNL     1      -2.953  -2.272  25.382  0.00  0.00    -0.090 S 
ENDBRANCH  32  33
ENDBRANCH  30  32
ENDBRANCH  10  29
BRANCH   5   3
ATOM      3  C   UNL     1      -0.456   2.235  26.004  0.00  0.00    +0.149 C 
ATOM      4  C   UNL     1      -0.842   2.198  26.731  0.00  0.00    +0.029 C 
BRANCH   3   2
ATOM      1  C   UNL     1       0.694   2.819  26.621  0.00  0.00    +0.108 C 
ATOM      2  N   UNL     1       0.338   2.462  25.969  0.00  0.00    -0.209 NA
ENDBRANCH   3   2
ENDBRANCH   5   3
TORSDOF 11
ENDMDL
MODEL 8
REMARK VINA RESULT:      -8.2      1.857      4.023
REMARK  Name = 
REMARK  11 active torsions:
REMARK  status: ('A' for Active; 'I' for Inactive)
REMARK    1  A    between atoms: N_2  and  C_3
REMARK    2  A    between atoms: C_3  and  C_5
REMARK    3  A    between atoms: C_10  and  N_29
REMARK    4  A    between atoms: C_12  and  C_13
REMARK    5  A    between atoms: N_15  and  C_16
REMARK    6  A    between atoms: C_16  and  C_17
REMARK    7  A    between atoms: C_16  and  C_26
REMARK    8  A    between atoms: C_17  and  C_18
REMARK    9  A    between atoms: C_21  and  O_22
REMARK   10  A    between atoms: C_30  and  C_32
REMARK   11  A    between atoms: C_32  and  C_33
REMARK                            x       y       z     vdW  Elec       q    Type
REMARK                         _______ _______ _______ _____ _____    ______ ____
ROOT
ATOM      5  C   UNL     1      -3.995  -1.119  24.420  0.00  0.00    +0.242 C 
ATOM      6  O   UNL     1      -4.617  -0.636  24.175  0.00  0.00    -0.273 OA
ATOM      7  N   UNL     1      -3.351  -0.792  24.820  0.00  0.00    -0.272 N 
ATOM      8  C   UNL     1      -2.730  -1.276  25.064  0.00  0.00    +0.096 C 
ATOM      9  C   UNL     1      -2.086  -0.949  25.465  0.00  0.00    +0.043 C 
ATOM     10  C   UNL     1      -2.065  -0.140  25.621  0.00  0.00    +0.099 C 
ATOM     11  C   UNL     1      -2.686   0.344  25.377  0.00  0.00    +0.051 C 
ATOM     12  C   UNL     1      -3.330   0.017  24.976  0.00  0.00    +0.155 C 
ENDROOT
BRANCH  12  13
ATOM     13  C   UNL     1      -3.952   0.501  24.732  0.00  0.00    +0.260 C 
ATOM     14  O   UNL     1      -4.365   0.327  24.039  0.00  0.00    -0.272 OA
ATOM     15  N   UNL     1      -4.162   1.160  25.181  0.00  0.00    -0.196 NA
BRANCH  15  16
ATOM     16  C   UNL     1      -4.784   1.645  24.938  0.00  0.00    +0.179 C 
BRANCH  16  26
ATOM     26  C   UNL     1      -5.537   1.542  25.259  0.00  0.00    +0.281 C 
ATOM     27  N   UNL     1      -6.204   1.597  24.777  0.00  0.00    -0.086 NA
ATOM     28  O   UNL     1      -5.622   1.384  26.064  0.00  0.00    -0.270 OA
ENDBRANCH  16  26
BRANCH  16  17
ATOM     17  C   UNL     1      -4.653   2.232  24.374  0.00  0.00    +0.057 C 
BRANCH  17  18
ATOM     18  C   UNL     1      -4.155   2.866  24.546  0.00  0.00    -0.020 A 
ATOM     19  C   UNL     1      -3.596   3.112  23.992  0.00  0.00    -0.001 A 
ATOM     20  C   UNL     1      -3.097   3.747  24.163  0.00  0.00    +0.037 A 
ATOM     21  C   UNL     1      -3.158   4.136  24.889  0.00  0.00    +0.139 A 
ATOM     24  C   UNL     1      -3.718   3.889  25.442  0.00  0.00    +0.037 A 
ATOM     25  C   UNL     1      -4.216   3.254  25.271  0.00  0.00    -0.001 A 
BRANCH  21  22
ATOM     22  O   UNL     1      -2.660   4.770  25.060  0.00  0.00    -0.471 OA
ATOM     23  C   UNL     1      -1.903   4.631  25.359  0.00  0.00    +0.252 C 
ENDBRANCH  21  22
ENDBRANCH  17  18
ENDBRANCH  16  17
ENDBRANCH  15  16
ENDBRANCH  12  13
BRANCH  10  29
ATOM     29  N   UNL     1      -1.421   0.186  26.022  0.00  0.00    -0.207 NA
ATOM     30  C   UNL     1      -0.819   0.560  25.600  0.00  0.00    +0.246 C 
ATOM     31  O   UNL     1      -0.177   0.886  26.000  0.00  0.00    -0.273 OA
BRANCH  30  32
ATOM     32  C   UNL     1      -0.860   0.608  24.777  0.00  0.00    +0.120 C 
BRANCH  32  33
ATOM     33  C   UNL     1      -0.252   0.973  24.354  0.00  0.00    +0.016 A 
ATOM     34  C   UNL     1      -0.068   1.776  24.366  0.00  0.00    +0.003 A 
ATOM     35  C   UNL     1       0.575   1.898  23.864  0.00  0.00    +0.007 A 
ATOM     36  C   UNL     1       0.788   1.169  23.542  0.00  0.00    +0.035 A 
ATOM     37  S   UNL     1       0.276   0.597  23.845  0.00  0.00    -0.090 S 
ENDBRANCH  32  33
ENDBRANCH  30  32
ENDBRANCH  10  29
BRANCH   5   3
ATOM      3  C   UNL     1      -4.016  -1.928  24.263  0.00  0.00    +0.149 C 
ATOM      4  C   UNL     1      -3.950  -2.470  24.881  0.00  0.00    +0.029 C 
BRANCH   3   2
ATOM      1  C   UNL     1      -4.314  -2.981  23.342  0.00  0.00    +0.108 C 
ATOM      2  N   UNL     1      -4.104  -2.196  23.487  0.00  0.00    -0.209 NA
ENDBRANCH   3   2
ENDBRANCH   5   3
TORSDOF 11
ENDMDL
