MODEL 1
REMARK VINA RESULT:     -12.5      0.000      0.000
REMARK  Name = 
REMARK  7 active torsions:
REMARK  status: ('A' for Active; 'I' for Inactive)
REMARK    1  A    between atoms: C_2  and  C_3
REMARK    2  A    between atoms: C_3  and  C_4
REMARK    3  A    between atoms: C_9  and  C_10
REMARK    4  A    between atoms: C_10  and  C_11
REMARK    5  A    between atoms: C_14  and  C_16
REMARK    6  A    between atoms: N_22  and  C_23
REMARK    7  A    between atoms: C_23  and  C_24
REMARK                            x       y       z     vdW  Elec       q    Type
REMARK                         _______ _______ _______ _____ _____    ______ ____
ROOT
ATOM      4  C   UNL     1      -4.801   2.609  24.924  0.00  0.00    +0.012 C 
ATOM      5  C   UNL     1      -5.302   3.043  25.415  0.00  0.00    +0.019 C 
ATOM      6  C   UNL     1      -5.849   2.652  25.895  0.00  0.00    +0.089 C 
ATOM      7  N   UNL     1      -5.894   1.828  25.883  0.00  0.00    -0.218 NA
ATOM      8  C   UNL     1      -5.392   1.396  25.391  0.00  0.00    +0.089 C 
ATOM      9  C   UNL     1      -4.846   1.785  24.912  0.00  0.00    +0.024 C 
ENDROOT
BRANCH   4   3
ATOM      3  C   UNL     1      -4.255   3.000  24.444  0.00  0.00    +0.087 C 
BRANCH   3   2
ATOM      1  O   UNL     1      -4.341   4.350  24.903  0.00  0.00    -0.273 OA
ATOM      2  C   UNL     1      -3.888   3.687  24.713  0.00  0.00    +0.242 C 
ATOM     22  N   UNL     1      -3.067   3.712  24.792  0.00  0.00    -0.197 NA
BRANCH  22  23
ATOM     23  C   UNL     1      -2.700   4.400  25.060  0.00  0.00    +0.179 C 
BRANCH  23  24
ATOM     24  C   UNL     1      -1.878   4.463  25.039  0.00  0.00    +0.145 A 
ATOM     25  C   UNL     1      -1.445   5.166  25.015  0.00  0.00    +0.038 A 
ATOM     26  C   UNL     1      -0.643   4.973  24.999  0.00  0.00    +0.043 A 
ATOM     27  C   UNL     1      -0.580   4.150  25.013  0.00  0.00    +0.179 A 
ATOM     28  O   UNL     1      -1.342   3.836  25.038  0.00  0.00    -0.453 OA
ENDBRANCH  23  24
ENDBRANCH  22  23
ENDBRANCH   3   2
ENDBRANCH   4   3
BRANCH   9  10
ATOM     10  C   UNL     1      -4.345   1.352  24.421  0.00  0.00    +0.051 C 
BRANCH  10  11
ATOM     11  C   UNL     1      -4.056   0.620  24.669  0.00  0.00    +0.101 A 
ATOM     12  N   UNL     1      -3.576   0.486  25.326  0.00  0.00    -0.081 NA
ATOM     13  O   UNL     1      -3.419  -0.323  25.366  0.00  0.00    -0.354 OA
ATOM     14  C   UNL     1      -3.803  -0.689  24.734  0.00  0.00    +0.177 A 
ATOM     15  C   UNL     1      -4.197  -0.106  24.303  0.00  0.00    +0.058 A 
BRANCH  14  16
ATOM     16  C   UNL     1      -3.795  -1.497  24.564  0.00  0.00    +0.037 A 
ATOM     17  C   UNL     1      -4.188  -1.781  23.897  0.00  0.00    +0.003 A 
ATOM     18  C   UNL     1      -4.180  -2.589  23.726  0.00  0.00    +0.000 A 
ATOM     19  C   UNL     1      -3.777  -3.111  24.223  0.00  0.00    +0.000 A 
ATOM     20  C   UNL     1      -3.384  -2.826  24.889  0.00  0.00    +0.000 A 
ATOM     21  C   UNL     1      -3.392  -2.018  25.060  0.00  0.00    +0.003 A 
ENDBRANCH  14  16
ENDBRANCH  10  11
ENDBRANCH   9  10
TORSDOF 7
ENDMDL
MODEL 2
REMARK VINA RESULT:     -12.3      0.961      1.277
REMARK  Name = 
REMARK  7 active torsions:
REMARK  status: ('A' for Active; 'I' for Inactive)
REMARK    1  A    between atoms: C_2  and  C_3
REMARK    2  A    between atoms: C_3  and  C_4
REMARK    3  A    between atoms: C_9  and  C_10
REMARK    4  A    between atoms: C_10  and  C_11
REMARK    5  A    between atoms: C_14  and  C_16
REMARK    6  A    between atoms: N_22  and  C_23
REMARK    7  A    between atoms: C_23  and  C_24
REMARK                            x       y       z     vdW  Elec       q    Type
REMARK                         _______ _______ _______ _____ _____    ______ ____
ROOT
ATOM      4  C   UNL     1      -4.245   2.887  24.746  0.00  0.00    +0.012 C 
ATOM      5  C   UNL     1      -4.548   3.518  25.183  0.00  0.00    +0.019 C 
ATOM      6  C   UNL     1      -5.247   3.423  25.613  0.00  0.00    +0.089 C 
ATOM      7  N   UNL     1      -5.642   2.699  25.605  0.00  0.00    -0.218 NA
ATOM      8  C   UNL     1      -5.338   2.069  25.167  0.00  0.00    +0.089 C 
ATOM      9  C   UNL     1      -4.640   2.163  24.738  0.00  0.00    +0.024 C 
ENDROOT
BRANCH   4   3
ATOM      3  C   UNL     1      -3.548   2.982  24.317  0.00  0.00    +0.087 C 
BRANCH   3   2
ATOM      1  O   UNL     1      -2.987   4.223  24.749  0.00  0.00    -0.273 OA
ATOM      2  C   UNL     1      -2.920   3.408  24.639  0.00  0.00    +0.242 C 
ATOM     22  N   UNL     1      -2.224   3.019  24.852  0.00  0.00    -0.197 NA
BRANCH  22  23
ATOM     23  C   UNL     1      -1.595   3.445  25.174  0.00  0.00    +0.179 C 
BRANCH  23  24
ATOM     24  C   UNL     1      -0.908   3.053  25.408  0.00  0.00    +0.145 A 
ATOM     25  C   UNL     1      -0.677   2.899  26.185  0.00  0.00    +0.038 A 
ATOM     26  C   UNL     1       0.042   2.496  26.163  0.00  0.00    +0.043 A 
ATOM     27  C   UNL     1       0.256   2.401  25.372  0.00  0.00    +0.179 A 
ATOM     28  O   UNL     1      -0.331   2.745  24.905  0.00  0.00    -0.453 OA
ENDBRANCH  23  24
ENDBRANCH  22  23
ENDBRANCH   3   2
ENDBRANCH   4   3
BRANCH   9  10
ATOM     10  C   UNL     1      -4.337   1.533  24.301  0.00  0.00    +0.051 C 
BRANCH  10  11
ATOM     11  C   UNL     1      -4.316   0.775  24.628  0.00  0.00    +0.101 A 
ATOM     12  N   UNL     1      -4.526   0.576  25.400  0.00  0.00    -0.081 NA
ATOM     13  O   UNL     1      -4.422  -0.238  25.490  0.00  0.00    -0.354 OA
ATOM     14  C   UNL     1      -4.148  -0.541  24.773  0.00  0.00    +0.177 A 
ATOM     15  C   UNL     1      -4.082   0.086  24.240  0.00  0.00    +0.058 A 
BRANCH  14  16
ATOM     16  C   UNL     1      -3.970  -1.331  24.616  0.00  0.00    +0.037 A 
ATOM     17  C   UNL     1      -3.486  -1.755  25.132  0.00  0.00    +0.003 A 
ATOM     18  C   UNL     1      -3.308  -2.546  24.975  0.00  0.00    +0.000 A 
ATOM     19  C   UNL     1      -3.616  -2.911  24.302  0.00  0.00    +0.000 A 
ATOM     20  C   UNL     1      -4.100  -2.488  23.787  0.00  0.00    +0.000 A 
ATOM     21  C   UNL     1      -4.278  -1.697  23.944  0.00  0.00    +0.003 A 
ENDBRANCH  14  16
ENDBRANCH  10  11
ENDBRANCH   9  10
TORSDOF 7
ENDMDL
MODEL 3
REMARK VINA RESULT:     -11.9      2.498      6.294
REMARK  Name = 
REMARK  7 active torsions:
REMARK  status: ('A' for Active; 'I' for Inactive)
REMARK    1  A    between atoms: C_2  and  C_3
REMARK    2  A    between atoms: C_3  and  C_4
REMARK    3  A    between atoms: C_9  and  C_10
REMARK    4  A    between atoms: C_10  and  C_11
REMARK    5  A    between atoms: C_14  and  C_16
REMARK    6  A    between atoms: N_22  and  C_23
REMARK    7  A    between atoms: C_23  and  C_24
REMARK                            x       y       z     vdW  Elec       q    Type
REMARK                         _______ _______ _______ _____ _____    ______ ____
ROOT
ATOM      4  C   UNL     1      -0.508  -0.221  24.724  0.00  0.00    +0.012 C 
ATOM      5  C   UNL     1      -0.144  -0.623  24.103  0.00  0.00    +0.019 C 
ATOM      6  C   UNL     1       0.288  -0.204  23.537  0.00  0.00    +0.089 C 
ATOM      7  N   UNL     1       0.355   0.616  23.594  0.00  0.00    -0.218 NA
ATOM      8  C   UNL     1      -0.010   1.017  24.216  0.00  0.00    +0.089 C 
ATOM      9  C   UNL     1      -0.440   0.599  24.781  0.00  0.00    +0.024 C 
ENDROOT
BRANCH   4   3
ATOM      3  C   UNL     1      -0.939  -0.640  25.289  0.00  0.00    +0.087 C 
BRANCH   3   2
ATOM      1  O   UNL     1      -0.832  -2.051  25.093  0.00  0.00    -0.273 OA
ATOM      2  C   UNL     1      -1.285  -1.361  25.092  0.00  0.00    +0.242 C 
ATOM     22  N   UNL     1      -2.085  -1.394  24.894  0.00  0.00    -0.197 NA
BRANCH  22  23
ATOM     23  C   UNL     1      -2.432  -2.116  24.697  0.00  0.00    +0.179 C 
BRANCH  23  24
ATOM     24  C   UNL     1      -3.194  -2.135  24.383  0.00  0.00    +0.145 A 
ATOM     25  C   UNL     1      -3.644  -2.812  24.240  0.00  0.00    +0.038 A 
ATOM     26  C   UNL     1      -4.369  -2.576  23.925  0.00  0.00    +0.043 A 
ATOM     27  C   UNL     1      -4.367  -1.752  23.872  0.00  0.00    +0.179 A 
ATOM     28  O   UNL     1      -3.642  -1.480  24.155  0.00  0.00    -0.453 OA
ENDBRANCH  23  24
ENDBRANCH  22  23
ENDBRANCH   3   2
ENDBRANCH   4   3
BRANCH   9  10
ATOM     10  C   UNL     1      -0.804   1.001  25.402  0.00  0.00    +0.051 C 
BRANCH  10  11
ATOM     11  C   UNL     1      -0.676   1.811  25.502  0.00  0.00    +0.101 A 
ATOM     12  N   UNL     1      -0.000   2.158  25.821  0.00  0.00    -0.081 NA
ATOM     13  O   UNL     1      -0.108   2.976  25.816  0.00  0.00    -0.354 OA
ATOM     14  C   UNL     1      -0.850   3.134  25.494  0.00  0.00    +0.177 A 
ATOM     15  C   UNL     1      -1.202   2.413  25.299  0.00  0.00    +0.058 A 
BRANCH  14  16
ATOM     16  C   UNL     1      -1.183   3.881  25.385  0.00  0.00    +0.037 A 
ATOM     17  C   UNL     1      -1.962   4.023  25.614  0.00  0.00    +0.003 A 
ATOM     18  C   UNL     1      -2.295   4.770  25.505  0.00  0.00    +0.000 A 
ATOM     19  C   UNL     1      -1.847   5.375  25.166  0.00  0.00    +0.000 A 
ATOM     20  C   UNL     1      -1.069   5.233  24.937  0.00  0.00    +0.000 A 
ATOM     21  C   UNL     1      -0.736   4.485  25.046  0.00  0.00    +0.003 A 
ENDBRANCH  14  16
ENDBRANCH  10  11
ENDBRANCH   9  10
TORSDOF 7
ENDMDL
MODEL 4
REMARK VINA RESULT:     -11.8      2.036      3.402
REMARK  Name = 
REMARK  7 active torsions:
REMARK  status: ('A' for Active; 'I' for Inactive)
REMARK    1  A    between atoms: C_2  and  C_3
REMARK    2  A    between atoms: C_3  and  C_4
REMARK    3  A    between atoms: C_9  and  C_10
REMARK    4  A    between atoms: C_10  and  C_11
REMARK    5  A    between atoms: C_14  and  C_16
REMARK    6  A    between atoms: N_22  and  C_23
REMARK    7  A    between atoms: C_23  and  C_24
REMARK                            x       y       z     vdW  Elec       q    Type
REMARK                         _______ _______ _______ _____ _____    ______ ____
ROOT
ATOM      4  C   UNL     1      -0.568   1.546  25.107  0.00  0.00    +0.012 C 
ATOM      5  C   UNL     1      -0.121   1.995  24.579  0.00  0.00    +0.019 C 
ATOM      6  C   UNL     1       0.284   1.623  23.962  0.00  0.00    +0.089 C 
ATOM      7  N   UNL     1       0.240   0.803  23.875  0.00  0.00    -0.218 NA
ATOM      8  C   UNL     1      -0.208   0.356  24.405  0.00  0.00    +0.089 C 
ATOM      9  C   UNL     1      -0.611   0.727  25.020  0.00  0.00    +0.024 C 
ENDROOT
BRANCH   4   3
ATOM      3  C   UNL     1      -0.971   1.918  25.723  0.00  0.00    +0.087 C 
BRANCH   3   2
ATOM      1  O   UNL     1      -0.801   3.331  25.590  0.00  0.00    -0.273 OA
ATOM      2  C   UNL     1      -1.294   2.668  25.611  0.00  0.00    +0.242 C 
ATOM     22  N   UNL     1      -2.109   2.759  25.521  0.00  0.00    -0.197 NA
BRANCH  22  23
ATOM     23  C   UNL     1      -2.431   3.510  25.410  0.00  0.00    +0.179 C 
BRANCH  23  24
ATOM     24  C   UNL     1      -3.246   3.600  25.327  0.00  0.00    +0.145 A 
ATOM     25  C   UNL     1      -3.679   3.495  24.631  0.00  0.00    +0.038 A 
ATOM     26  C   UNL     1      -4.473   3.641  24.799  0.00  0.00    +0.043 A 
ATOM     27  C   UNL     1      -4.532   3.836  25.599  0.00  0.00    +0.179 A 
ATOM     28  O   UNL     1      -3.775   3.810  25.925  0.00  0.00    -0.453 OA
ENDBRANCH  23  24
ENDBRANCH  22  23
ENDBRANCH   3   2
ENDBRANCH   4   3
BRANCH   9  10
ATOM     10  C   UNL     1      -1.058   0.280  25.549  0.00  0.00    +0.051 C 
BRANCH  10  11
ATOM     11  C   UNL     1      -1.386  -0.439  25.308  0.00  0.00    +0.101 A 
ATOM     12  N   UNL     1      -0.998  -1.167  25.294  0.00  0.00    -0.081 NA
ATOM     13  O   UNL     1      -1.531  -1.733  25.016  0.00  0.00    -0.354 OA
ATOM     14  C   UNL     1      -2.246  -1.354  24.858  0.00  0.00    +0.177 A 
ATOM     15  C   UNL     1      -2.157  -0.554  25.039  0.00  0.00    +0.058 A 
BRANCH  14  16
ATOM     16  C   UNL     1      -2.932  -1.713  24.571  0.00  0.00    +0.037 A 
ATOM     17  C   UNL     1      -3.013  -2.533  24.605  0.00  0.00    +0.003 A 
ATOM     18  C   UNL     1      -3.698  -2.892  24.317  0.00  0.00    +0.000 A 
ATOM     19  C   UNL     1      -4.302  -2.430  23.995  0.00  0.00    +0.000 A 
ATOM     20  C   UNL     1      -4.220  -1.610  23.962  0.00  0.00    +0.000 A 
ATOM     21  C   UNL     1      -3.534  -1.251  24.249  0.00  0.00    +0.003 A 
ENDBRANCH  14  16
ENDBRANCH  10  11
ENDBRANCH   9  10
TORSDOF 7
ENDMDL
MODEL 5
REMARK VINA RESULT:     -11.2      2.188      4.721
REMARK  Name = 
REMARK  7 active torsions:
REMARK  status: ('A' for Active; 'I' for Inactive)
REMARK    1  A    between atoms: C_2  and  C_3
REMARK    2  A    between atoms: C_3  and  C_4
REMARK    3  A    between atoms: C_9  and  C_10
REMARK    4  A    between atoms: C_10  and  C_11
REMARK    5  A    between atoms: C_14  and  C_16
REMARK    6  A    between atoms: N_22  and  C_23
REMARK    7  A    between atoms: C_23  and  C_24
REMARK                            x       y       z     vdW  Elec       q    Type
REMARK                         _______ _______ _______ _____ _____    ______ ____
ROOT
ATOM      4  C   UNL     1      -3.160  -1.644  24.783  0.00  0.00    +0.012 C 
ATOM      5  C   UNL     1      -3.162  -2.280  24.257  0.00  0.00    +0.019 C 
ATOM      6  C   UNL     1      -3.824  -2.420  23.783  0.00  0.00    +0.089 C 
ATOM      7  N   UNL     1      -4.481  -1.925  23.836  0.00  0.00    -0.218 NA
ATOM      8  C   UNL     1      -4.478  -1.290  24.363  0.00  0.00    +0.089 C 
ATOM      9  C   UNL     1      -3.818  -1.149  24.836  0.00  0.00    +0.024 C 
ENDROOT
BRANCH   4   3
ATOM      3  C   UNL     1      -2.499  -1.505  25.257  0.00  0.00    +0.087 C 
BRANCH   3   2
ATOM      1  O   UNL     1      -1.452  -2.404  24.886  0.00  0.00    -0.273 OA
ATOM      2  C   UNL     1      -1.742  -1.634  24.957  0.00  0.00    +0.242 C 
ATOM     22  N   UNL     1      -1.274  -0.995  24.728  0.00  0.00    -0.197 NA
BRANCH  22  23
ATOM     23  C   UNL     1      -0.517  -1.124  24.428  0.00  0.00    +0.179 C 
BRANCH  23  24
ATOM     24  C   UNL     1      -0.115  -0.513  24.047  0.00  0.00    +0.145 A 
ATOM     25  C   UNL     1      -0.200   0.294  24.201  0.00  0.00    +0.038 A 
ATOM     26  C   UNL     1       0.306   0.705  23.695  0.00  0.00    +0.043 A 
ATOM     27  C   UNL     1       0.704   0.153  23.229  0.00  0.00    +0.179 A 
ATOM     28  O   UNL     1       0.444  -0.599  23.446  0.00  0.00    -0.453 OA
ENDBRANCH  23  24
ENDBRANCH  22  23
ENDBRANCH   3   2
ENDBRANCH   4   3
BRANCH   9  10
ATOM     10  C   UNL     1      -3.815  -0.515  25.363  0.00  0.00    +0.051 C 
BRANCH  10  11
ATOM     11  C   UNL     1      -4.179   0.196  25.154  0.00  0.00    +0.101 A 
ATOM     12  N   UNL     1      -4.989   0.315  25.057  0.00  0.00    -0.081 NA
ATOM     13  O   UNL     1      -5.107   1.105  24.849  0.00  0.00    -0.354 OA
ATOM     14  C   UNL     1      -4.369   1.474  24.817  0.00  0.00    +0.177 A 
ATOM     15  C   UNL     1      -3.795   0.911  25.006  0.00  0.00    +0.058 A 
BRANCH  14  16
ATOM     16  C   UNL     1      -4.230   2.265  24.630  0.00  0.00    +0.037 A 
ATOM     17  C   UNL     1      -3.884   2.463  23.908  0.00  0.00    +0.003 A 
ATOM     18  C   UNL     1      -3.745   3.255  23.720  0.00  0.00    +0.000 A 
ATOM     19  C   UNL     1      -3.953   3.848  24.256  0.00  0.00    +0.000 A 
ATOM     20  C   UNL     1      -4.299   3.649  24.977  0.00  0.00    +0.000 A 
ATOM     21  C   UNL     1      -4.438   2.857  25.165  0.00  0.00    +0.003 A 
ENDBRANCH  14  16
ENDBRANCH  10  11
ENDBRANCH   9  10
TORSDOF 7
ENDMDL
MODEL 6
REMARK VINA RESULT:     -11.1      0.993      5.050
REMARK  Name = 
REMARK  7 active torsions:
REMARK  status: ('A' for Active; 'I' for Inactive)
REMARK    1  A    between atoms: C_2  and  C_3
REMARK    2  A    between atoms: C_3  and  C_4
REMARK    3  A    between atoms: C_9  and  C_10
REMARK    4  A    between atoms: C_10  and  C_11
REMARK    5  A    between atoms: C_14  and  C_16
REMARK    6  A    between atoms: N_22  and  C_23
REMARK    7  A    between atoms: C_23  and  C_24
REMARK                            x       y       z     vdW  Elec       q    Type
REMARK                         _______ _______ _______ _____ _____    ______ ____
ROOT
ATOM      4  C   UNL     1      -4.693   1.113  24.736  0.00  0.00    +0.012 C 
ATOM      5  C   UNL     1      -5.186   0.735  25.279  0.00  0.00    +0.019 C 
ATOM      6  C   UNL     1      -5.688   1.180  25.759  0.00  0.00    +0.089 C 
ATOM      7  N   UNL     1      -5.696   2.003  25.697  0.00  0.00    -0.218 NA
ATOM      8  C   UNL     1      -5.203   2.380  25.154  0.00  0.00    +0.089 C 
ATOM      9  C   UNL     1      -4.701   1.935  24.674  0.00  0.00    +0.024 C 
ENDROOT
BRANCH   4   3
ATOM      3  C   UNL     1      -4.192   0.667  24.256  0.00  0.00    +0.087 C 
BRANCH   3   2
ATOM      1  O   UNL     1      -4.752  -0.642  24.370  0.00  0.00    -0.273 OA
ATOM      2  C   UNL     1      -4.097  -0.140  24.395  0.00  0.00    +0.242 C 
ATOM     22  N   UNL     1      -3.349  -0.446  24.558  0.00  0.00    -0.197 NA
BRANCH  22  23
ATOM     23  C   UNL     1      -3.255  -1.254  24.696  0.00  0.00    +0.179 C 
BRANCH  23  24
ATOM     24  C   UNL     1      -2.498  -1.576  24.758  0.00  0.00    +0.145 A 
ATOM     25  C   UNL     1      -2.254  -2.303  24.452  0.00  0.00    +0.038 A 
ATOM     26  C   UNL     1      -1.457  -2.405  24.640  0.00  0.00    +0.043 A 
ATOM     27  C   UNL     1      -1.209  -1.741  25.063  0.00  0.00    +0.179 A 
ATOM     28  O   UNL     1      -1.852  -1.229  25.135  0.00  0.00    -0.453 OA
ENDBRANCH  23  24
ENDBRANCH  22  23
ENDBRANCH   3   2
ENDBRANCH   4   3
BRANCH   9  10
ATOM     10  C   UNL     1      -4.208   2.312  24.131  0.00  0.00    +0.051 C 
BRANCH  10  11
ATOM     11  C   UNL     1      -3.802   2.998  24.349  0.00  0.00    +0.101 A 
ATOM     12  N   UNL     1      -4.141   3.734  24.498  0.00  0.00    -0.081 NA
ATOM     13  O   UNL     1      -3.535   4.258  24.697  0.00  0.00    -0.354 OA
ATOM     14  C   UNL     1      -2.822   3.844  24.671  0.00  0.00    +0.177 A 
ATOM     15  C   UNL     1      -2.987   3.065  24.456  0.00  0.00    +0.058 A 
BRANCH  14  16
ATOM     16  C   UNL     1      -2.075   4.156  24.832  0.00  0.00    +0.037 A 
ATOM     17  C   UNL     1      -1.428   3.651  24.915  0.00  0.00    +0.003 A 
ATOM     18  C   UNL     1      -0.680   3.963  25.077  0.00  0.00    +0.000 A 
ATOM     19  C   UNL     1      -0.582   4.779  25.155  0.00  0.00    +0.000 A 
ATOM     20  C   UNL     1      -1.229   5.282  25.071  0.00  0.00    +0.000 A 
ATOM     21  C   UNL     1      -1.977   4.971  24.910  0.00  0.00    +0.003 A 
ENDBRANCH  14  16
ENDBRANCH  10  11
ENDBRANCH   9  10
TORSDOF 7
ENDMDL
MODEL 7
REMARK VINA RESULT:     -11.1      1.808      5.038
REMARK  Name = 
REMARK  7 active torsions:
REMARK  status: ('A' for Active; 'I' for Inactive)
REMARK    1  A    between atoms: C_2  and  C_3
REMARK    2  A    between atoms: C_3  and  C_4
REMARK    3  A    between atoms: C_9  and  C_10
REMARK    4  A    between atoms: C_10  and  C_11
REMARK    5  A    between atoms: C_14  and  C_16
REMARK    6  A    between atoms: N_22  and  C_23
REMARK    7  A    between atoms: C_23  and  C_24
REMARK                            x       y       z     vdW  Elec       q    Type
REMARK                         _______ _______ _______ _____ _____    ______ ____
ROOT
ATOM      4  C   UNL     1      -0.887   1.631  24.748  0.00  0.00    +0.012 C 
ATOM      5  C   UNL     1      -0.296   1.533  25.316  0.00  0.00    +0.019 C 
ATOM      6  C   UNL     1      -0.132   2.142  25.849  0.00  0.00    +0.089 C 
ATOM      7  N   UNL     1      -0.558   2.848  25.814  0.00  0.00    -0.218 NA
ATOM      8  C   UNL     1      -1.148   2.944  25.245  0.00  0.00    +0.089 C 
ATOM      9  C   UNL     1      -1.313   2.337  24.713  0.00  0.00    +0.024 C 
ENDROOT
BRANCH   4   3
ATOM      3  C   UNL     1      -1.050   1.023  24.216  0.00  0.00    +0.087 C 
BRANCH   3   2
ATOM      1  O   UNL     1      -0.215  -0.070  24.603  0.00  0.00    -0.273 OA
ATOM      2  C   UNL     1      -0.966   0.237  24.449  0.00  0.00    +0.242 C 
ATOM     22  N   UNL     1      -1.631  -0.244  24.528  0.00  0.00    -0.197 NA
BRANCH  22  23
ATOM     23  C   UNL     1      -1.547  -1.031  24.761  0.00  0.00    +0.179 C 
BRANCH  23  24
ATOM     24  C   UNL     1      -2.205  -1.526  24.787  0.00  0.00    +0.145 A 
ATOM     25  C   UNL     1      -2.882  -1.410  25.245  0.00  0.00    +0.038 A 
ATOM     26  C   UNL     1      -3.399  -2.037  25.101  0.00  0.00    +0.043 A 
ATOM     27  C   UNL     1      -3.042  -2.541  24.554  0.00  0.00    +0.179 A 
ATOM     28  O   UNL     1      -2.304  -2.225  24.360  0.00  0.00    -0.453 OA
ENDBRANCH  23  24
ENDBRANCH  22  23
ENDBRANCH   3   2
ENDBRANCH   4   3
BRANCH   9  10
ATOM     10  C   UNL     1      -1.902   2.434  24.145  0.00  0.00    +0.051 C 
BRANCH  10  11
ATOM     11  C   UNL     1      -2.638   2.741  24.362  0.00  0.00    +0.101 A 
ATOM     12  N   UNL     1      -2.842   3.539  24.382  0.00  0.00    -0.081 NA
ATOM     13  O   UNL     1      -3.628   3.595  24.629  0.00  0.00    -0.354 OA
ATOM     14  C   UNL     1      -3.908   2.830  24.762  0.00  0.00    +0.177 A 
ATOM     15  C   UNL     1      -3.295   2.302  24.597  0.00  0.00    +0.058 A 
BRANCH  14  16
ATOM     16  C   UNL     1      -4.667   2.629  25.015  0.00  0.00    +0.037 A 
ATOM     17  C   UNL     1      -5.034   3.070  25.608  0.00  0.00    +0.003 A 
ATOM     18  C   UNL     1      -5.793   2.869  25.862  0.00  0.00    +0.000 A 
ATOM     19  C   UNL     1      -6.185   2.227  25.521  0.00  0.00    +0.000 A 
ATOM     20  C   UNL     1      -5.817   1.787  24.929  0.00  0.00    +0.000 A 
ATOM     21  C   UNL     1      -5.058   1.988  24.675  0.00  0.00    +0.003 A 
ENDBRANCH  14  16
ENDBRANCH  10  11
ENDBRANCH   9  10
TORSDOF 7
ENDMDL
