MODEL 1
REMARK VINA RESULT:     -12.9      0.000      0.000
REMARK  Name = 
REMARK  8 active torsions:
REMARK  status: ('A' for Active; 'I' for Inactive)
REMARK    1  A    between atoms: C_4  and  C_5
REMARK    2  A    between atoms: C_5  and  N_6
REMARK    3  A    between atoms: N_6  and  C_7
REMARK    4  A    between atoms: C_12  and  C_13
REMARK    5  A    between atoms: C_13  and  C_14
REMARK    6  A    between atoms: C_14  and  C_15
REMARK    7  A    between atoms: N_17  and  C_18
REMARK    8  A    between atoms: C_18  and  C_19
REMARK                            x       y       z     vdW  Elec       q    Type
REMARK                         _______ _______ _______ _____ _____    ______ ____
ROOT
ATOM      7  C   UNL     1      -0.997   0.669  25.066  0.00  0.00    +0.091 C 
ATOM      8  C   UNL     1      -0.298   0.905  24.697  0.00  0.00    +0.044 C 
ATOM      9  C   UNL     1      -0.227   1.722  24.786  0.00  0.00    +0.138 C 
ATOM     10  N   UNL     1      -0.881   1.991  25.211  0.00  0.00    -0.265 NA
ATOM     11  C   UNL     1      -1.357   1.340  25.384  0.00  0.00    +0.090 C 
ATOM     12  C   UNL     1      -0.958   2.793  25.385  0.00  0.00    +0.080 C 
ATOM     26  C   UNL     1      -0.381   3.327  25.134  0.00  0.00    +0.131 C 
ATOM     27  N   UNL     1       0.273   3.059  24.709  0.00  0.00    -0.203 NA
ATOM     28  C   UNL     1       0.350   2.256  24.535  0.00  0.00    +0.256 C 
ATOM     29  O   UNL     1       1.004   1.987  24.110  0.00  0.00    -0.272 OA
ENDROOT
BRANCH   7   6
ATOM      6  N   UNL     1      -1.285  -0.103  25.110  0.00  0.00    -0.213 NA
BRANCH   6   5
ATOM      5  C   UNL     1      -2.065  -0.266  24.900  0.00  0.00    +0.116 C 
BRANCH   5   4
ATOM      1  C   UNL     1      -2.015  -3.152  24.579  0.00  0.00    +0.130 C 
ATOM      2  N   UNL     1      -2.272  -2.368  24.590  0.00  0.00    -0.324 N 
ATOM      3  C   UNL     1      -1.821  -1.712  24.807  0.00  0.00    +0.073 A 
ATOM      4  C   UNL     1      -2.295  -1.042  24.737  0.00  0.00    +0.014 A 
ATOM     30  C   UNL     1      -3.040  -1.282  24.476  0.00  0.00    +0.015 A 
ATOM     31  C   UNL     1      -3.026  -2.102  24.385  0.00  0.00    +0.060 A 
ATOM     32  C   UNL     1      -3.701  -2.499  24.127  0.00  0.00    +0.017 A 
ATOM     33  C   UNL     1      -4.390  -2.078  23.960  0.00  0.00    +0.001 A 
ATOM     34  C   UNL     1      -4.404  -1.258  24.051  0.00  0.00    +0.000 A 
ATOM     35  C   UNL     1      -3.729  -0.860  24.309  0.00  0.00    +0.001 A 
ENDBRANCH   5   4
ENDBRANCH   6   5
ENDBRANCH   7   6
BRANCH  12  13
ATOM     13  C   UNL     1      -1.612   3.062  25.809  0.00  0.00    +0.027 C 
BRANCH  13  14
ATOM     14  C   UNL     1      -2.035   3.719  25.544  0.00  0.00    +0.088 C 
BRANCH  14  15
ATOM     15  C   UNL     1      -2.809   3.843  25.801  0.00  0.00    +0.242 C 
ATOM     16  O   UNL     1      -2.958   4.350  26.434  0.00  0.00    -0.273 OA
ATOM     17  N   UNL     1      -3.435   3.460  25.423  0.00  0.00    -0.201 NA
BRANCH  17  18
ATOM     18  C   UNL     1      -4.209   3.584  25.680  0.00  0.00    +0.141 C 
BRANCH  18  19
ATOM     19  C   UNL     1      -4.805   3.058  25.459  0.00  0.00    -0.000 A 
ATOM     20  C   UNL     1      -5.383   2.836  26.006  0.00  0.00    -0.000 A 
ATOM     21  C   UNL     1      -5.979   2.311  25.785  0.00  0.00    +0.029 A 
ATOM     22  C   UNL     1      -5.999   2.007  25.018  0.00  0.00    +0.140 A 
ATOM     23  F   UNL     1      -6.595   1.482  24.798  0.00  0.00    -0.204 F 
ATOM     24  C   UNL     1      -5.421   2.229  24.472  0.00  0.00    +0.029 A 
ATOM     25  C   UNL     1      -4.825   2.754  24.693  0.00  0.00    -0.000 A 
ENDBRANCH  18  19
ENDBRANCH  17  18
ENDBRANCH  14  15
ENDBRANCH  13  14
ENDBRANCH  12  13
TORSDOF 8
ENDMDL
MODEL 2
REMARK VINA RESULT:     -12.4      1.857      4.045
REMARK  Name = 
REMARK  8 active torsions:
REMARK  status: ('A' for Active; 'I' for Inactive)
REMARK    1  A    between atoms: C_4  and  C_5
REMARK    2  A    between atoms: C_5  and  N_6
REMARK    3  A    between atoms: N_6  and  C_7
REMARK    4  A    between atoms: C_12  and  C_13
REMARK    5  A    between atoms: C_13  and  C_14
REMARK    6  A    between atoms: C_14  and  C_15
REMARK    7  A    between atoms: N_17  and  C_18
REMARK    8  A    between atoms: C_18  and  C_19
REMARK                            x       y       z     vdW  Elec       q    Type
REMARK                         _______ _______ _______ _____ _____    ______ ____
ROOT
ATOM      7  C   UNL     1      -4.614   1.007  24.900  0.00  0.00    +0.091 C 
ATOM      8  C   UNL     1      -5.334   1.157  25.275  0.00  0.00    +0.044 C 
ATOM      9  C   UNL     1      -5.359   1.960  25.464  0.00  0.00    +0.138 C 
ATOM     10  N   UNL     1      -4.656   2.306  25.206  0.00  0.00    -0.265 NA
ATOM     11  C   UNL     1      -4.196   1.717  24.857  0.00  0.00    +0.090 C 
ATOM     12  C   UNL     1      -4.526   3.112  25.321  0.00  0.00    +0.080 C 
ATOM     26  C   UNL     1      -5.099   3.573  25.695  0.00  0.00    +0.131 C 
ATOM     27  N   UNL     1      -5.802   3.227  25.954  0.00  0.00    -0.203 NA
ATOM     28  C   UNL     1      -5.932   2.420  25.838  0.00  0.00    +0.256 C 
ATOM     29  O   UNL     1      -6.635   2.075  26.097  0.00  0.00    -0.272 OA
ENDROOT
BRANCH   7   6
ATOM      6  N   UNL     1      -4.359   0.275  24.617  0.00  0.00    -0.213 NA
BRANCH   6   5
ATOM      5  C   UNL     1      -3.669  -0.064  24.913  0.00  0.00    +0.116 C 
BRANCH   5   4
ATOM      1  C   UNL     1      -3.860  -2.817  24.007  0.00  0.00    +0.130 C 
ATOM      2  N   UNL     1      -3.559  -2.105  24.295  0.00  0.00    -0.324 N 
ATOM      3  C   UNL     1      -3.989  -1.412  24.421  0.00  0.00    +0.073 A 
ATOM      4  C   UNL     1      -3.471  -0.840  24.712  0.00  0.00    +0.014 A 
ATOM     30  C   UNL     1      -2.721  -1.179  24.766  0.00  0.00    +0.015 A 
ATOM     31  C   UNL     1      -2.775  -1.961  24.508  0.00  0.00    +0.060 A 
ATOM     32  C   UNL     1      -2.104  -2.440  24.501  0.00  0.00    +0.017 A 
ATOM     33  C   UNL     1      -1.378  -2.138  24.751  0.00  0.00    +0.001 A 
ATOM     34  C   UNL     1      -1.324  -1.356  25.009  0.00  0.00    +0.000 A 
ATOM     35  C   UNL     1      -1.996  -0.876  25.016  0.00  0.00    +0.001 A 
ENDBRANCH   5   4
ENDBRANCH   6   5
ENDBRANCH   7   6
BRANCH  12  13
ATOM     13  C   UNL     1      -3.823   3.457  25.063  0.00  0.00    +0.027 C 
BRANCH  13  14
ATOM     14  C   UNL     1      -3.381   3.927  25.577  0.00  0.00    +0.088 C 
BRANCH  14  15
ATOM     15  C   UNL     1      -2.599   4.116  25.394  0.00  0.00    +0.242 C 
ATOM     16  O   UNL     1      -2.402   4.884  25.167  0.00  0.00    -0.273 OA
ATOM     17  N   UNL     1      -2.013   3.536  25.439  0.00  0.00    -0.201 NA
BRANCH  17  18
ATOM     18  C   UNL     1      -1.231   3.725  25.256  0.00  0.00    +0.141 C 
BRANCH  18  19
ATOM     19  C   UNL     1      -0.689   3.125  25.096  0.00  0.00    -0.000 A 
ATOM     20  C   UNL     1      -0.494   2.942  24.315  0.00  0.00    -0.000 A 
ATOM     21  C   UNL     1       0.048   2.342  24.155  0.00  0.00    +0.029 A 
ATOM     22  C   UNL     1       0.396   1.923  24.776  0.00  0.00    +0.140 A 
ATOM     23  F   UNL     1       0.938   1.323  24.616  0.00  0.00    -0.204 F 
ATOM     24  C   UNL     1       0.200   2.106  25.557  0.00  0.00    +0.029 A 
ATOM     25  C   UNL     1      -0.342   2.706  25.716  0.00  0.00    -0.000 A 
ENDBRANCH  18  19
ENDBRANCH  17  18
ENDBRANCH  14  15
ENDBRANCH  13  14
ENDBRANCH  12  13
TORSDOF 8
ENDMDL
MODEL 3
REMARK VINA RESULT:     -12.3      1.958      5.015
REMARK  Name = 
REMARK  8 active torsions:
REMARK  status: ('A' for Active; 'I' for Inactive)
REMARK    1  A    between atoms: C_4  and  C_5
REMARK    2  A    between atoms: C_5  and  N_6
REMARK    3  A    between atoms: N_6  and  C_7
REMARK    4  A    between atoms: C_12  and  C_13
REMARK    5  A    between atoms: C_13  and  C_14
REMARK    6  A    between atoms: C_14  and  C_15
REMARK    7  A    between atoms: N_17  and  C_18
REMARK    8  A    between atoms: C_18  and  C_19
REMARK                            x       y       z     vdW  Elec       q    Type
REMARK                         _______ _______ _______ _____ _____    ______ ____
ROOT
ATOM      7  C   UNL     1      -3.856  -0.566  24.928  0.00  0.00    +0.091 C 
ATOM      8  C   UNL     1      -4.024  -1.350  24.733  0.00  0.00    +0.044 C 
ATOM      9  C   UNL     1      -3.308  -1.744  24.621  0.00  0.00    +0.138 C 
ATOM     10  N   UNL     1      -2.697  -1.203  24.746  0.00  0.00    -0.265 NA
ATOM     11  C   UNL     1      -3.036  -0.476  24.936  0.00  0.00    +0.090 C 
ATOM     12  C   UNL     1      -1.912  -1.444  24.671  0.00  0.00    +0.080 C 
ATOM     26  C   UNL     1      -1.737  -2.225  24.471  0.00  0.00    +0.131 C 
ATOM     27  N   UNL     1      -2.347  -2.765  24.346  0.00  0.00    -0.203 NA
ATOM     28  C   UNL     1      -3.133  -2.525  24.421  0.00  0.00    +0.256 C 
ATOM     29  O   UNL     1      -3.744  -3.065  24.296  0.00  0.00    -0.272 OA
ENDROOT
BRANCH   7   6
ATOM      6  N   UNL     1      -4.411   0.024  25.086  0.00  0.00    -0.213 NA
BRANCH   6   5
ATOM      5  C   UNL     1      -4.388   0.735  24.671  0.00  0.00    +0.116 C 
BRANCH   5   4
ATOM      1  C   UNL     1      -6.166   2.452  26.196  0.00  0.00    +0.130 C 
ATOM      2  N   UNL     1      -5.577   2.194  25.681  0.00  0.00    -0.324 N 
ATOM      3  C   UNL     1      -5.376   1.408  25.527  0.00  0.00    +0.073 A 
ATOM      4  C   UNL     1      -4.759   1.405  24.979  0.00  0.00    +0.014 A 
ATOM     30  C   UNL     1      -4.578   2.188  24.794  0.00  0.00    +0.015 A 
ATOM     31  C   UNL     1      -5.083   2.676  25.227  0.00  0.00    +0.060 A 
ATOM     32  C   UNL     1      -5.029   3.495  25.153  0.00  0.00    +0.017 A 
ATOM     33  C   UNL     1      -4.470   3.828  24.646  0.00  0.00    +0.001 A 
ATOM     34  C   UNL     1      -3.965   3.340  24.212  0.00  0.00    +0.000 A 
ATOM     35  C   UNL     1      -4.019   2.520  24.287  0.00  0.00    +0.001 A 
ENDBRANCH   5   4
ENDBRANCH   6   5
ENDBRANCH   7   6
BRANCH  12  13
ATOM     13  C   UNL     1      -1.302  -0.903  24.796  0.00  0.00    +0.027 C 
BRANCH  13  14
ATOM     14  C   UNL     1      -0.847  -0.639  24.160  0.00  0.00    +0.088 C 
BRANCH  14  15
ATOM     15  C   UNL     1      -0.278  -0.053  24.274  0.00  0.00    +0.242 C 
ATOM     16  O   UNL     1       0.523  -0.237  24.206  0.00  0.00    -0.273 OA
ATOM     17  N   UNL     1      -0.510   0.718  24.457  0.00  0.00    -0.201 NA
BRANCH  17  18
ATOM     18  C   UNL     1       0.059   1.303  24.572  0.00  0.00    +0.141 C 
BRANCH  18  19
ATOM     19  C   UNL     1      -0.171   2.064  24.790  0.00  0.00    -0.000 A 
ATOM     20  C   UNL     1      -0.247   2.653  24.216  0.00  0.00    -0.000 A 
ATOM     21  C   UNL     1      -0.477   3.414  24.434  0.00  0.00    +0.029 A 
ATOM     22  C   UNL     1      -0.631   3.589  25.225  0.00  0.00    +0.140 A 
ATOM     23  F   UNL     1      -0.861   4.350  25.443  0.00  0.00    -0.204 F 
ATOM     24  C   UNL     1      -0.554   3.000  25.799  0.00  0.00    +0.029 A 
ATOM     25  C   UNL     1      -0.324   2.239  25.581  0.00  0.00    -0.000 A 
ENDBRANCH  18  19
ENDBRANCH  17  18
ENDBRANCH  14  15
ENDBRANCH  13  14
ENDBRANCH  12  13
TORSDOF 8
ENDMDL
MODEL 4
REMARK VINA RESULT:     -12.2      1.331      4.407
REMARK  Name = 
REMARK  8 active torsions:
REMARK  status: ('A' for Active; 'I' for Inactive)
REMARK    1  A    between atoms: C_4  and  C_5
REMARK    2  A    between atoms: C_5  and  N_6
REMARK    3  A    between atoms: N_6  and  C_7
REMARK    4  A    between atoms: C_12  and  C_13
REMARK    5  A    between atoms: C_13  and  C_14
REMARK    6  A    between atoms: C_14  and  C_15
REMARK    7  A    between atoms: N_17  and  C_18
REMARK    8  A    between atoms: C_18  and  C_19
REMARK                            x       y       z     vdW  Elec       q    Type
REMARK                         _______ _______ _______ _____ _____    ______ ____
ROOT
ATOM      7  C   UNL     1      -2.033   2.772  24.983  0.00  0.00    +0.091 C 
ATOM      8  C   UNL     1      -1.401   3.172  24.637  0.00  0.00    +0.044 C 
ATOM      9  C   UNL     1      -0.766   2.648  24.585  0.00  0.00    +0.138 C 
ATOM     10  N   UNL     1      -1.006   1.924  24.899  0.00  0.00    -0.265 NA
ATOM     11  C   UNL     1      -1.789   2.001  25.145  0.00  0.00    +0.090 C 
ATOM     12  C   UNL     1      -0.480   1.289  24.920  0.00  0.00    +0.080 C 
ATOM     26  C   UNL     1       0.286   1.378  24.628  0.00  0.00    +0.131 C 
ATOM     27  N   UNL     1       0.527   2.102  24.314  0.00  0.00    -0.203 NA
ATOM     28  C   UNL     1       0.000   2.737  24.292  0.00  0.00    +0.256 C 
ATOM     29  O   UNL     1       0.241   3.461  23.978  0.00  0.00    -0.272 OA
ENDROOT
BRANCH   7   6
ATOM      6  N   UNL     1      -2.780   3.088  25.139  0.00  0.00    -0.213 NA
BRANCH   6   5
ATOM      5  C   UNL     1      -3.443   2.792  24.751  0.00  0.00    +0.116 C 
BRANCH   5   4
ATOM      1  C   UNL     1      -5.695   4.342  25.731  0.00  0.00    +0.130 C 
ATOM      2  N   UNL     1      -5.234   3.716  25.457  0.00  0.00    -0.324 N 
ATOM      3  C   UNL     1      -4.436   3.755  25.249  0.00  0.00    +0.073 A 
ATOM      4  C   UNL     1      -4.199   3.003  25.007  0.00  0.00    +0.014 A 
ATOM     30  C   UNL     1      -4.850   2.499  25.065  0.00  0.00    +0.015 A 
ATOM     31  C   UNL     1      -5.490   2.939  25.343  0.00  0.00    +0.060 A 
ATOM     32  C   UNL     1      -6.221   2.577  25.457  0.00  0.00    +0.017 A 
ATOM     33  C   UNL     1      -6.314   1.774  25.292  0.00  0.00    +0.001 A 
ATOM     34  C   UNL     1      -5.675   1.333  25.014  0.00  0.00    +0.000 A 
ATOM     35  C   UNL     1      -4.942   1.696  24.900  0.00  0.00    +0.001 A 
ENDBRANCH   5   4
ENDBRANCH   6   5
ENDBRANCH   7   6
BRANCH  12  13
ATOM     13  C   UNL     1      -0.720   0.565  25.234  0.00  0.00    +0.027 C 
BRANCH  13  14
ATOM     14  C   UNL     1      -0.613  -0.129  24.801  0.00  0.00    +0.088 C 
BRANCH  14  15
ATOM     15  C   UNL     1      -0.981  -0.827  25.041  0.00  0.00    +0.242 C 
ATOM     16  O   UNL     1      -0.644  -1.286  25.638  0.00  0.00    -0.273 OA
ATOM     17  N   UNL     1      -1.686  -1.066  24.685  0.00  0.00    -0.201 NA
BRANCH  17  18
ATOM     18  C   UNL     1      -2.054  -1.763  24.926  0.00  0.00    +0.141 C 
BRANCH  18  19
ATOM     19  C   UNL     1      -2.775  -1.984  24.594  0.00  0.00    -0.000 A 
ATOM     20  C   UNL     1      -3.299  -1.407  24.323  0.00  0.00    -0.000 A 
ATOM     21  C   UNL     1      -4.021  -1.628  23.991  0.00  0.00    +0.029 A 
ATOM     22  C   UNL     1      -4.220  -2.426  23.928  0.00  0.00    +0.140 A 
ATOM     23  F   UNL     1      -4.942  -2.647  23.596  0.00  0.00    -0.204 F 
ATOM     24  C   UNL     1      -3.696  -3.004  24.199  0.00  0.00    +0.029 A 
ATOM     25  C   UNL     1      -2.974  -2.783  24.531  0.00  0.00    -0.000 A 
ENDBRANCH  18  19
ENDBRANCH  17  18
ENDBRANCH  14  15
ENDBRANCH  13  14
ENDBRANCH  12  13
TORSDOF 8
ENDMDL
MODEL 5
REMARK VINA RESULT:     -11.8      1.636      4.351
REMARK  Name = 
REMARK  8 active torsions:
REMARK  status: ('A' for Active; 'I' for Inactive)
REMARK    1  A    between atoms: C_4  and  C_5
REMARK    2  A    between atoms: C_5  and  N_6
REMARK    3  A    between atoms: N_6  and  C_7
REMARK    4  A    between atoms: C_12  and  C_13
REMARK    5  A    between atoms: C_13  and  C_14
REMARK    6  A    between atoms: C_14  and  C_15
REMARK    7  A    between atoms: N_17  and  C_18
REMARK    8  A    between atoms: C_18  and  C_19
REMARK                            x       y       z     vdW  Elec       q    Type
REMARK                         _______ _______ _______ _____ _____    ______ ____
ROOT
ATOM      7  C   UNL     1      -0.830   0.564  24.720  0.00  0.00    +0.091 C 
ATOM      8  C   UNL     1      -0.405  -0.099  24.965  0.00  0.00    +0.044 C 
ATOM      9  C   UNL     1      -0.915  -0.748  24.946  0.00  0.00    +0.138 C 
ATOM     10  N   UNL     1      -1.654  -0.485  24.690  0.00  0.00    -0.265 NA
ATOM     11  C   UNL     1      -1.600   0.326  24.550  0.00  0.00    +0.090 C 
ATOM     12  C   UNL     1      -2.279  -1.018  24.617  0.00  0.00    +0.080 C 
ATOM     26  C   UNL     1      -2.166  -1.814  24.801  0.00  0.00    +0.131 C 
ATOM     27  N   UNL     1      -1.427  -2.077  25.057  0.00  0.00    -0.203 NA
ATOM     28  C   UNL     1      -0.802  -1.544  25.130  0.00  0.00    +0.256 C 
ATOM     29  O   UNL     1      -0.063  -1.807  25.387  0.00  0.00    -0.272 OA
ENDROOT
BRANCH   7   6
ATOM      6  N   UNL     1      -0.533   1.332  24.656  0.00  0.00    -0.213 NA
BRANCH   6   5
ATOM      5  C   UNL     1      -0.784   1.917  25.180  0.00  0.00    +0.116 C 
BRANCH   5   4
ATOM      1  C   UNL     1      -0.093   4.380  23.806  0.00  0.00    +0.130 C 
ATOM      2  N   UNL     1      -0.446   3.842  24.321  0.00  0.00    -0.324 N 
ATOM      3  C   UNL     1      -0.288   3.033  24.363  0.00  0.00    +0.073 A 
ATOM      4  C   UNL     1      -0.764   2.710  24.953  0.00  0.00    +0.014 A 
ATOM     30  C   UNL     1      -1.218   3.319  25.277  0.00  0.00    +0.015 A 
ATOM     31  C   UNL     1      -1.021   4.018  24.887  0.00  0.00    +0.060 A 
ATOM     32  C   UNL     1      -1.391   4.725  25.096  0.00  0.00    +0.017 A 
ATOM     33  C   UNL     1      -1.958   4.733  25.696  0.00  0.00    +0.001 A 
ATOM     34  C   UNL     1      -2.154   4.033  26.086  0.00  0.00    +0.000 A 
ATOM     35  C   UNL     1      -1.784   3.325  25.877  0.00  0.00    +0.001 A 
ENDBRANCH   5   4
ENDBRANCH   6   5
ENDBRANCH   7   6
BRANCH  12  13
ATOM     13  C   UNL     1      -3.017  -0.755  24.360  0.00  0.00    +0.027 C 
BRANCH  13  14
ATOM     14  C   UNL     1      -3.666  -0.783  24.870  0.00  0.00    +0.088 C 
BRANCH  14  15
ATOM     15  C   UNL     1      -4.359  -0.380  24.678  0.00  0.00    +0.242 C 
ATOM     16  O   UNL     1      -4.921  -0.735  24.190  0.00  0.00    -0.273 OA
ATOM     17  N   UNL     1      -4.492   0.379  24.975  0.00  0.00    -0.201 NA
BRANCH  17  18
ATOM     18  C   UNL     1      -5.185   0.782  24.782  0.00  0.00    +0.141 C 
BRANCH  18  19
ATOM     19  C   UNL     1      -5.279   1.570  25.005  0.00  0.00    -0.000 A 
ATOM     20  C   UNL     1      -5.005   2.174  24.514  0.00  0.00    -0.000 A 
ATOM     21  C   UNL     1      -5.099   2.962  24.736  0.00  0.00    +0.029 A 
ATOM     22  C   UNL     1      -5.467   3.148  25.451  0.00  0.00    +0.140 A 
ATOM     23  F   UNL     1      -5.561   3.936  25.674  0.00  0.00    -0.204 F 
ATOM     24  C   UNL     1      -5.741   2.544  25.943  0.00  0.00    +0.029 A 
ATOM     25  C   UNL     1      -5.648   1.756  25.720  0.00  0.00    -0.000 A 
ENDBRANCH  18  19
ENDBRANCH  17  18
ENDBRANCH  14  15
ENDBRANCH  13  14
ENDBRANCH  12  13
TORSDOF 8
ENDMDL
MODEL 6
REMARK VINA RESULT:     -11.7      1.614      2.833
REMARK  Name = 
REMARK  8 active torsions:
REMARK  status: ('A' for Active; 'I' for Inactive)
REMARK    1  A    between atoms: C_4  and  C_5
REMARK    2  A    between atoms: C_5  and  N_6
REMARK    3  A    between atoms: N_6  and  C_7
REMARK    4  A    between atoms: C_12  and  C_13
REMARK    5  A    between atoms: C_13  and  C_14
REMARK    6  A    between atoms: C_14  and  C_15
REMARK    7  A    between atoms: N_17  and  C_18
REMARK    8  A    between atoms: C_18  and  C_19
REMARK                            x       y       z     vdW  Elec       q    Type
REMARK                         _______ _______ _______ _____ _____    ______ ____
ROOT
ATOM      7  C   UNL     1      -0.723   2.904  24.947  0.00  0.00    +0.091 C 
ATOM      8  C   UNL     1      -0.460   3.677  24.829  0.00  0.00    +0.044 C 
ATOM      9  C   UNL     1      -1.074   4.189  25.034  0.00  0.00    +0.138 C 
ATOM     10  N   UNL     1      -1.715   3.732  25.280  0.00  0.00    -0.265 NA
ATOM     11  C   UNL     1      -1.498   2.938  25.226  0.00  0.00    +0.090 C 
ATOM     12  C   UNL     1      -2.414   4.098  25.521  0.00  0.00    +0.080 C 
ATOM     26  C   UNL     1      -2.472   4.921  25.516  0.00  0.00    +0.131 C 
ATOM     27  N   UNL     1      -1.830   5.378  25.271  0.00  0.00    -0.203 NA
ATOM     28  C   UNL     1      -1.131   5.012  25.030  0.00  0.00    +0.256 C 
ATOM     29  O   UNL     1      -0.489   5.469  24.784  0.00  0.00    -0.272 OA
ENDROOT
BRANCH   7   6
ATOM      6  N   UNL     1      -0.285   2.218  24.811  0.00  0.00    -0.213 NA
BRANCH   6   5
ATOM      5  C   UNL     1      -0.564   1.490  25.077  0.00  0.00    +0.116 C 
BRANCH   5   4
ATOM      1  C   UNL     1       0.486  -0.336  23.078  0.00  0.00    +0.130 C 
ATOM      2  N   UNL     1       0.119  -0.041  23.755  0.00  0.00    -0.324 N 
ATOM      3  C   UNL     1       0.036   0.756  23.954  0.00  0.00    +0.073 A 
ATOM      4  C   UNL     1      -0.364   0.798  24.674  0.00  0.00    +0.014 A 
ATOM     30  C   UNL     1      -0.529   0.028  24.920  0.00  0.00    +0.015 A 
ATOM     31  C   UNL     1      -0.231  -0.491  24.352  0.00  0.00    +0.060 A 
ATOM     32  C   UNL     1      -0.316  -1.304  24.453  0.00  0.00    +0.017 A 
ATOM     33  C   UNL     1      -0.699  -1.601  25.121  0.00  0.00    +0.001 A 
ATOM     34  C   UNL     1      -0.997  -1.082  25.689  0.00  0.00    +0.000 A 
ATOM     35  C   UNL     1      -0.912  -0.267  25.589  0.00  0.00    +0.001 A 
ENDBRANCH   5   4
ENDBRANCH   6   5
ENDBRANCH   7   6
BRANCH  12  13
ATOM     13  C   UNL     1      -3.055   3.641  25.767  0.00  0.00    +0.027 C 
BRANCH  13  14
ATOM     14  C   UNL     1      -3.761   3.656  25.338  0.00  0.00    +0.088 C 
BRANCH  14  15
ATOM     15  C   UNL     1      -4.302   3.039  25.414  0.00  0.00    +0.242 C 
ATOM     16  O   UNL     1      -4.961   3.125  25.903  0.00  0.00    -0.273 OA
ATOM     17  N   UNL     1      -4.185   2.334  25.000  0.00  0.00    -0.201 NA
BRANCH  17  18
ATOM     18  C   UNL     1      -4.727   1.717  25.076  0.00  0.00    +0.141 C 
BRANCH  18  19
ATOM     19  C   UNL     1      -4.534   0.964  24.801  0.00  0.00    -0.000 A 
ATOM     20  C   UNL     1      -4.658   0.304  25.283  0.00  0.00    -0.000 A 
ATOM     21  C   UNL     1      -4.465  -0.449  25.008  0.00  0.00    +0.029 A 
ATOM     22  C   UNL     1      -4.148  -0.545  24.253  0.00  0.00    +0.140 A 
ATOM     23  F   UNL     1      -3.955  -1.298  23.979  0.00  0.00    -0.204 F 
ATOM     24  C   UNL     1      -4.024   0.115  23.772  0.00  0.00    +0.029 A 
ATOM     25  C   UNL     1      -4.217   0.868  24.046  0.00  0.00    -0.000 A 
ENDBRANCH  18  19
ENDBRANCH  17  18
ENDBRANCH  14  15
ENDBRANCH  13  14
ENDBRANCH  12  13
TORSDOF 8
ENDMDL
MODEL 7
REMARK VINA RESULT:     -11.2      2.098      5.700
REMARK  Name = 
REMARK  8 active torsions:
REMARK  status: ('A' for Active; 'I' for Inactive)
REMARK    1  A    between atoms: C_4  and  C_5
REMARK    2  A    between atoms: C_5  and  N_6
REMARK    3  A    between atoms: N_6  and  C_7
REMARK    4  A    between atoms: C_12  and  C_13
REMARK    5  A    between atoms: C_13  and  C_14
REMARK    6  A    between atoms: C_14  and  C_15
REMARK    7  A    between atoms: N_17  and  C_18
REMARK    8  A    between atoms: C_18  and  C_19
REMARK                            x       y       z     vdW  Elec       q    Type
REMARK                         _______ _______ _______ _____ _____    ______ ____
ROOT
ATOM      7  C   UNL     1      -3.974   3.269  25.215  0.00  0.00    +0.091 C 
ATOM      8  C   UNL     1      -4.704   3.465  25.547  0.00  0.00    +0.044 C 
ATOM      9  C   UNL     1      -5.197   2.806  25.481  0.00  0.00    +0.138 C 
ATOM     10  N   UNL     1      -4.772   2.205  25.109  0.00  0.00    -0.265 NA
ATOM     11  C   UNL     1      -4.017   2.491  24.945  0.00  0.00    +0.090 C 
ATOM     12  C   UNL     1      -5.129   1.475  24.968  0.00  0.00    +0.080 C 
ATOM     26  C   UNL     1      -5.911   1.346  25.199  0.00  0.00    +0.131 C 
ATOM     27  N   UNL     1      -6.335   1.947  25.571  0.00  0.00    -0.203 NA
ATOM     28  C   UNL     1      -5.978   2.678  25.712  0.00  0.00    +0.256 C 
ATOM     29  O   UNL     1      -6.403   3.280  26.085  0.00  0.00    -0.272 OA
ENDROOT
BRANCH   7   6
ATOM      6  N   UNL     1      -3.317   3.766  25.163  0.00  0.00    -0.213 NA
BRANCH   6   5
ATOM      5  C   UNL     1      -2.702   3.697  25.708  0.00  0.00    +0.116 C 
BRANCH   5   4
ATOM      1  C   UNL     1      -0.428   5.128  24.608  0.00  0.00    +0.130 C 
ATOM      2  N   UNL     1      -0.887   4.555  24.983  0.00  0.00    -0.324 N 
ATOM      3  C   UNL     1      -1.705   4.580  25.087  0.00  0.00    +0.073 A 
ATOM      4  C   UNL     1      -1.932   3.897  25.489  0.00  0.00    +0.014 A 
ATOM     30  C   UNL     1      -1.255   3.449  25.634  0.00  0.00    +0.015 A 
ATOM     31  C   UNL     1      -0.608   3.855  25.322  0.00  0.00    +0.060 A 
ATOM     32  C   UNL     1       0.149   3.536  25.385  0.00  0.00    +0.017 A 
ATOM     33  C   UNL     1       0.262   2.811  25.761  0.00  0.00    +0.001 A 
ATOM     34  C   UNL     1      -0.384   2.404  26.074  0.00  0.00    +0.000 A 
ATOM     35  C   UNL     1      -1.143   2.723  26.011  0.00  0.00    +0.001 A 
ENDBRANCH   5   4
ENDBRANCH   6   5
ENDBRANCH   7   6
BRANCH  12  13
ATOM     13  C   UNL     1      -4.704   0.874  24.596  0.00  0.00    +0.027 C 
BRANCH  13  14
ATOM     14  C   UNL     1      -4.690   0.116  24.923  0.00  0.00    +0.088 C 
BRANCH  14  15
ATOM     15  C   UNL     1      -4.241  -0.478  24.568  0.00  0.00    +0.242 C 
ATOM     16  O   UNL     1      -4.526  -0.868  23.899  0.00  0.00    -0.273 OA
ATOM     17  N   UNL     1      -3.504  -0.681  24.881  0.00  0.00    -0.201 NA
BRANCH  17  18
ATOM     18  C   UNL     1      -3.055  -1.275  24.526  0.00  0.00    +0.141 C 
BRANCH  18  19
ATOM     19  C   UNL     1      -2.287  -1.422  24.787  0.00  0.00    -0.000 A 
ATOM     20  C   UNL     1      -1.876  -0.842  25.208  0.00  0.00    -0.000 A 
ATOM     21  C   UNL     1      -1.108  -0.989  25.469  0.00  0.00    +0.029 A 
ATOM     22  C   UNL     1      -0.749  -1.715  25.310  0.00  0.00    +0.140 A 
ATOM     23  F   UNL     1       0.019  -1.862  25.572  0.00  0.00    -0.204 F 
ATOM     24  C   UNL     1      -1.160  -2.295  24.890  0.00  0.00    +0.029 A 
ATOM     25  C   UNL     1      -1.928  -2.148  24.629  0.00  0.00    -0.000 A 
ENDBRANCH  18  19
ENDBRANCH  17  18
ENDBRANCH  14  15
ENDBRANCH  13  14
ENDBRANCH  12  13
TORSDOF 8
ENDMDL
