MODEL 1
REMARK VINA RESULT:     -11.7      0.000      0.000
REMARK  Name = 
REMARK  4 active torsions:
REMARK  status: ('A' for Active; 'I' for Inactive)
REMARK    1  A    between atoms: C_3  and  C_12
REMARK    2  A    between atoms: N_4  and  C_6
REMARK    3  A    between atoms: C_14  and  C_17
REMARK    4  A    between atoms: C_20  and  C_23
REMARK                            x       y       z     vdW  Elec       q    Type
REMARK                         _______ _______ _______ _____ _____    ______ ____
ROOT
ATOM     12  C   UNL     1      -3.139   2.904  24.934  0.00  0.00    +0.251 A 
ATOM     13  N   UNL     1      -3.224   2.115  25.164  0.00  0.00    -0.190 NA
ATOM     14  C   UNL     1      -3.301   1.658  24.481  0.00  0.00    +0.205 A 
ATOM     15  N   UNL     1      -3.263   2.164  23.831  0.00  0.00    -0.056 NA
ATOM     16  O   UNL     1      -3.163   2.932  24.111  0.00  0.00    -0.336 OA
ENDROOT
BRANCH  14  17
ATOM     17  C   UNL     1      -3.399   0.839  24.455  0.00  0.00    +0.058 A 
ATOM     18  C   UNL     1      -4.121   0.503  24.669  0.00  0.00    +0.006 A 
ATOM     19  C   UNL     1      -4.219  -0.316  24.642  0.00  0.00    +0.019 A 
ATOM     20  C   UNL     1      -3.594  -0.798  24.401  0.00  0.00    +0.081 A 
ATOM     21  N   UNL     1      -2.872  -0.462  24.187  0.00  0.00    -0.244 NA
ATOM     22  C   UNL     1      -2.774   0.357  24.214  0.00  0.00    +0.102 A 
BRANCH  20  23
ATOM     23  C   UNL     1      -3.692  -1.617  24.375  0.00  0.00    +0.021 A 
ATOM     24  C   UNL     1      -4.171  -1.956  23.795  0.00  0.00    +0.022 A 
ATOM     25  C   UNL     1      -4.268  -2.775  23.768  0.00  0.00    +0.099 A 
ATOM     26  N   UNL     1      -3.888  -3.254  24.321  0.00  0.00    -0.242 NA
ATOM     27  C   UNL     1      -3.409  -2.915  24.901  0.00  0.00    +0.099 A 
ATOM     28  C   UNL     1      -3.312  -2.096  24.928  0.00  0.00    +0.022 A 
ENDBRANCH  20  23
ENDBRANCH  14  17
BRANCH  12   3
ATOM      1  C   UNL     1      -3.312   4.578  26.247  0.00  0.00    +0.019 C 
ATOM      2  C   UNL     1      -3.654   3.988  25.782  0.00  0.00    +0.027 C 
ATOM      3  C   UNL     1      -3.046   3.548  25.440  0.00  0.00    +0.138 C 
ATOM      4  N   UNL     1      -2.329   3.866  25.693  0.00  0.00    -0.268 NA
ATOM      5  C   UNL     1      -2.492   4.503  26.192  0.00  0.00    +0.072 C 
BRANCH   4   6
ATOM      6  C   UNL     1      -1.578   3.595  25.484  0.00  0.00    +0.063 C 
ATOM      7  C   UNL     1      -1.190   3.045  25.961  0.00  0.00    +0.048 C 
ATOM      8  C   UNL     1      -0.439   2.774  25.752  0.00  0.00    +0.144 C 
ATOM      9  O   UNL     1      -0.077   3.053  25.067  0.00  0.00    -0.354 OA
ATOM     10  C   UNL     1      -0.463   3.603  24.589  0.00  0.00    +0.144 C 
ATOM     11  C   UNL     1      -1.214   3.874  24.798  0.00  0.00    +0.048 C 
ENDBRANCH   4   6
ENDBRANCH  12   3
TORSDOF 4
ENDMDL
MODEL 2
REMARK VINA RESULT:     -11.1      0.892      1.933
REMARK  Name = 
REMARK  4 active torsions:
REMARK  status: ('A' for Active; 'I' for Inactive)
REMARK    1  A    between atoms: C_3  and  C_12
REMARK    2  A    between atoms: N_4  and  C_6
REMARK    3  A    between atoms: C_14  and  C_17
REMARK    4  A    between atoms: C_20  and  C_23
REMARK                            x       y       z     vdW  Elec       q    Type
REMARK                         _______ _______ _______ _____ _____    ______ ____
ROOT
ATOM     12  C   UNL     1      -2.274   2.758  24.363  0.00  0.00    +0.251 A 
ATOM     13  N   UNL     1      -2.390   2.014  24.700  0.00  0.00    -0.190 NA
ATOM     14  C   UNL     1      -2.661   1.506  24.110  0.00  0.00    +0.205 A 
ATOM     15  N   UNL     1      -2.713   1.936  23.408  0.00  0.00    -0.056 NA
ATOM     16  O   UNL     1      -2.475   2.709  23.564  0.00  0.00    -0.336 OA
ENDROOT
BRANCH  14  17
ATOM     17  C   UNL     1      -2.848   0.707  24.205  0.00  0.00    +0.058 A 
ATOM     18  C   UNL     1      -3.634   0.461  24.166  0.00  0.00    +0.006 A 
ATOM     19  C   UNL     1      -3.820  -0.338  24.261  0.00  0.00    +0.019 A 
ATOM     20  C   UNL     1      -3.221  -0.888  24.395  0.00  0.00    +0.081 A 
ATOM     21  N   UNL     1      -2.435  -0.642  24.434  0.00  0.00    -0.244 NA
ATOM     22  C   UNL     1      -2.248   0.157  24.339  0.00  0.00    +0.102 A 
BRANCH  20  23
ATOM     23  C   UNL     1      -3.407  -1.687  24.490  0.00  0.00    +0.021 A 
ATOM     24  C   UNL     1      -3.855  -2.076  23.917  0.00  0.00    +0.022 A 
ATOM     25  C   UNL     1      -4.041  -2.875  24.012  0.00  0.00    +0.099 A 
ATOM     26  N   UNL     1      -3.780  -3.283  24.680  0.00  0.00    -0.242 NA
ATOM     27  C   UNL     1      -3.333  -2.893  25.253  0.00  0.00    +0.099 A 
ATOM     28  C   UNL     1      -3.146  -2.095  25.158  0.00  0.00    +0.022 A 
ENDBRANCH  20  23
ENDBRANCH  14  17
BRANCH  12   3
ATOM      1  C   UNL     1      -1.205   4.376  25.255  0.00  0.00    +0.019 C 
ATOM      2  C   UNL     1      -1.220   3.677  24.816  0.00  0.00    +0.027 C 
ATOM      3  C   UNL     1      -2.006   3.432  24.755  0.00  0.00    +0.138 C 
ATOM      4  N   UNL     1      -2.475   3.978  25.156  0.00  0.00    -0.268 NA
ATOM      5  C   UNL     1      -1.981   4.562  25.465  0.00  0.00    +0.072 C 
BRANCH   4   6
ATOM      6  C   UNL     1      -3.295   3.947  25.235  0.00  0.00    +0.063 C 
ATOM      7  C   UNL     1      -3.779   4.215  24.623  0.00  0.00    +0.048 C 
ATOM      8  C   UNL     1      -4.600   4.184  24.702  0.00  0.00    +0.144 C 
ATOM      9  O   UNL     1      -4.937   3.884  25.392  0.00  0.00    -0.354 OA
ATOM     10  C   UNL     1      -4.453   3.616  26.005  0.00  0.00    +0.144 C 
ATOM     11  C   UNL     1      -3.633   3.647  25.926  0.00  0.00    +0.048 C 
ENDBRANCH   4   6
ENDBRANCH  12   3
TORSDOF 4
ENDMDL
MODEL 3
REMARK VINA RESULT:      -9.7      1.855      5.694
REMARK  Name = 
REMARK  4 active torsions:
REMARK  status: ('A' for Active; 'I' for Inactive)
REMARK    1  A    between atoms: C_3  and  C_12
REMARK    2  A    between atoms: N_4  and  C_6
REMARK    3  A    between atoms: C_14  and  C_17
REMARK    4  A    between atoms: C_20  and  C_23
REMARK                            x       y       z     vdW  Elec       q    Type
REMARK                         _______ _______ _______ _____ _____    ______ ____
ROOT
ATOM     12  C   UNL     1      -1.317  -0.655  25.207  0.00  0.00    +0.251 A 
ATOM     13  N   UNL     1      -1.326   0.098  24.869  0.00  0.00    -0.190 NA
ATOM     14  C   UNL     1      -1.267   0.651  25.478  0.00  0.00    +0.205 A 
ATOM     15  N   UNL     1      -1.222   0.241  26.192  0.00  0.00    -0.056 NA
ATOM     16  O   UNL     1      -1.253  -0.565  26.024  0.00  0.00    -0.336 OA
ENDROOT
BRANCH  14  17
ATOM     17  C   UNL     1      -1.255   1.472  25.389  0.00  0.00    +0.058 A 
ATOM     18  C   UNL     1      -0.637   1.913  25.711  0.00  0.00    +0.006 A 
ATOM     19  C   UNL     1      -0.625   2.733  25.621  0.00  0.00    +0.019 A 
ATOM     20  C   UNL     1      -1.231   3.112  25.210  0.00  0.00    +0.081 A 
ATOM     21  N   UNL     1      -1.850   2.671  24.888  0.00  0.00    -0.244 NA
ATOM     22  C   UNL     1      -1.862   1.851  24.977  0.00  0.00    +0.102 A 
BRANCH  20  23
ATOM     23  C   UNL     1      -1.220   3.932  25.121  0.00  0.00    +0.021 A 
ATOM     24  C   UNL     1      -1.846   4.387  25.407  0.00  0.00    +0.022 A 
ATOM     25  C   UNL     1      -1.834   5.207  25.318  0.00  0.00    +0.099 A 
ATOM     26  N   UNL     1      -1.196   5.572  24.942  0.00  0.00    -0.242 NA
ATOM     27  C   UNL     1      -0.570   5.118  24.656  0.00  0.00    +0.099 A 
ATOM     28  C   UNL     1      -0.582   4.297  24.745  0.00  0.00    +0.022 A 
ENDBRANCH  20  23
ENDBRANCH  14  17
BRANCH  12   3
ATOM      1  C   UNL     1      -1.027  -2.478  24.136  0.00  0.00    +0.019 C 
ATOM      2  C   UNL     1      -0.728  -1.803  24.503  0.00  0.00    +0.027 C 
ATOM      3  C   UNL     1      -1.365  -1.369  24.798  0.00  0.00    +0.138 C 
ATOM      4  N   UNL     1      -2.057  -1.777  24.613  0.00  0.00    -0.268 NA
ATOM      5  C   UNL     1      -1.849  -2.462  24.204  0.00  0.00    +0.072 C 
BRANCH   4   6
ATOM      6  C   UNL     1      -2.824  -1.541  24.804  0.00  0.00    +0.063 C 
ATOM      7  C   UNL     1      -3.124  -1.683  25.559  0.00  0.00    +0.048 C 
ATOM      8  C   UNL     1      -3.891  -1.447  25.750  0.00  0.00    +0.144 C 
ATOM      9  O   UNL     1      -4.358  -1.068  25.186  0.00  0.00    -0.354 OA
ATOM     10  C   UNL     1      -4.059  -0.925  24.431  0.00  0.00    +0.144 C 
ATOM     11  C   UNL     1      -3.292  -1.161  24.240  0.00  0.00    +0.048 C 
ENDBRANCH   4   6
ENDBRANCH  12   3
TORSDOF 4
ENDMDL
MODEL 4
REMARK VINA RESULT:      -9.6      2.107      5.024
REMARK  Name = 
REMARK  4 active torsions:
REMARK  status: ('A' for Active; 'I' for Inactive)
REMARK    1  A    between atoms: C_3  and  C_12
REMARK    2  A    between atoms: N_4  and  C_6
REMARK    3  A    between atoms: C_14  and  C_17
REMARK    4  A    between atoms: C_20  and  C_23
REMARK                            x       y       z     vdW  Elec       q    Type
REMARK                         _______ _______ _______ _____ _____    ______ ____
ROOT
ATOM     12  C   UNL     1      -3.430  -1.180  24.202  0.00  0.00    +0.251 A 
ATOM     13  N   UNL     1      -3.738  -0.586  24.685  0.00  0.00    -0.190 NA
ATOM     14  C   UNL     1      -3.845   0.089  24.222  0.00  0.00    +0.205 A 
ATOM     15  N   UNL     1      -3.603  -0.088  23.454  0.00  0.00    -0.056 NA
ATOM     16  O   UNL     1      -3.347  -0.871  23.441  0.00  0.00    -0.336 OA
ENDROOT
BRANCH  14  17
ATOM     17  C   UNL     1      -4.142   0.814  24.483  0.00  0.00    +0.058 A 
ATOM     18  C   UNL     1      -4.808   0.835  24.969  0.00  0.00    +0.006 A 
ATOM     19  C   UNL     1      -5.105   1.560  25.229  0.00  0.00    +0.019 A 
ATOM     20  C   UNL     1      -4.735   2.262  25.004  0.00  0.00    +0.081 A 
ATOM     21  N   UNL     1      -4.069   2.240  24.518  0.00  0.00    -0.244 NA
ATOM     22  C   UNL     1      -3.772   1.516  24.257  0.00  0.00    +0.102 A 
BRANCH  20  23
ATOM     23  C   UNL     1      -5.032   2.987  25.264  0.00  0.00    +0.021 A 
ATOM     24  C   UNL     1      -5.822   3.050  25.493  0.00  0.00    +0.022 A 
ATOM     25  C   UNL     1      -6.119   3.775  25.754  0.00  0.00    +0.099 A 
ATOM     26  N   UNL     1      -5.626   4.435  25.785  0.00  0.00    -0.242 NA
ATOM     27  C   UNL     1      -4.836   4.372  25.557  0.00  0.00    +0.099 A 
ATOM     28  C   UNL     1      -4.539   3.647  25.296  0.00  0.00    +0.022 A 
ENDBRANCH  20  23
ENDBRANCH  14  17
BRANCH  12   3
ATOM      1  C   UNL     1      -3.327  -3.252  24.705  0.00  0.00    +0.019 C 
ATOM      2  C   UNL     1      -3.744  -2.599  24.420  0.00  0.00    +0.027 C 
ATOM      3  C   UNL     1      -3.239  -1.946  24.438  0.00  0.00    +0.138 C 
ATOM      4  N   UNL     1      -2.512  -2.195  24.734  0.00  0.00    -0.268 NA
ATOM      5  C   UNL     1      -2.564  -3.002  24.899  0.00  0.00    +0.072 C 
BRANCH   4   6
ATOM      6  C   UNL     1      -1.846  -1.721  24.846  0.00  0.00    +0.063 C 
ATOM      7  C   UNL     1      -1.296  -1.632  24.238  0.00  0.00    +0.048 C 
ATOM      8  C   UNL     1      -0.630  -1.157  24.349  0.00  0.00    +0.144 C 
ATOM      9  O   UNL     1      -0.515  -0.771  25.069  0.00  0.00    -0.354 OA
ATOM     10  C   UNL     1      -1.065  -0.860  25.678  0.00  0.00    +0.144 C 
ATOM     11  C   UNL     1      -1.730  -1.334  25.566  0.00  0.00    +0.048 C 
ENDBRANCH   4   6
ENDBRANCH  12   3
TORSDOF 4
ENDMDL
MODEL 5
REMARK VINA RESULT:      -9.3      3.079      5.065
REMARK  Name = 
REMARK  4 active torsions:
REMARK  status: ('A' for Active; 'I' for Inactive)
REMARK    1  A    between atoms: C_3  and  C_12
REMARK    2  A    between atoms: N_4  and  C_6
REMARK    3  A    between atoms: C_14  and  C_17
REMARK    4  A    between atoms: C_20  and  C_23
REMARK                            x       y       z     vdW  Elec       q    Type
REMARK                         _______ _______ _______ _____ _____    ______ ____
ROOT
ATOM     12  C   UNL     1      -2.579   0.241  24.943  0.00  0.00    +0.251 A 
ATOM     13  N   UNL     1      -2.041   0.297  24.319  0.00  0.00    -0.190 NA
ATOM     14  C   UNL     1      -1.287   0.145  24.618  0.00  0.00    +0.205 A 
ATOM     15  N   UNL     1      -1.359  -0.004  25.426  0.00  0.00    -0.056 NA
ATOM     16  O   UNL     1      -2.156   0.055  25.626  0.00  0.00    -0.336 OA
ENDROOT
BRANCH  14  17
ATOM     17  C   UNL     1      -0.585   0.144  24.185  0.00  0.00    +0.058 A 
ATOM     18  C   UNL     1      -0.268   0.854  23.911  0.00  0.00    +0.006 A 
ATOM     19  C   UNL     1       0.434   0.853  23.477  0.00  0.00    +0.019 A 
ATOM     20  C   UNL     1       0.819   0.141  23.318  0.00  0.00    +0.081 A 
ATOM     21  N   UNL     1       0.503  -0.570  23.593  0.00  0.00    -0.244 NA
ATOM     22  C   UNL     1      -0.200  -0.568  24.026  0.00  0.00    +0.102 A 
BRANCH  20  23
ATOM     23  C   UNL     1       1.522   0.139  22.885  0.00  0.00    +0.021 A 
ATOM     24  C   UNL     1       2.197   0.497  23.194  0.00  0.00    +0.022 A 
ATOM     25  C   UNL     1       2.900   0.496  22.761  0.00  0.00    +0.099 A 
ATOM     26  N   UNL     1       2.926   0.136  22.019  0.00  0.00    -0.242 NA
ATOM     27  C   UNL     1       2.251  -0.223  21.710  0.00  0.00    +0.099 A 
ATOM     28  C   UNL     1       1.548  -0.221  22.143  0.00  0.00    +0.022 A 
ENDBRANCH  20  23
ENDBRANCH  14  17
BRANCH  12   3
ATOM      1  C   UNL     1      -4.595   0.931  24.832  0.00  0.00    +0.019 C 
ATOM      2  C   UNL     1      -3.786   1.078  24.894  0.00  0.00    +0.027 C 
ATOM      3  C   UNL     1      -3.394   0.352  24.891  0.00  0.00    +0.138 C 
ATOM      4  N   UNL     1      -3.961  -0.242  24.826  0.00  0.00    -0.268 NA
ATOM      5  C   UNL     1      -4.704   0.114  24.789  0.00  0.00    +0.072 C 
BRANCH   4   6
ATOM      6  C   UNL     1      -3.812  -1.053  24.801  0.00  0.00    +0.063 C 
ATOM      7  C   UNL     1      -3.669  -1.468  25.500  0.00  0.00    +0.048 C 
ATOM      8  C   UNL     1      -3.520  -2.279  25.475  0.00  0.00    +0.144 C 
ATOM      9  O   UNL     1      -3.513  -2.676  24.752  0.00  0.00    -0.354 OA
ATOM     10  C   UNL     1      -3.656  -2.262  24.053  0.00  0.00    +0.144 C 
ATOM     11  C   UNL     1      -3.805  -1.451  24.077  0.00  0.00    +0.048 C 
ENDBRANCH   4   6
ENDBRANCH  12   3
TORSDOF 4
ENDMDL
MODEL 6
REMARK VINA RESULT:      -9.2      1.684      5.218
REMARK  Name = 
REMARK  4 active torsions:
REMARK  status: ('A' for Active; 'I' for Inactive)
REMARK    1  A    between atoms: C_3  and  C_12
REMARK    2  A    between atoms: N_4  and  C_6
REMARK    3  A    between atoms: C_14  and  C_17
REMARK    4  A    between atoms: C_20  and  C_23
REMARK                            x       y       z     vdW  Elec       q    Type
REMARK                         _______ _______ _______ _____ _____    ______ ____
ROOT
ATOM     12  C   UNL     1      -3.091  -0.359  24.256  0.00  0.00    +0.251 A 
ATOM     13  N   UNL     1      -2.866   0.314  24.678  0.00  0.00    -0.190 NA
ATOM     14  C   UNL     1      -2.728   0.920  24.136  0.00  0.00    +0.205 A 
ATOM     15  N   UNL     1      -2.868   0.623  23.380  0.00  0.00    -0.056 NA
ATOM     16  O   UNL     1      -3.093  -0.167  23.454  0.00  0.00    -0.336 OA
ENDROOT
BRANCH  14  17
ATOM     17  C   UNL     1      -2.491   1.689  24.318  0.00  0.00    +0.058 A 
ATOM     18  C   UNL     1      -2.924   2.136  24.860  0.00  0.00    +0.006 A 
ATOM     19  C   UNL     1      -2.687   2.905  25.043  0.00  0.00    +0.019 A 
ATOM     20  C   UNL     1      -2.018   3.227  24.684  0.00  0.00    +0.081 A 
ATOM     21  N   UNL     1      -1.585   2.780  24.142  0.00  0.00    -0.244 NA
ATOM     22  C   UNL     1      -1.822   2.011  23.959  0.00  0.00    +0.102 A 
BRANCH  20  23
ATOM     23  C   UNL     1      -1.781   3.996  24.867  0.00  0.00    +0.021 A 
ATOM     24  C   UNL     1      -0.996   4.223  24.753  0.00  0.00    +0.022 A 
ATOM     25  C   UNL     1      -0.759   4.992  24.936  0.00  0.00    +0.099 A 
ATOM     26  N   UNL     1      -1.307   5.534  25.232  0.00  0.00    -0.242 NA
ATOM     27  C   UNL     1      -2.092   5.306  25.345  0.00  0.00    +0.099 A 
ATOM     28  C   UNL     1      -2.329   4.537  25.162  0.00  0.00    +0.022 A 
ENDBRANCH  20  23
ENDBRANCH  14  17
BRANCH  12   3
ATOM      1  C   UNL     1      -3.976  -2.143  25.025  0.00  0.00    +0.019 C 
ATOM      2  C   UNL     1      -4.043  -1.395  24.684  0.00  0.00    +0.027 C 
ATOM      3  C   UNL     1      -3.282  -1.093  24.580  0.00  0.00    +0.138 C 
ATOM      4  N   UNL     1      -2.746  -1.654  24.856  0.00  0.00    -0.268 NA
ATOM      5  C   UNL     1      -3.173  -2.303  25.132  0.00  0.00    +0.072 C 
BRANCH   4   6
ATOM      6  C   UNL     1      -1.924  -1.580  24.858  0.00  0.00    +0.063 C 
ATOM      7  C   UNL     1      -1.537  -1.280  25.522  0.00  0.00    +0.048 C 
ATOM      8  C   UNL     1      -0.716  -1.206  25.523  0.00  0.00    +0.144 C 
ATOM      9  O   UNL     1      -0.281  -1.432  24.860  0.00  0.00    -0.354 OA
ATOM     10  C   UNL     1      -0.666  -1.733  24.196  0.00  0.00    +0.144 C 
ATOM     11  C   UNL     1      -1.488  -1.807  24.194  0.00  0.00    +0.048 C 
ENDBRANCH   4   6
ENDBRANCH  12   3
TORSDOF 4
ENDMDL
