MODEL 1
REMARK VINA RESULT:     -13.9      0.000      0.000
REMARK  Name = 
REMARK  3 active torsions:
REMARK  status: ('A' for Active; 'I' for Inactive)
REMARK    1  A    between atoms: O_2  and  C_3
REMARK    2  A    between atoms: C_6  and  C_9
REMARK    3  A    between atoms: N_17  and  S_19
REMARK                            x       y       z     vdW  Elec       q    Type
REMARK                         _______ _______ _______ _____ _____    ______ ____
ROOT
ATOM      9  C   UNL     1      -4.315   0.565  24.885  0.00  0.00    +0.056 A 
ATOM     10  C   UNL     1      -5.039   0.771  25.224  0.00  0.00    +0.006 A 
ATOM     11  C   UNL     1      -5.235   1.566  25.326  0.00  0.00    +0.013 A 
ATOM     12  C   UNL     1      -4.708   2.154  25.089  0.00  0.00    +0.041 A 
ATOM     13  C   UNL     1      -4.625   3.069  25.063  0.00  0.00    +0.056 C 
ATOM     14  C   UNL     1      -4.967   3.658  25.231  0.00  0.00    +0.011 C 
ATOM     15  C   UNL     1      -4.254   3.451  24.896  0.00  0.00    +0.041 C 
ATOM     16  C   UNL     1      -3.360   3.404  24.479  0.00  0.00    +0.097 C 
ATOM     17  N   UNL     1      -3.273   2.574  24.427  0.00  0.00    -0.159 NA
ATOM     18  C   UNL     1      -3.759   3.040  24.660  0.00  0.00    +0.101 C 
ATOM     23  C   UNL     1      -4.332   2.494  24.919  0.00  0.00    +0.110 C 
ATOM     24  N   UNL     1      -3.985   1.948  24.750  0.00  0.00    -0.299 N 
ATOM     25  C   UNL     1      -3.788   1.153  24.647  0.00  0.00    +0.261 A 
ATOM     26  O   UNL     1      -3.065   0.947  24.308  0.00  0.00    -0.267 OA
ENDROOT
BRANCH   9   6
ATOM      3  C   UNL     1      -3.728  -1.820  24.580  0.00  0.00    +0.139 A 
ATOM      4  C   UNL     1      -4.127  -1.415  23.983  0.00  0.00    +0.037 A 
ATOM      5  C   UNL     1      -4.323  -0.619  24.084  0.00  0.00    +0.003 A 
ATOM      6  C   UNL     1      -4.120  -0.230  24.783  0.00  0.00    +0.005 A 
ATOM      7  C   UNL     1      -3.720  -0.636  25.380  0.00  0.00    +0.003 A 
ATOM      8  C   UNL     1      -3.525  -1.431  25.279  0.00  0.00    +0.037 A 
BRANCH   3   2
ATOM      1  C   UNL     1      -2.750  -2.860  24.562  0.00  0.00    +0.252 C 
ATOM      2  O   UNL     1      -3.532  -2.615  24.479  0.00  0.00    -0.471 OA
ENDBRANCH   3   2
ENDBRANCH   9   6
BRANCH  17  19
ATOM     19  S   UNL     1      -2.925   1.846  24.255  0.00  0.00    +0.046 S 
ATOM     20  C   UNL     1      -3.200   1.898  23.478  0.00  0.00    +0.196 C 
ATOM     21  O   UNL     1      -2.650   1.794  25.032  0.00  0.00    -0.157 OA
ATOM     22  O   UNL     1      -2.577   1.118  24.083  0.00  0.00    -0.157 OA
ENDBRANCH  17  19
TORSDOF 3
ENDMDL
MODEL 2
REMARK VINA RESULT:     -13.3      1.484      4.034
REMARK  Name = 
REMARK  3 active torsions:
REMARK  status: ('A' for Active; 'I' for Inactive)
REMARK    1  A    between atoms: O_2  and  C_3
REMARK    2  A    between atoms: C_6  and  C_9
REMARK    3  A    between atoms: N_17  and  S_19
REMARK                            x       y       z     vdW  Elec       q    Type
REMARK                         _______ _______ _______ _____ _____    ______ ____
ROOT
ATOM      9  C   UNL     1      -3.774   0.146  24.338  0.00  0.00    +0.056 A 
ATOM     10  C   UNL     1      -4.410  -0.288  24.040  0.00  0.00    +0.006 A 
ATOM     11  C   UNL     1      -4.384  -1.113  24.044  0.00  0.00    +0.013 A 
ATOM     12  C   UNL     1      -3.723  -1.503  24.345  0.00  0.00    +0.041 A 
ATOM     13  C   UNL     1      -3.397  -2.351  24.486  0.00  0.00    +0.056 C 
ATOM     14  C   UNL     1      -3.567  -3.027  24.401  0.00  0.00    +0.011 C 
ATOM     15  C   UNL     1      -2.941  -2.595  24.694  0.00  0.00    +0.041 C 
ATOM     16  C   UNL     1      -2.099  -2.257  25.085  0.00  0.00    +0.097 C 
ATOM     17  N   UNL     1      -2.239  -1.435  25.029  0.00  0.00    -0.159 NA
ATOM     18  C   UNL     1      -2.579  -2.040  24.866  0.00  0.00    +0.101 C 
ATOM     23  C   UNL     1      -3.273  -1.706  24.550  0.00  0.00    +0.110 C 
ATOM     24  N   UNL     1      -3.087  -1.069  24.642  0.00  0.00    -0.299 N 
ATOM     25  C   UNL     1      -3.113  -0.245  24.638  0.00  0.00    +0.261 A 
ATOM     26  O   UNL     1      -2.477   0.190  24.936  0.00  0.00    -0.267 OA
ENDROOT
BRANCH   9   6
ATOM      3  C   UNL     1      -3.855   2.619  24.327  0.00  0.00    +0.139 A 
ATOM      4  C   UNL     1      -3.500   2.216  23.701  0.00  0.00    +0.037 A 
ATOM      5  C   UNL     1      -3.473   1.391  23.705  0.00  0.00    +0.003 A 
ATOM      6  C   UNL     1      -3.801   0.970  24.334  0.00  0.00    +0.005 A 
ATOM      7  C   UNL     1      -4.156   1.374  24.959  0.00  0.00    +0.003 A 
ATOM      8  C   UNL     1      -4.183   2.198  24.956  0.00  0.00    +0.037 A 
BRANCH   3   2
ATOM      1  C   UNL     1      -3.354   3.875  24.787  0.00  0.00    +0.252 C 
ATOM      2  O   UNL     1      -3.882   3.444  24.324  0.00  0.00    -0.471 OA
ENDBRANCH   3   2
ENDBRANCH   9   6
BRANCH  17  19
ATOM     19  S   UNL     1      -2.102  -0.624  25.100  0.00  0.00    +0.046 S 
ATOM     20  C   UNL     1      -1.673  -0.635  24.395  0.00  0.00    +0.196 C 
ATOM     21  O   UNL     1      -2.531  -0.614  25.805  0.00  0.00    -0.157 OA
ATOM     22  O   UNL     1      -1.965   0.187  25.172  0.00  0.00    -0.157 OA
ENDBRANCH  17  19
TORSDOF 3
ENDMDL
MODEL 3
REMARK VINA RESULT:     -12.3      2.173      4.183
REMARK  Name = 
REMARK  3 active torsions:
REMARK  status: ('A' for Active; 'I' for Inactive)
REMARK    1  A    between atoms: O_2  and  C_3
REMARK    2  A    between atoms: C_6  and  C_9
REMARK    3  A    between atoms: N_17  and  S_19
REMARK                            x       y       z     vdW  Elec       q    Type
REMARK                         _______ _______ _______ _____ _____    ______ ____
ROOT
ATOM      9  C   UNL     1      -1.729  -0.440  24.786  0.00  0.00    +0.056 A 
ATOM     10  C   UNL     1      -1.398  -1.192  24.868  0.00  0.00    +0.006 A 
ATOM     11  C   UNL     1      -1.863  -1.863  24.751  0.00  0.00    +0.013 A 
ATOM     12  C   UNL     1      -2.660  -1.782  24.552  0.00  0.00    +0.041 A 
ATOM     13  C   UNL     1      -3.403  -2.289  24.365  0.00  0.00    +0.056 C 
ATOM     14  C   UNL     1      -3.616  -2.956  24.311  0.00  0.00    +0.011 C 
ATOM     15  C   UNL     1      -3.939  -2.212  24.232  0.00  0.00    +0.041 C 
ATOM     16  C   UNL     1      -4.505  -1.414  24.091  0.00  0.00    +0.097 C 
ATOM     17  N   UNL     1      -3.940  -0.816  24.233  0.00  0.00    -0.159 NA
ATOM     18  C   UNL     1      -3.963  -1.527  24.226  0.00  0.00    +0.101 C 
ATOM     23  C   UNL     1      -3.168  -1.675  24.425  0.00  0.00    +0.110 C 
ATOM     24  N   UNL     1      -2.991  -1.031  24.470  0.00  0.00    -0.299 N 
ATOM     25  C   UNL     1      -2.525  -0.360  24.587  0.00  0.00    +0.261 A 
ATOM     26  O   UNL     1      -2.856   0.392  24.505  0.00  0.00    -0.267 OA
ENDROOT
BRANCH   9   6
ATOM      3  C   UNL     1      -0.331   1.571  25.139  0.00  0.00    +0.139 A 
ATOM      4  C   UNL     1      -0.388   1.236  24.388  0.00  0.00    +0.037 A 
ATOM      5  C   UNL     1      -0.855   0.565  24.270  0.00  0.00    +0.003 A 
ATOM      6  C   UNL     1      -1.263   0.230  24.903  0.00  0.00    +0.005 A 
ATOM      7  C   UNL     1      -1.206   0.566  25.655  0.00  0.00    +0.003 A 
ATOM      8  C   UNL     1      -0.740   1.236  25.773  0.00  0.00    +0.037 A 
BRANCH   3   2
ATOM      1  C   UNL     1      -0.214   2.948  25.499  0.00  0.00    +0.252 C 
ATOM      2  O   UNL     1       0.135   2.242  25.257  0.00  0.00    -0.471 OA
ENDBRANCH   3   2
ENDBRANCH   9   6
BRANCH  17  19
ATOM     19  S   UNL     1      -3.626  -0.056  24.312  0.00  0.00    +0.046 S 
ATOM     20  C   UNL     1      -3.896  -0.026  25.092  0.00  0.00    +0.196 C 
ATOM     21  O   UNL     1      -3.357  -0.086  23.533  0.00  0.00    -0.157 OA
ATOM     22  O   UNL     1      -3.313   0.703  24.392  0.00  0.00    -0.157 OA
ENDBRANCH  17  19
TORSDOF 3
ENDMDL
MODEL 4
REMARK VINA RESULT:     -12.3      1.746      2.452
REMARK  Name = 
REMARK  3 active torsions:
REMARK  status: ('A' for Active; 'I' for Inactive)
REMARK    1  A    between atoms: O_2  and  C_3
REMARK    2  A    between atoms: C_6  and  C_9
REMARK    3  A    between atoms: N_17  and  S_19
REMARK                            x       y       z     vdW  Elec       q    Type
REMARK                         _______ _______ _______ _____ _____    ______ ____
ROOT
ATOM      9  C   UNL     1      -3.179   1.354  24.617  0.00  0.00    +0.056 A 
ATOM     10  C   UNL     1      -3.688   0.705  24.612  0.00  0.00    +0.006 A 
ATOM     11  C   UNL     1      -4.487   0.805  24.790  0.00  0.00    +0.013 A 
ATOM     12  C   UNL     1      -4.778   1.555  24.973  0.00  0.00    +0.041 A 
ATOM     13  C   UNL     1      -5.559   1.982  25.201  0.00  0.00    +0.056 C 
ATOM     14  C   UNL     1      -6.240   1.858  25.318  0.00  0.00    +0.011 C 
ATOM     15  C   UNL     1      -5.735   2.497  25.322  0.00  0.00    +0.041 C 
ATOM     16  C   UNL     1      -5.291   3.378  25.378  0.00  0.00    +0.097 C 
ATOM     17  N   UNL     1      -4.510   3.155  25.183  0.00  0.00    -0.159 NA
ATOM     18  C   UNL     1      -5.145   2.840  25.259  0.00  0.00    +0.101 C 
ATOM     23  C   UNL     1      -4.914   2.060  25.084  0.00  0.00    +0.110 C 
ATOM     24  N   UNL     1      -4.269   2.205  24.977  0.00  0.00    -0.299 N 
ATOM     25  C   UNL     1      -3.470   2.104  24.800  0.00  0.00    +0.261 A 
ATOM     26  O   UNL     1      -2.961   2.754  24.804  0.00  0.00    -0.267 OA
ENDROOT
BRANCH   9   6
ATOM      3  C   UNL     1      -0.782   1.049  24.084  0.00  0.00    +0.139 A 
ATOM      4  C   UNL     1      -1.316   1.237  23.485  0.00  0.00    +0.037 A 
ATOM      5  C   UNL     1      -2.117   1.339  23.662  0.00  0.00    +0.003 A 
ATOM      6  C   UNL     1      -2.381   1.253  24.439  0.00  0.00    +0.005 A 
ATOM      7  C   UNL     1      -1.846   1.065  25.038  0.00  0.00    +0.003 A 
ATOM      8  C   UNL     1      -1.046   0.963  24.861  0.00  0.00    +0.037 A 
BRANCH   3   2
ATOM      1  C   UNL     1       0.276   0.247  23.559  0.00  0.00    +0.252 C 
ATOM      2  O   UNL     1       0.018   0.948  23.907  0.00  0.00    -0.471 OA
ENDBRANCH   3   2
ENDBRANCH   9   6
BRANCH  17  19
ATOM     19  S   UNL     1      -3.702   3.231  25.033  0.00  0.00    +0.046 S 
ATOM     20  C   UNL     1      -3.867   3.439  24.251  0.00  0.00    +0.196 C 
ATOM     21  O   UNL     1      -3.537   3.024  25.814  0.00  0.00    -0.157 OA
ATOM     22  O   UNL     1      -2.894   3.308  24.883  0.00  0.00    -0.157 OA
ENDBRANCH  17  19
TORSDOF 3
ENDMDL
