MODEL 1
REMARK VINA RESULT:     -13.5      0.000      0.000
REMARK  Name = 
REMARK  3 active torsions:
REMARK  status: ('A' for Active; 'I' for Inactive)
REMARK    1  A    between atoms: C_9  and  N_10
REMARK    2  A    between atoms: C_14  and  C_15
REMARK    3  A    between atoms: C_18  and  C_21
REMARK                            x       y       z     vdW  Elec       q    Type
REMARK                         _______ _______ _______ _____ _____    ______ ____
ROOT
ATOM     10  N   UNL     1      -2.969   2.704  24.353  0.00  0.00    -0.210 N 
ATOM     11  N   UNL     1      -3.218   3.491  24.327  0.00  0.00    -0.043 NA
ATOM     12  N   UNL     1      -4.043   3.496  24.295  0.00  0.00    -0.023 NA
ATOM     13  N   UNL     1      -4.303   2.712  24.301  0.00  0.00    -0.108 NA
ATOM     14  C   UNL     1      -3.640   2.224  24.337  0.00  0.00    +0.184 A 
ENDROOT
BRANCH  10   9
ATOM      1  O   UNL     1       0.361   2.073  25.480  0.00  0.00    -0.218 OA
ATOM      2  C   UNL     1      -0.422   2.334  25.445  0.00  0.00    +0.211 C 
ATOM      3  C   UNL     1      -0.818   2.759  26.029  0.00  0.00    +0.178 C 
ATOM      4  O   UNL     1      -1.586   2.902  25.764  0.00  0.00    -0.349 OA
ATOM      5  C   UNL     1      -1.664   2.565  25.015  0.00  0.00    +0.170 C 
ATOM      6  C   UNL     1      -0.945   2.213  24.818  0.00  0.00    +0.177 C 
ATOM      7  O   UNL     1      -1.022   1.876  24.069  0.00  0.00    -0.349 OA
ATOM      8  C   UNL     1      -1.790   2.019  23.804  0.00  0.00    +0.169 C 
ATOM      9  C   UNL     1      -2.187   2.445  24.389  0.00  0.00    +0.167 C 
ENDBRANCH  10   9
BRANCH  14  15
ATOM     15  C   UNL     1      -3.645   1.399  24.354  0.00  0.00    +0.037 A 
ATOM     16  C   UNL     1      -3.512   0.972  23.661  0.00  0.00    +0.003 A 
ATOM     17  C   UNL     1      -3.518   0.147  23.678  0.00  0.00    +0.000 A 
ATOM     18  C   UNL     1      -3.656  -0.251  24.387  0.00  0.00    +0.000 A 
ATOM     19  C   UNL     1      -3.789   0.177  25.081  0.00  0.00    +0.000 A 
ATOM     20  C   UNL     1      -3.784   1.002  25.064  0.00  0.00    +0.003 A 
BRANCH  18  21
ATOM     21  C   UNL     1      -3.662  -1.076  24.404  0.00  0.00    +0.000 A 
ATOM     22  C   UNL     1      -3.123  -1.482  24.877  0.00  0.00    +0.000 A 
ATOM     23  C   UNL     1      -3.128  -2.307  24.894  0.00  0.00    +0.000 A 
ATOM     24  C   UNL     1      -3.673  -2.725  24.438  0.00  0.00    +0.000 A 
ATOM     25  C   UNL     1      -4.213  -2.318  23.964  0.00  0.00    +0.000 A 
ATOM     26  C   UNL     1      -4.208  -1.493  23.947  0.00  0.00    +0.000 A 
ENDBRANCH  18  21
ENDBRANCH  14  15
TORSDOF 3
ENDMDL
MODEL 2
REMARK VINA RESULT:     -12.6      2.418      3.567
REMARK  Name = 
REMARK  3 active torsions:
REMARK  status: ('A' for Active; 'I' for Inactive)
REMARK    1  A    between atoms: C_9  and  N_10
REMARK    2  A    between atoms: C_14  and  C_15
REMARK    3  A    between atoms: C_18  and  C_21
REMARK                            x       y       z     vdW  Elec       q    Type
REMARK                         _______ _______ _______ _____ _____    ______ ____
ROOT
ATOM     10  N   UNL     1      -1.897  -1.303  24.708  0.00  0.00    -0.210 N 
ATOM     11  N   UNL     1      -1.594  -2.055  24.556  0.00  0.00    -0.043 NA
ATOM     12  N   UNL     1      -2.224  -2.547  24.349  0.00  0.00    -0.023 NA
ATOM     13  N   UNL     1      -2.916  -2.098  24.372  0.00  0.00    -0.108 NA
ATOM     14  C   UNL     1      -2.714  -1.329  24.594  0.00  0.00    +0.184 A 
ENDROOT
BRANCH  10   9
ATOM      1  O   UNL     1       0.358   1.467  24.659  0.00  0.00    -0.218 OA
ATOM      2  C   UNL     1      -0.079   0.804  24.433  0.00  0.00    +0.211 C 
ATOM      3  C   UNL     1      -0.057   0.437  23.695  0.00  0.00    +0.178 C 
ATOM      4  O   UNL     1      -0.579  -0.202  23.711  0.00  0.00    -0.349 OA
ATOM      5  C   UNL     1      -0.924  -0.229  24.460  0.00  0.00    +0.170 C 
ATOM      6  C   UNL     1      -0.616   0.392  24.906  0.00  0.00    +0.177 C 
ATOM      7  O   UNL     1      -0.960   0.365  25.655  0.00  0.00    -0.349 OA
ATOM      8  C   UNL     1      -1.482  -0.273  25.672  0.00  0.00    +0.169 C 
ATOM      9  C   UNL     1      -1.460  -0.641  24.933  0.00  0.00    +0.167 C 
ENDBRANCH  10   9
BRANCH  14  15
ATOM     15  C   UNL     1      -3.237  -0.698  24.685  0.00  0.00    +0.037 A 
ATOM     16  C   UNL     1      -3.561  -0.535  25.426  0.00  0.00    +0.003 A 
ATOM     17  C   UNL     1      -4.084   0.096  25.517  0.00  0.00    +0.000 A 
ATOM     18  C   UNL     1      -4.283   0.565  24.869  0.00  0.00    +0.000 A 
ATOM     19  C   UNL     1      -3.957   0.403  24.128  0.00  0.00    +0.000 A 
ATOM     20  C   UNL     1      -3.435  -0.229  24.036  0.00  0.00    +0.003 A 
BRANCH  18  21
ATOM     21  C   UNL     1      -4.805   1.197  24.961  0.00  0.00    +0.000 A 
ATOM     22  C   UNL     1      -5.616   1.056  25.019  0.00  0.00    +0.000 A 
ATOM     23  C   UNL     1      -6.138   1.688  25.111  0.00  0.00    +0.000 A 
ATOM     24  C   UNL     1      -5.851   2.460  25.144  0.00  0.00    +0.000 A 
ATOM     25  C   UNL     1      -5.040   2.601  25.085  0.00  0.00    +0.000 A 
ATOM     26  C   UNL     1      -4.517   1.969  24.994  0.00  0.00    +0.000 A 
ENDBRANCH  18  21
ENDBRANCH  14  15
TORSDOF 3
ENDMDL
MODEL 3
REMARK VINA RESULT:     -12.4      1.568      2.457
REMARK  Name = 
REMARK  3 active torsions:
REMARK  status: ('A' for Active; 'I' for Inactive)
REMARK    1  A    between atoms: C_9  and  N_10
REMARK    2  A    between atoms: C_14  and  C_15
REMARK    3  A    between atoms: C_18  and  C_21
REMARK                            x       y       z     vdW  Elec       q    Type
REMARK                         _______ _______ _______ _____ _____    ______ ____
ROOT
ATOM     10  N   UNL     1      -2.575   2.751  24.368  0.00  0.00    -0.210 N 
ATOM     11  N   UNL     1      -2.047   3.385  24.347  0.00  0.00    -0.043 NA
ATOM     12  N   UNL     1      -1.283   3.079  24.295  0.00  0.00    -0.023 NA
ATOM     13  N   UNL     1      -1.338   2.256  24.284  0.00  0.00    -0.108 NA
ATOM     14  C   UNL     1      -2.136   2.053  24.329  0.00  0.00    +0.184 A 
ENDROOT
BRANCH  10   9
ATOM      1  O   UNL     1      -5.876   3.415  25.560  0.00  0.00    -0.218 OA
ATOM      2  C   UNL     1      -5.054   3.361  25.509  0.00  0.00    +0.211 C 
ATOM      3  C   UNL     1      -4.516   3.601  26.086  0.00  0.00    +0.178 C 
ATOM      4  O   UNL     1      -3.755   3.446  25.806  0.00  0.00    -0.349 OA
ATOM      5  C   UNL     1      -3.824   3.109  25.056  0.00  0.00    +0.170 C 
ATOM      6  C   UNL     1      -4.626   3.056  24.872  0.00  0.00    +0.177 C 
ATOM      7  O   UNL     1      -4.695   2.720  24.123  0.00  0.00    -0.349 OA
ATOM      8  C   UNL     1      -3.935   2.564  23.842  0.00  0.00    +0.169 C 
ATOM      9  C   UNL     1      -3.396   2.805  24.419  0.00  0.00    +0.167 C 
ENDBRANCH  10   9
BRANCH  14  15
ATOM     15  C   UNL     1      -2.443   1.287  24.334  0.00  0.00    +0.037 A 
ATOM     16  C   UNL     1      -2.708   0.945  23.632  0.00  0.00    +0.003 A 
ATOM     17  C   UNL     1      -3.014   0.179  23.637  0.00  0.00    +0.000 A 
ATOM     18  C   UNL     1      -3.056  -0.245  24.344  0.00  0.00    +0.000 A 
ATOM     19  C   UNL     1      -2.790   0.098  25.046  0.00  0.00    +0.000 A 
ATOM     20  C   UNL     1      -2.484   0.864  25.041  0.00  0.00    +0.003 A 
BRANCH  18  21
ATOM     21  C   UNL     1      -3.362  -1.011  24.349  0.00  0.00    +0.000 A 
ATOM     22  C   UNL     1      -4.041  -1.186  23.915  0.00  0.00    +0.000 A 
ATOM     23  C   UNL     1      -4.348  -1.952  23.920  0.00  0.00    +0.000 A 
ATOM     24  C   UNL     1      -3.975  -2.543  24.359  0.00  0.00    +0.000 A 
ATOM     25  C   UNL     1      -3.295  -2.367  24.793  0.00  0.00    +0.000 A 
ATOM     26  C   UNL     1      -2.988  -1.602  24.788  0.00  0.00    +0.000 A 
ENDBRANCH  18  21
ENDBRANCH  14  15
TORSDOF 3
ENDMDL
MODEL 4
REMARK VINA RESULT:     -12.4      1.884      4.315
REMARK  Name = 
REMARK  3 active torsions:
REMARK  status: ('A' for Active; 'I' for Inactive)
REMARK    1  A    between atoms: C_9  and  N_10
REMARK    2  A    between atoms: C_14  and  C_15
REMARK    3  A    between atoms: C_18  and  C_21
REMARK                            x       y       z     vdW  Elec       q    Type
REMARK                         _______ _______ _______ _____ _____    ______ ____
ROOT
ATOM     10  N   UNL     1      -4.957   1.524  24.791  0.00  0.00    -0.210 N 
ATOM     11  N   UNL     1      -5.750   1.309  24.872  0.00  0.00    -0.043 NA
ATOM     12  N   UNL     1      -6.168   1.969  25.136  0.00  0.00    -0.023 NA
ATOM     13  N   UNL     1      -5.633   2.593  25.219  0.00  0.00    -0.108 NA
ATOM     14  C   UNL     1      -4.885   2.318  25.006  0.00  0.00    +0.184 A 
ENDROOT
BRANCH  10   9
ATOM      1  O   UNL     1      -2.587  -1.141  24.610  0.00  0.00    -0.218 OA
ATOM      2  C   UNL     1      -3.200  -0.649  24.862  0.00  0.00    +0.211 C 
ATOM      3  C   UNL     1      -3.659  -0.755  25.539  0.00  0.00    +0.178 C 
ATOM      4  O   UNL     1      -4.205  -0.136  25.577  0.00  0.00    -0.349 OA
ATOM      5  C   UNL     1      -4.083   0.351  24.921  0.00  0.00    +0.170 C 
ATOM      6  C   UNL     1      -3.462   0.034  24.480  0.00  0.00    +0.177 C 
ATOM      7  O   UNL     1      -3.340   0.520  23.825  0.00  0.00    -0.349 OA
ATOM      8  C   UNL     1      -3.886   1.138  23.862  0.00  0.00    +0.169 C 
ATOM      9  C   UNL     1      -4.345   1.033  24.540  0.00  0.00    +0.167 C 
ENDBRANCH  10   9
BRANCH  14  15
ATOM     15  C   UNL     1      -4.188   2.759  25.007  0.00  0.00    +0.037 A 
ATOM     16  C   UNL     1      -3.941   3.141  24.319  0.00  0.00    +0.003 A 
ATOM     17  C   UNL     1      -3.244   3.581  24.321  0.00  0.00    +0.000 A 
ATOM     18  C   UNL     1      -2.793   3.640  25.009  0.00  0.00    +0.000 A 
ATOM     19  C   UNL     1      -3.041   3.258  25.698  0.00  0.00    +0.000 A 
ATOM     20  C   UNL     1      -3.738   2.817  25.696  0.00  0.00    +0.003 A 
BRANCH  18  21
ATOM     21  C   UNL     1      -2.096   4.081  25.010  0.00  0.00    +0.000 A 
ATOM     22  C   UNL     1      -1.371   3.705  24.899  0.00  0.00    +0.000 A 
ATOM     23  C   UNL     1      -0.673   4.146  24.900  0.00  0.00    +0.000 A 
ATOM     24  C   UNL     1      -0.701   4.962  25.012  0.00  0.00    +0.000 A 
ATOM     25  C   UNL     1      -1.427   5.339  25.123  0.00  0.00    +0.000 A 
ATOM     26  C   UNL     1      -2.125   4.898  25.122  0.00  0.00    +0.000 A 
ENDBRANCH  18  21
ENDBRANCH  14  15
TORSDOF 3
ENDMDL
