MODEL 1
REMARK VINA RESULT:     -11.7      0.000      0.000
REMARK  Name = 
REMARK  3 active torsions:
REMARK  status: ('A' for Active; 'I' for Inactive)
REMARK    1  A    between atoms: C_5  and  C_6
REMARK    2  A    between atoms: C_6  and  N_7
REMARK    3  A    between atoms: N_13  and  C_14
REMARK                            x       y       z     vdW  Elec       q    Type
REMARK                         _______ _______ _______ _____ _____    ______ ____
ROOT
ATOM      7  N   UNL     1      -3.839   0.624  24.420  0.00  0.00    -0.266 NA
ATOM      8  C   UNL     1      -3.555   0.665  23.647  0.00  0.00    +0.094 C 
ATOM      9  C   UNL     1      -3.035   1.266  23.430  0.00  0.00    +0.112 C 
ATOM     10  N   UNL     1      -2.797   1.827  23.986  0.00  0.00    -0.261 N 
ATOM     11  C   UNL     1      -3.081   1.787  24.759  0.00  0.00    +0.113 C 
ATOM     12  C   UNL     1      -2.753   2.412  25.184  0.00  0.00    +0.116 C 
ATOM     13  N   UNL     1      -2.266   2.840  24.674  0.00  0.00    -0.264 N 
ATOM     20  C   UNL     1      -2.293   2.478  23.934  0.00  0.00    +0.307 C 
ATOM     21  O   UNL     1      -1.888   2.724  23.258  0.00  0.00    -0.252 OA
ATOM     22  C   UNL     1      -3.602   1.185  24.977  0.00  0.00    +0.094 C 
ENDROOT
BRANCH  13  14
ATOM     14  C   UNL     1      -1.828   3.511  24.870  0.00  0.00    +0.082 C 
ATOM     15  C   UNL     1      -2.212   4.229  25.007  0.00  0.00    +0.052 C 
ATOM     16  C   UNL     1      -1.774   4.900  25.203  0.00  0.00    +0.144 C 
ATOM     17  O   UNL     1      -0.952   4.853  25.261  0.00  0.00    -0.354 OA
ATOM     18  C   UNL     1      -0.568   4.137  25.124  0.00  0.00    +0.144 C 
ATOM     19  C   UNL     1      -1.006   3.466  24.928  0.00  0.00    +0.052 C 
ENDBRANCH  13  14
BRANCH   7   6
ATOM      6  C   UNL     1      -4.361   0.022  24.638  0.00  0.00    +0.099 C 
BRANCH   6   5
ATOM      1 CL   UNL     1      -3.289  -3.092  24.845  0.00  0.00    -0.082 Cl
ATOM      2  C   UNL     1      -3.556  -2.313  24.794  0.00  0.00    +0.058 A 
ATOM      3  C   UNL     1      -3.441  -1.795  25.424  0.00  0.00    +0.011 A 
ATOM      4  C   UNL     1      -3.709  -1.016  25.373  0.00  0.00    -0.002 A 
ATOM      5  C   UNL     1      -4.093  -0.756  24.690  0.00  0.00    -0.006 A 
ATOM     23  C   UNL     1      -4.208  -1.275  24.059  0.00  0.00    -0.002 A 
ATOM     24  C   UNL     1      -3.940  -2.053  24.111  0.00  0.00    +0.011 A 
ENDBRANCH   6   5
ENDBRANCH   7   6
TORSDOF 3
ENDMDL
MODEL 2
REMARK VINA RESULT:     -10.8      2.624      5.203
REMARK  Name = 
REMARK  3 active torsions:
REMARK  status: ('A' for Active; 'I' for Inactive)
REMARK    1  A    between atoms: C_5  and  C_6
REMARK    2  A    between atoms: C_6  and  N_7
REMARK    3  A    between atoms: N_13  and  C_14
REMARK                            x       y       z     vdW  Elec       q    Type
REMARK                         _______ _______ _______ _____ _____    ______ ____
ROOT
ATOM      7  N   UNL     1      -0.848   1.598  25.533  0.00  0.00    -0.266 NA
ATOM      8  C   UNL     1      -0.345   1.278  24.963  0.00  0.00    +0.094 C 
ATOM      9  C   UNL     1      -0.568   0.600  24.551  0.00  0.00    +0.112 C 
ATOM     10  N   UNL     1      -1.294   0.240  24.710  0.00  0.00    -0.261 N 
ATOM     11  C   UNL     1      -1.797   0.560  25.280  0.00  0.00    +0.113 C 
ATOM     12  C   UNL     1      -2.472   0.089  25.318  0.00  0.00    +0.116 C 
ATOM     13  N   UNL     1      -2.388  -0.522  24.770  0.00  0.00    -0.264 N 
ATOM     20  C   UNL     1      -1.660  -0.428  24.395  0.00  0.00    +0.307 C 
ATOM     21  O   UNL     1      -1.351  -0.918  23.807  0.00  0.00    -0.252 OA
ATOM     22  C   UNL     1      -1.574   1.240  25.692  0.00  0.00    +0.094 C 
ENDROOT
BRANCH  13  14
ATOM     14  C   UNL     1      -2.936  -1.121  24.624  0.00  0.00    +0.082 C 
ATOM     15  C   UNL     1      -3.582  -0.979  24.130  0.00  0.00    +0.052 C 
ATOM     16  C   UNL     1      -4.129  -1.579  23.984  0.00  0.00    +0.144 C 
ATOM     17  O   UNL     1      -4.031  -2.320  24.332  0.00  0.00    -0.354 OA
ATOM     18  C   UNL     1      -3.386  -2.463  24.825  0.00  0.00    +0.144 C 
ATOM     19  C   UNL     1      -2.838  -1.863  24.971  0.00  0.00    +0.052 C 
ENDBRANCH  13  14
BRANCH   7   6
ATOM      6  C   UNL     1      -0.625   2.278  25.946  0.00  0.00    +0.099 C 
BRANCH   6   5
ATOM      1 CL   UNL     1      -1.642   5.241  24.909  0.00  0.00    -0.082 Cl
ATOM      2  C   UNL     1      -1.388   4.500  25.169  0.00  0.00    +0.058 A 
ATOM      3  C   UNL     1      -1.842   4.074  25.709  0.00  0.00    +0.011 A 
ATOM      4  C   UNL     1      -1.588   3.333  25.969  0.00  0.00    -0.002 A 
ATOM      5  C   UNL     1      -0.880   3.019  25.687  0.00  0.00    -0.006 A 
ATOM     23  C   UNL     1      -0.425   3.445  25.145  0.00  0.00    -0.002 A 
ATOM     24  C   UNL     1      -0.680   4.185  24.887  0.00  0.00    +0.011 A 
ENDBRANCH   6   5
ENDBRANCH   7   6
TORSDOF 3
ENDMDL
MODEL 3
REMARK VINA RESULT:     -10.8      2.416      5.123
REMARK  Name = 
REMARK  3 active torsions:
REMARK  status: ('A' for Active; 'I' for Inactive)
REMARK    1  A    between atoms: C_5  and  C_6
REMARK    2  A    between atoms: C_6  and  N_7
REMARK    3  A    between atoms: N_13  and  C_14
REMARK                            x       y       z     vdW  Elec       q    Type
REMARK                         _______ _______ _______ _____ _____    ______ ____
ROOT
ATOM      7  N   UNL     1      -3.575   2.272  24.328  0.00  0.00    -0.266 NA
ATOM      8  C   UNL     1      -4.107   2.224  24.957  0.00  0.00    +0.094 C 
ATOM      9  C   UNL     1      -4.354   1.487  25.231  0.00  0.00    +0.112 C 
ATOM     10  N   UNL     1      -4.070   0.797  24.878  0.00  0.00    -0.261 N 
ATOM     11  C   UNL     1      -3.538   0.846  24.249  0.00  0.00    +0.113 C 
ATOM     12  C   UNL     1      -3.353   0.078  24.012  0.00  0.00    +0.116 C 
ATOM     13  N   UNL     1      -3.770  -0.445  24.494  0.00  0.00    -0.264 N 
ATOM     20  C   UNL     1      -4.213  -0.000  25.029  0.00  0.00    +0.307 C 
ATOM     21  O   UNL     1      -4.713  -0.301  25.613  0.00  0.00    -0.252 OA
ATOM     22  C   UNL     1      -3.290   1.584  23.974  0.00  0.00    +0.094 C 
ENDROOT
BRANCH  13  14
ATOM     14  C   UNL     1      -3.749  -1.268  24.448  0.00  0.00    +0.082 C 
ATOM     15  C   UNL     1      -3.253  -1.697  24.950  0.00  0.00    +0.052 C 
ATOM     16  C   UNL     1      -3.232  -2.520  24.905  0.00  0.00    +0.144 C 
ATOM     17  O   UNL     1      -3.706  -2.915  24.357  0.00  0.00    -0.354 OA
ATOM     18  C   UNL     1      -4.202  -2.488  23.856  0.00  0.00    +0.144 C 
ATOM     19  C   UNL     1      -4.223  -1.664  23.901  0.00  0.00    +0.052 C 
ENDBRANCH  13  14
BRANCH   7   6
ATOM      6  C   UNL     1      -3.327   3.010  24.052  0.00  0.00    +0.099 C 
BRANCH   6   5
ATOM      1 CL   UNL     1      -0.714   4.488  25.423  0.00  0.00    -0.082 Cl
ATOM      2  C   UNL     1      -1.367   4.118  25.080  0.00  0.00    +0.058 A 
ATOM      3  C   UNL     1      -1.258   3.548  24.494  0.00  0.00    +0.011 A 
ATOM      4  C   UNL     1      -1.911   3.179  24.151  0.00  0.00    -0.002 A 
ATOM      5  C   UNL     1      -2.673   3.379  24.395  0.00  0.00    -0.006 A 
ATOM     23  C   UNL     1      -2.782   3.949  24.982  0.00  0.00    -0.002 A 
ATOM     24  C   UNL     1      -2.129   4.318  25.324  0.00  0.00    +0.011 A 
ENDBRANCH   6   5
ENDBRANCH   7   6
TORSDOF 3
ENDMDL
MODEL 4
REMARK VINA RESULT:     -10.4      1.590      2.002
REMARK  Name = 
REMARK  3 active torsions:
REMARK  status: ('A' for Active; 'I' for Inactive)
REMARK    1  A    between atoms: C_5  and  C_6
REMARK    2  A    between atoms: C_6  and  N_7
REMARK    3  A    between atoms: N_13  and  C_14
REMARK                            x       y       z     vdW  Elec       q    Type
REMARK                         _______ _______ _______ _____ _____    ______ ____
ROOT
ATOM      7  N   UNL     1      -1.260   0.160  24.508  0.00  0.00    -0.266 NA
ATOM      8  C   UNL     1      -0.822   0.148  25.207  0.00  0.00    +0.094 C 
ATOM      9  C   UNL     1      -0.697   0.846  25.627  0.00  0.00    +0.112 C 
ATOM     10  N   UNL     1      -1.010   1.557  25.350  0.00  0.00    -0.261 N 
ATOM     11  C   UNL     1      -1.448   1.569  24.651  0.00  0.00    +0.113 C 
ATOM     12  C   UNL     1      -1.686   2.347  24.513  0.00  0.00    +0.116 C 
ATOM     13  N   UNL     1      -1.395   2.815  25.126  0.00  0.00    -0.264 N 
ATOM     20  C   UNL     1      -0.977   2.327  25.643  0.00  0.00    +0.307 C 
ATOM     21  O   UNL     1      -0.594   2.566  26.333  0.00  0.00    -0.252 OA
ATOM     22  C   UNL     1      -1.573   0.870  24.230  0.00  0.00    +0.094 C 
ENDROOT
BRANCH  13  14
ATOM     14  C   UNL     1      -1.503   3.629  25.208  0.00  0.00    +0.082 C 
ATOM     15  C   UNL     1      -0.935   4.152  24.916  0.00  0.00    +0.052 C 
ATOM     16  C   UNL     1      -1.044   4.966  24.998  0.00  0.00    +0.144 C 
ATOM     17  O   UNL     1      -1.719   5.256  25.373  0.00  0.00    -0.354 OA
ATOM     18  C   UNL     1      -2.286   4.734  25.664  0.00  0.00    +0.144 C 
ATOM     19  C   UNL     1      -2.178   3.920  25.582  0.00  0.00    +0.052 C 
ENDBRANCH  13  14
BRANCH   7   6
ATOM      6  C   UNL     1      -1.386  -0.539  24.087  0.00  0.00    +0.099 C 
BRANCH   6   5
ATOM      1 CL   UNL     1      -3.594  -2.740  25.169  0.00  0.00    -0.082 Cl
ATOM      2  C   UNL     1      -3.043  -2.189  24.898  0.00  0.00    +0.058 A 
ATOM      3  C   UNL     1      -3.297  -1.498  24.529  0.00  0.00    +0.011 A 
ATOM      4  C   UNL     1      -2.745  -0.947  24.258  0.00  0.00    -0.002 A 
ATOM      5  C   UNL     1      -1.939  -1.089  24.357  0.00  0.00    -0.006 A 
ATOM     23  C   UNL     1      -1.684  -1.782  24.727  0.00  0.00    -0.002 A 
ATOM     24  C   UNL     1      -2.236  -2.331  24.997  0.00  0.00    +0.011 A 
ENDBRANCH   6   5
ENDBRANCH   7   6
TORSDOF 3
ENDMDL
