MODEL 1
REMARK VINA RESULT:      -9.0      0.000      0.000
REMARK  Name = 
REMARK  8 active torsions:
REMARK  status: ('A' for Active; 'I' for Inactive)
REMARK    1  A    between atoms: O_2  and  C_3
REMARK    2  A    between atoms: C_6  and  C_7
REMARK    3  A    between atoms: C_7  and  C_8
REMARK    4  A    between atoms: N_17  and  C_18
REMARK    5  A    between atoms: C_18  and  C_19
REMARK    6  A    between atoms: C_19  and  C_20
REMARK    7  A    between atoms: C_21  and  O_22
REMARK    8  A    between atoms: C_24  and  O_25
REMARK                            x       y       z     vdW  Elec       q    Type
REMARK                         _______ _______ _______ _____ _____    ______ ____
ROOT
ATOM      8  C   UNL     1       1.720   0.638  23.198  0.00  0.00    +0.230 C 
ATOM      9  O   UNL     1       1.992   1.404  23.340  0.00  0.00    -0.275 OA
ATOM     10  N   UNL     1       0.946   0.432  23.395  0.00  0.00    -0.279 N 
ATOM     11  C   UNL     1       0.674  -0.333  23.252  0.00  0.00    +0.093 C 
ATOM     12  C   UNL     1      -0.100  -0.540  23.448  0.00  0.00    +0.022 C 
ATOM     13  C   UNL     1      -0.603   0.020  23.788  0.00  0.00    +0.012 C 
ATOM     14  C   UNL     1      -1.349  -0.299  23.941  0.00  0.00    +0.085 C 
ATOM     15  C   UNL     1      -2.006   0.070  24.275  0.00  0.00    +0.226 C 
ATOM     16  O   UNL     1      -2.678  -0.402  24.356  0.00  0.00    -0.275 OA
ATOM     17  N   UNL     1      -2.081   0.848  24.538  0.00  0.00    -0.279 N 
ATOM     30  C   UNL     1      -1.517   1.450  24.532  0.00  0.00    +0.093 C 
ATOM     31  C   UNL     1      -0.738   1.422  24.262  0.00  0.00    +0.023 C 
ATOM     32  C   UNL     1      -0.331   0.785  23.931  0.00  0.00    +0.022 C 
ATOM     33  C   UNL     1       0.443   0.991  23.734  0.00  0.00    +0.093 C 
ENDROOT
BRANCH   8   7
ATOM      7  C   UNL     1       2.222   0.079  22.858  0.00  0.00    +0.112 C 
BRANCH   7   6
ATOM      3  C   UNL     1       4.675   0.306  23.101  0.00  0.00    +0.139 A 
ATOM      4  C   UNL     1       4.249   0.869  22.674  0.00  0.00    +0.037 A 
ATOM      5  C   UNL     1       3.432   0.793  22.593  0.00  0.00    -0.001 A 
ATOM      6  C   UNL     1       3.040   0.155  22.939  0.00  0.00    -0.013 A 
ATOM     34  C   UNL     1       3.466  -0.407  23.366  0.00  0.00    -0.001 A 
ATOM     35  C   UNL     1       4.283  -0.332  23.448  0.00  0.00    +0.037 A 
BRANCH   3   2
ATOM      1  C   UNL     1       5.857   0.178  23.894  0.00  0.00    +0.252 C 
ATOM      2  O   UNL     1       5.492   0.381  23.183  0.00  0.00    -0.471 OA
ENDBRANCH   3   2
ENDBRANCH   7   6
ENDBRANCH   8   7
BRANCH  17  18
ATOM     18  C   UNL     1      -2.818   1.052  24.847  0.00  0.00    +0.098 C 
BRANCH  18  19
ATOM     19  C   UNL     1      -3.123   1.808  24.724  0.00  0.00    +0.051 C 
BRANCH  19  20
ATOM     20  C   UNL     1      -3.898   1.982  24.945  0.00  0.00    +0.017 A 
ATOM     21  C   UNL     1      -4.131   2.767  25.053  0.00  0.00    +0.168 A 
ATOM     24  C   UNL     1      -4.906   2.941  25.274  0.00  0.00    +0.172 A 
ATOM     27  C   UNL     1      -5.449   2.330  25.387  0.00  0.00    +0.040 A 
ATOM     28  C   UNL     1      -5.218   1.546  25.278  0.00  0.00    +0.003 A 
ATOM     29  C   UNL     1      -4.442   1.372  25.057  0.00  0.00    -0.001 A 
BRANCH  21  22
ATOM     22  O   UNL     1      -3.587   3.377  24.940  0.00  0.00    -0.469 OA
ATOM     23  C   UNL     1      -3.648   3.866  24.278  0.00  0.00    +0.253 C 
ENDBRANCH  21  22
BRANCH  24  25
ATOM     25  O   UNL     1      -5.138   3.724  25.382  0.00  0.00    -0.468 OA
ATOM     26  C   UNL     1      -5.869   3.896  25.725  0.00  0.00    +0.253 C 
ENDBRANCH  24  25
ENDBRANCH  19  20
ENDBRANCH  18  19
ENDBRANCH  17  18
TORSDOF 8
ENDMDL
MODEL 2
REMARK VINA RESULT:      -6.3      1.017      7.289
REMARK  Name = 
REMARK  8 active torsions:
REMARK  status: ('A' for Active; 'I' for Inactive)
REMARK    1  A    between atoms: O_2  and  C_3
REMARK    2  A    between atoms: C_6  and  C_7
REMARK    3  A    between atoms: C_7  and  C_8
REMARK    4  A    between atoms: N_17  and  C_18
REMARK    5  A    between atoms: C_18  and  C_19
REMARK    6  A    between atoms: C_19  and  C_20
REMARK    7  A    between atoms: C_21  and  O_22
REMARK    8  A    between atoms: C_24  and  O_25
REMARK                            x       y       z     vdW  Elec       q    Type
REMARK                         _______ _______ _______ _____ _____    ______ ____
ROOT
ATOM      8  C   UNL     1      -3.740   1.531  24.350  0.00  0.00    +0.230 C 
ATOM      9  O   UNL     1      -3.779   2.149  23.805  0.00  0.00    -0.275 OA
ATOM     10  N   UNL     1      -3.063   1.062  24.393  0.00  0.00    -0.279 N 
ATOM     11  C   UNL     1      -3.024   0.443  24.938  0.00  0.00    +0.093 C 
ATOM     12  C   UNL     1      -2.347  -0.026  24.982  0.00  0.00    +0.022 C 
ATOM     13  C   UNL     1      -1.709   0.122  24.480  0.00  0.00    +0.012 C 
ATOM     14  C   UNL     1      -1.091  -0.409  24.613  0.00  0.00    +0.085 C 
ATOM     15  C   UNL     1      -0.360  -0.452  24.234  0.00  0.00    +0.226 C 
ATOM     16  O   UNL     1       0.143  -1.050  24.495  0.00  0.00    -0.275 OA
ATOM     17  N   UNL     1      -0.066   0.025  23.628  0.00  0.00    -0.279 N 
ATOM     30  C   UNL     1      -0.430   0.662  23.252  0.00  0.00    +0.093 C 
ATOM     31  C   UNL     1      -1.179   0.980  23.388  0.00  0.00    +0.023 C 
ATOM     32  C   UNL     1      -1.748   0.740  23.935  0.00  0.00    +0.022 C 
ATOM     33  C   UNL     1      -2.425   1.210  23.892  0.00  0.00    +0.093 C 
ENDROOT
BRANCH   8   7
ATOM      7  C   UNL     1      -4.378   1.383  24.851  0.00  0.00    +0.112 C 
BRANCH   7   6
ATOM      3  C   UNL     1      -5.805   3.251  25.626  0.00  0.00    +0.139 A 
ATOM      4  C   UNL     1      -6.150   2.574  25.305  0.00  0.00    +0.037 A 
ATOM      5  C   UNL     1      -5.674   1.951  25.047  0.00  0.00    -0.001 A 
ATOM      6  C   UNL     1      -4.854   2.005  25.109  0.00  0.00    -0.013 A 
ATOM     34  C   UNL     1      -4.509   2.682  25.430  0.00  0.00    -0.001 A 
ATOM     35  C   UNL     1      -4.983   3.305  25.688  0.00  0.00    +0.037 A 
BRANCH   3   2
ATOM      1  C   UNL     1      -6.120   4.645  25.638  0.00  0.00    +0.252 C 
ATOM      2  O   UNL     1      -6.280   3.874  25.884  0.00  0.00    -0.471 OA
ENDBRANCH   3   2
ENDBRANCH   7   6
ENDBRANCH   8   7
BRANCH  17  18
ATOM     18  C   UNL     1       0.693  -0.161  23.364  0.00  0.00    +0.098 C 
BRANCH  18  19
ATOM     19  C   UNL     1       1.205   0.440  23.126  0.00  0.00    +0.051 C 
BRANCH  19  20
ATOM     20  C   UNL     1       1.933   0.251  22.788  0.00  0.00    +0.017 A 
ATOM     21  C   UNL     1       2.611   0.671  23.005  0.00  0.00    +0.168 A 
ATOM     24  C   UNL     1       3.339   0.482  22.667  0.00  0.00    +0.172 A 
ATOM     27  C   UNL     1       3.390  -0.126  22.111  0.00  0.00    +0.040 A 
ATOM     28  C   UNL     1       2.714  -0.544  21.893  0.00  0.00    +0.003 A 
ATOM     29  C   UNL     1       1.986  -0.356  22.232  0.00  0.00    -0.001 A 
BRANCH  21  22
ATOM     22  O   UNL     1       2.558   1.278  23.561  0.00  0.00    -0.469 OA
ATOM     23  C   UNL     1       2.533   2.064  23.310  0.00  0.00    +0.253 C 
ENDBRANCH  21  22
BRANCH  24  25
ATOM     25  O   UNL     1       4.015   0.901  22.884  0.00  0.00    -0.468 OA
ATOM     26  C   UNL     1       4.750   0.525  22.891  0.00  0.00    +0.253 C 
ENDBRANCH  24  25
ENDBRANCH  19  20
ENDBRANCH  18  19
ENDBRANCH  17  18
TORSDOF 8
ENDMDL
MODEL 3
REMARK VINA RESULT:      -5.4     15.698     17.446
REMARK  Name = 
REMARK  8 active torsions:
REMARK  status: ('A' for Active; 'I' for Inactive)
REMARK    1  A    between atoms: O_2  and  C_3
REMARK    2  A    between atoms: C_6  and  C_7
REMARK    3  A    between atoms: C_7  and  C_8
REMARK    4  A    between atoms: N_17  and  C_18
REMARK    5  A    between atoms: C_18  and  C_19
REMARK    6  A    between atoms: C_19  and  C_20
REMARK    7  A    between atoms: C_21  and  O_22
REMARK    8  A    between atoms: C_24  and  O_25
REMARK                            x       y       z     vdW  Elec       q    Type
REMARK                         _______ _______ _______ _____ _____    ______ ____
ROOT
ATOM      8  C   UNL     1      13.874  -5.185  31.830  0.00  0.00    +0.230 C 
ATOM      9  O   UNL     1      13.478  -4.686  32.355  0.00  0.00    -0.275 OA
ATOM     10  N   UNL     1      13.572  -5.935  31.667  0.00  0.00    -0.279 N 
ATOM     11  C   UNL     1      13.968  -6.434  31.143  0.00  0.00    +0.093 C 
ATOM     12  C   UNL     1      13.667  -7.184  30.979  0.00  0.00    +0.022 C 
ATOM     13  C   UNL     1      12.969  -7.436  31.341  0.00  0.00    +0.012 C 
ATOM     14  C   UNL     1      12.765  -8.199  31.103  0.00  0.00    +0.085 C 
ATOM     15  C   UNL     1      12.115  -8.652  31.331  0.00  0.00    +0.226 C 
ATOM     16  O   UNL     1      12.065  -9.402  30.992  0.00  0.00    -0.275 OA
ATOM     17  N   UNL     1      11.508  -8.454  31.853  0.00  0.00    -0.279 N 
ATOM     30  C   UNL     1      11.401  -7.754  32.276  0.00  0.00    +0.093 C 
ATOM     31  C   UNL     1      11.875  -7.079  32.282  0.00  0.00    +0.023 C 
ATOM     32  C   UNL     1      12.573  -6.937  31.866  0.00  0.00    +0.022 C 
ATOM     33  C   UNL     1      12.875  -6.187  32.028  0.00  0.00    +0.093 C 
ENDROOT
BRANCH   8   7
ATOM      7  C   UNL     1      14.571  -4.933  31.469  0.00  0.00    +0.112 C 
BRANCH   7   6
ATOM      3  C   UNL     1      15.809  -2.993  32.382  0.00  0.00    +0.139 A 
ATOM      4  C   UNL     1      15.521  -2.972  31.609  0.00  0.00    +0.037 A 
ATOM      5  C   UNL     1      15.108  -3.619  31.305  0.00  0.00    -0.001 A 
ATOM      6  C   UNL     1      14.984  -4.286  31.773  0.00  0.00    -0.013 A 
ATOM     34  C   UNL     1      15.272  -4.307  32.546  0.00  0.00    -0.001 A 
ATOM     35  C   UNL     1      15.685  -3.661  32.851  0.00  0.00    +0.037 A 
BRANCH   3   2
ATOM      1  C   UNL     1      17.040  -2.389  32.785  0.00  0.00    +0.252 C 
ATOM      2  O   UNL     1      16.222  -2.347  32.687  0.00  0.00    -0.471 OA
ENDBRANCH   3   2
ENDBRANCH   7   6
ENDBRANCH   8   7
BRANCH  17  18
ATOM     18  C   UNL     1      10.931  -9.033  31.968  0.00  0.00    +0.098 C 
BRANCH  18  19
ATOM     19  C   UNL     1      10.153  -8.813  32.129  0.00  0.00    +0.051 C 
BRANCH  19  20
ATOM     20  C   UNL     1       9.585  -9.391  32.283  0.00  0.00    +0.017 A 
ATOM     21  C   UNL     1       8.788  -9.238  32.129  0.00  0.00    +0.168 A 
ATOM     24  C   UNL     1       8.220  -9.816  32.283  0.00  0.00    +0.172 A 
ATOM     27  C   UNL     1       8.448 -10.546  32.592  0.00  0.00    +0.040 A 
ATOM     28  C   UNL     1       9.243 -10.699  32.746  0.00  0.00    +0.003 A 
ATOM     29  C   UNL     1       9.811 -10.121  32.591  0.00  0.00    -0.001 A 
BRANCH  21  22
ATOM     22  O   UNL     1       8.561  -8.507  31.821  0.00  0.00    -0.469 OA
ATOM     23  C   UNL     1       8.143  -7.973  32.292  0.00  0.00    +0.253 C 
ENDBRANCH  21  22
BRANCH  24  25
ATOM     25  O   UNL     1       7.424  -9.663  32.129  0.00  0.00    -0.468 OA
ATOM     26  C   UNL     1       6.883 -10.285  32.092  0.00  0.00    +0.253 C 
ENDBRANCH  24  25
ENDBRANCH  19  20
ENDBRANCH  18  19
ENDBRANCH  17  18
TORSDOF 8
ENDMDL
