MODEL 1
REMARK VINA RESULT:     -12.1      0.000      0.000
REMARK  Name = 
REMARK  7 active torsions:
REMARK  status: ('A' for Active; 'I' for Inactive)
REMARK    1  A    between atoms: N_2  and  C_4
REMARK    2  A    between atoms: C_7  and  C_10
REMARK    3  A    between atoms: C_13  and  C_15
REMARK    4  A    between atoms: N_19  and  C_20
REMARK    5  A    between atoms: C_20  and  C_21
REMARK    6  A    between atoms: C_21  and  C_22
REMARK    7  A    between atoms: C_22  and  C_23
REMARK                            x       y       z     vdW  Elec       q    Type
REMARK                         _______ _______ _______ _____ _____    ______ ____
ROOT
ATOM     10  C   UNL     1      -3.854   0.581  24.319  0.00  0.00    +0.205 A 
ATOM     11  N   UNL     1      -3.761   1.078  23.666  0.00  0.00    -0.056 NA
ATOM     12  O   UNL     1      -4.084   1.812  23.857  0.00  0.00    -0.336 OA
ATOM     13  C   UNL     1      -4.376   1.770  24.627  0.00  0.00    +0.251 A 
ATOM     14  N   UNL     1      -4.234   1.009  24.912  0.00  0.00    -0.190 NA
ENDROOT
BRANCH  10   7
ATOM      4  C   UNL     1      -3.120  -1.778  24.468  0.00  0.00    +0.132 A 
ATOM      5  C   UNL     1      -3.904  -1.601  24.281  0.00  0.00    +0.034 A 
ATOM      6  C   UNL     1      -4.149  -0.815  24.231  0.00  0.00    +0.008 A 
ATOM      7  C   UNL     1      -3.610  -0.205  24.368  0.00  0.00    +0.058 A 
ATOM      8  C   UNL     1      -2.826  -0.383  24.555  0.00  0.00    +0.103 A 
ATOM      9  N   UNL     1      -2.581  -1.169  24.605  0.00  0.00    -0.229 NA
BRANCH   4   2
ATOM      1  C   UNL     1      -3.432  -3.163  24.627  0.00  0.00    +0.114 C 
ATOM      2  N   UNL     1      -2.876  -2.564  24.517  0.00  0.00    -0.290 N 
ATOM      3  C   UNL     1      -2.074  -2.752  24.457  0.00  0.00    +0.114 C 
ENDBRANCH   4   2
ENDBRANCH  10   7
BRANCH  13  15
ATOM     15  C   UNL     1      -4.746   2.382  25.040  0.00  0.00    +0.138 C 
ATOM     16  C   UNL     1      -5.559   2.516  25.082  0.00  0.00    +0.027 C 
ATOM     17  C   UNL     1      -5.683   3.183  25.550  0.00  0.00    +0.019 C 
ATOM     18  C   UNL     1      -4.947   3.461  25.797  0.00  0.00    +0.073 C 
ATOM     19  N   UNL     1      -4.368   2.966  25.482  0.00  0.00    -0.266 NA
BRANCH  19  20
ATOM     20  C   UNL     1      -3.553   3.042  25.590  0.00  0.00    +0.073 C 
BRANCH  20  21
ATOM     21  C   UNL     1      -3.211   3.791  25.638  0.00  0.00    +0.022 C 
BRANCH  21  22
ATOM     22  C   UNL     1      -2.466   3.882  25.978  0.00  0.00    +0.028 C 
BRANCH  22  23
ATOM     23  C   UNL     1      -1.865   4.260  25.557  0.00  0.00    -0.022 A 
ATOM     24  C   UNL     1      -1.922   5.065  25.388  0.00  0.00    -0.004 A 
ATOM     25  C   UNL     1      -1.321   5.442  24.968  0.00  0.00    -0.000 A 
ATOM     26  C   UNL     1      -0.662   5.015  24.716  0.00  0.00    -0.000 A 
ATOM     27  C   UNL     1      -0.605   4.209  24.885  0.00  0.00    -0.000 A 
ATOM     28  C   UNL     1      -1.206   3.832  25.306  0.00  0.00    -0.004 A 
ENDBRANCH  22  23
ENDBRANCH  21  22
ENDBRANCH  20  21
ENDBRANCH  19  20
ENDBRANCH  13  15
TORSDOF 7
ENDMDL
MODEL 2
REMARK VINA RESULT:     -11.0      1.391      5.178
REMARK  Name = 
REMARK  7 active torsions:
REMARK  status: ('A' for Active; 'I' for Inactive)
REMARK    1  A    between atoms: N_2  and  C_4
REMARK    2  A    between atoms: C_7  and  C_10
REMARK    3  A    between atoms: C_13  and  C_15
REMARK    4  A    between atoms: N_19  and  C_20
REMARK    5  A    between atoms: C_20  and  C_21
REMARK    6  A    between atoms: C_21  and  C_22
REMARK    7  A    between atoms: C_22  and  C_23
REMARK                            x       y       z     vdW  Elec       q    Type
REMARK                         _______ _______ _______ _____ _____    ______ ____
ROOT
ATOM     10  C   UNL     1      -3.575   3.261  24.701  0.00  0.00    +0.205 A 
ATOM     11  N   UNL     1      -4.142   3.510  24.154  0.00  0.00    -0.056 NA
ATOM     12  O   UNL     1      -4.825   3.065  24.276  0.00  0.00    -0.336 OA
ATOM     13  C   UNL     1      -4.681   2.542  24.898  0.00  0.00    +0.251 A 
ATOM     14  N   UNL     1      -3.909   2.664  25.160  0.00  0.00    -0.190 NA
ENDROOT
BRANCH  10   7
ATOM      4  C   UNL     1      -1.278   4.155  24.921  0.00  0.00    +0.132 A 
ATOM      5  C   UNL     1      -1.898   4.506  25.337  0.00  0.00    +0.034 A 
ATOM      6  C   UNL     1      -2.664   4.208  25.263  0.00  0.00    +0.008 A 
ATOM      7  C   UNL     1      -2.809   3.559  24.774  0.00  0.00    +0.058 A 
ATOM      8  C   UNL     1      -2.188   3.209  24.359  0.00  0.00    +0.103 A 
ATOM      9  N   UNL     1      -1.422   3.507  24.433  0.00  0.00    -0.229 NA
BRANCH   4   2
ATOM      1  C   UNL     1       0.086   3.981  25.311  0.00  0.00    +0.114 C 
ATOM      2  N   UNL     1      -0.512   4.453  24.995  0.00  0.00    -0.290 N 
ATOM      3  C   UNL     1      -0.343   5.224  24.752  0.00  0.00    +0.114 C 
ENDBRANCH   4   2
ENDBRANCH  10   7
BRANCH  13  15
ATOM     15  C   UNL     1      -5.217   1.994  25.204  0.00  0.00    +0.138 C 
ATOM     16  C   UNL     1      -5.857   2.164  25.696  0.00  0.00    +0.027 C 
ATOM     17  C   UNL     1      -6.242   1.455  25.868  0.00  0.00    +0.019 C 
ATOM     18  C   UNL     1      -5.839   0.847  25.482  0.00  0.00    +0.073 C 
ATOM     19  N   UNL     1      -5.206   1.180  25.072  0.00  0.00    -0.266 NA
BRANCH  19  20
ATOM     20  C   UNL     1      -4.658   0.771  24.610  0.00  0.00    +0.073 C 
BRANCH  20  21
ATOM     21  C   UNL     1      -4.571  -0.045  24.699  0.00  0.00    +0.022 C 
BRANCH  21  22
ATOM     22  C   UNL     1      -4.012  -0.451  24.249  0.00  0.00    +0.028 C 
BRANCH  22  23
ATOM     23  C   UNL     1      -3.887  -1.256  24.377  0.00  0.00    -0.022 A 
ATOM     24  C   UNL     1      -3.424  -1.506  25.013  0.00  0.00    -0.004 A 
ATOM     25  C   UNL     1      -3.299  -2.311  25.140  0.00  0.00    -0.000 A 
ATOM     26  C   UNL     1      -3.635  -2.867  24.632  0.00  0.00    -0.000 A 
ATOM     27  C   UNL     1      -4.098  -2.618  23.996  0.00  0.00    -0.000 A 
ATOM     28  C   UNL     1      -4.223  -1.812  23.868  0.00  0.00    -0.004 A 
ENDBRANCH  22  23
ENDBRANCH  21  22
ENDBRANCH  20  21
ENDBRANCH  19  20
ENDBRANCH  13  15
TORSDOF 7
ENDMDL
MODEL 3
REMARK VINA RESULT:     -11.0      1.623      3.367
REMARK  Name = 
REMARK  7 active torsions:
REMARK  status: ('A' for Active; 'I' for Inactive)
REMARK    1  A    between atoms: N_2  and  C_4
REMARK    2  A    between atoms: C_7  and  C_10
REMARK    3  A    between atoms: C_13  and  C_15
REMARK    4  A    between atoms: N_19  and  C_20
REMARK    5  A    between atoms: C_20  and  C_21
REMARK    6  A    between atoms: C_21  and  C_22
REMARK    7  A    between atoms: C_22  and  C_23
REMARK                            x       y       z     vdW  Elec       q    Type
REMARK                         _______ _______ _______ _____ _____    ______ ____
ROOT
ATOM     10  C   UNL     1      -1.222   1.434  24.276  0.00  0.00    +0.205 A 
ATOM     11  N   UNL     1      -1.102   1.792  23.542  0.00  0.00    -0.056 NA
ATOM     12  O   UNL     1      -1.193   2.605  23.637  0.00  0.00    -0.336 OA
ATOM     13  C   UNL     1      -1.370   2.751  24.430  0.00  0.00    +0.251 A 
ATOM     14  N   UNL     1      -1.387   2.028  24.824  0.00  0.00    -0.190 NA
ENDROOT
BRANCH  10   7
ATOM      4  C   UNL     1      -1.106  -0.993  24.749  0.00  0.00    +0.132 A 
ATOM      5  C   UNL     1      -1.801  -0.576  24.903  0.00  0.00    +0.034 A 
ATOM      6  C   UNL     1      -1.839   0.233  24.746  0.00  0.00    +0.008 A 
ATOM      7  C   UNL     1      -1.183   0.625  24.434  0.00  0.00    +0.058 A 
ATOM      8  C   UNL     1      -0.489   0.207  24.279  0.00  0.00    +0.103 A 
ATOM      9  N   UNL     1      -0.450  -0.602  24.437  0.00  0.00    -0.229 NA
BRANCH   4   2
ATOM      1  C   UNL     1      -1.631  -2.312  24.587  0.00  0.00    +0.114 C 
ATOM      2  N   UNL     1      -1.067  -1.801  24.906  0.00  0.00    -0.290 N 
ATOM      3  C   UNL     1      -0.463  -2.101  25.383  0.00  0.00    +0.114 C 
ENDBRANCH   4   2
ENDBRANCH  10   7
BRANCH  13  15
ATOM     15  C   UNL     1      -1.505   3.492  24.768  0.00  0.00    +0.138 C 
ATOM     16  C   UNL     1      -0.937   3.973  25.125  0.00  0.00    +0.027 C 
ATOM     17  C   UNL     1      -1.312   4.659  25.387  0.00  0.00    +0.019 C 
ATOM     18  C   UNL     1      -2.112   4.602  25.191  0.00  0.00    +0.073 C 
ATOM     19  N   UNL     1      -2.231   3.881  24.809  0.00  0.00    -0.266 NA
BRANCH  19  20
ATOM     20  C   UNL     1      -2.950   3.598  24.518  0.00  0.00    +0.073 C 
BRANCH  20  21
ATOM     21  C   UNL     1      -3.632   3.656  24.978  0.00  0.00    +0.022 C 
BRANCH  21  22
ATOM     22  C   UNL     1      -4.370   3.518  24.639  0.00  0.00    +0.028 C 
BRANCH  22  23
ATOM     23  C   UNL     1      -4.887   2.975  24.984  0.00  0.00    -0.022 A 
ATOM     24  C   UNL     1      -5.024   2.247  24.620  0.00  0.00    -0.004 A 
ATOM     25  C   UNL     1      -5.541   1.705  24.965  0.00  0.00    -0.000 A 
ATOM     26  C   UNL     1      -5.921   1.889  25.674  0.00  0.00    -0.000 A 
ATOM     27  C   UNL     1      -5.784   2.617  26.038  0.00  0.00    -0.000 A 
ATOM     28  C   UNL     1      -5.267   3.159  25.693  0.00  0.00    -0.004 A 
ENDBRANCH  22  23
ENDBRANCH  21  22
ENDBRANCH  20  21
ENDBRANCH  19  20
ENDBRANCH  13  15
TORSDOF 7
ENDMDL
MODEL 4
REMARK VINA RESULT:     -10.7      1.871      5.611
REMARK  Name = 
REMARK  7 active torsions:
REMARK  status: ('A' for Active; 'I' for Inactive)
REMARK    1  A    between atoms: N_2  and  C_4
REMARK    2  A    between atoms: C_7  and  C_10
REMARK    3  A    between atoms: C_13  and  C_15
REMARK    4  A    between atoms: N_19  and  C_20
REMARK    5  A    between atoms: C_20  and  C_21
REMARK    6  A    between atoms: C_21  and  C_22
REMARK    7  A    between atoms: C_22  and  C_23
REMARK                            x       y       z     vdW  Elec       q    Type
REMARK                         _______ _______ _______ _____ _____    ______ ____
ROOT
ATOM     10  C   UNL     1      -1.869   2.103  25.156  0.00  0.00    +0.205 A 
ATOM     11  N   UNL     1      -1.217   2.212  25.650  0.00  0.00    -0.056 NA
ATOM     12  O   UNL     1      -0.627   1.686  25.413  0.00  0.00    -0.336 OA
ATOM     13  C   UNL     1      -0.915   1.252  24.773  0.00  0.00    +0.251 A 
ATOM     14  N   UNL     1      -1.682   1.510  24.614  0.00  0.00    -0.190 NA
ENDROOT
BRANCH  10   7
ATOM      4  C   UNL     1      -4.009   3.340  25.279  0.00  0.00    +0.132 A 
ATOM      5  C   UNL     1      -3.980   2.603  24.908  0.00  0.00    +0.034 A 
ATOM      6  C   UNL     1      -3.266   2.191  24.867  0.00  0.00    +0.008 A 
ATOM      7  C   UNL     1      -2.582   2.515  25.197  0.00  0.00    +0.058 A 
ATOM      8  C   UNL     1      -2.613   3.252  25.567  0.00  0.00    +0.103 A 
ATOM      9  N   UNL     1      -3.327   3.664  25.608  0.00  0.00    -0.229 NA
BRANCH   4   2
ATOM      1  C   UNL     1      -5.392   3.388  25.636  0.00  0.00    +0.114 C 
ATOM      2  N   UNL     1      -4.723   3.752  25.320  0.00  0.00    -0.290 N 
ATOM      3  C   UNL     1      -4.767   4.529  25.044  0.00  0.00    +0.114 C 
ENDBRANCH   4   2
ENDBRANCH  10   7
BRANCH  13  15
ATOM     15  C   UNL     1      -0.506   0.664  24.364  0.00  0.00    +0.138 C 
ATOM     16  C   UNL     1       0.103   0.785  23.821  0.00  0.00    +0.027 C 
ATOM     17  C   UNL     1       0.351   0.047  23.547  0.00  0.00    +0.019 C 
ATOM     18  C   UNL     1      -0.106  -0.530  23.921  0.00  0.00    +0.073 C 
ATOM     19  N   UNL     1      -0.635  -0.148  24.426  0.00  0.00    -0.266 NA
BRANCH  19  20
ATOM     20  C   UNL     1      -1.195  -0.515  24.908  0.00  0.00    +0.073 C 
BRANCH  20  21
ATOM     21  C   UNL     1      -1.629  -1.156  24.622  0.00  0.00    +0.022 C 
BRANCH  21  22
ATOM     22  C   UNL     1      -2.227  -1.488  25.083  0.00  0.00    +0.028 C 
BRANCH  22  23
ATOM     23  C   UNL     1      -2.880  -1.837  24.721  0.00  0.00    -0.022 A 
ATOM     24  C   UNL     1      -3.517  -1.371  24.480  0.00  0.00    -0.004 A 
ATOM     25  C   UNL     1      -4.171  -1.721  24.118  0.00  0.00    -0.000 A 
ATOM     26  C   UNL     1      -4.188  -2.537  23.996  0.00  0.00    -0.000 A 
ATOM     27  C   UNL     1      -3.551  -3.003  24.238  0.00  0.00    -0.000 A 
ATOM     28  C   UNL     1      -2.898  -2.653  24.599  0.00  0.00    -0.004 A 
ENDBRANCH  22  23
ENDBRANCH  21  22
ENDBRANCH  20  21
ENDBRANCH  19  20
ENDBRANCH  13  15
TORSDOF 7
ENDMDL
MODEL 5
REMARK VINA RESULT:     -10.6      2.689      4.761
REMARK  Name = 
REMARK  7 active torsions:
REMARK  status: ('A' for Active; 'I' for Inactive)
REMARK    1  A    between atoms: N_2  and  C_4
REMARK    2  A    between atoms: C_7  and  C_10
REMARK    3  A    between atoms: C_13  and  C_15
REMARK    4  A    between atoms: N_19  and  C_20
REMARK    5  A    between atoms: C_20  and  C_21
REMARK    6  A    between atoms: C_21  and  C_22
REMARK    7  A    between atoms: C_22  and  C_23
REMARK                            x       y       z     vdW  Elec       q    Type
REMARK                         _______ _______ _______ _____ _____    ______ ____
ROOT
ATOM     10  C   UNL     1      -0.851   1.347  24.363  0.00  0.00    +0.205 A 
ATOM     11  N   UNL     1      -0.859   1.600  25.149  0.00  0.00    -0.056 NA
ATOM     12  O   UNL     1      -1.616   1.879  25.318  0.00  0.00    -0.336 OA
ATOM     13  C   UNL     1      -2.076   1.799  24.638  0.00  0.00    +0.251 A 
ATOM     14  N   UNL     1      -1.603   1.470  24.048  0.00  0.00    -0.190 NA
ENDROOT
BRANCH  10   7
ATOM      4  C   UNL     1       1.091   0.389  23.164  0.00  0.00    +0.132 A 
ATOM      5  C   UNL     1       0.416  -0.070  23.289  0.00  0.00    +0.034 A 
ATOM      6  C   UNL     1      -0.231   0.250  23.688  0.00  0.00    +0.008 A 
ATOM      7  C   UNL     1      -0.203   1.028  23.963  0.00  0.00    +0.058 A 
ATOM      8  C   UNL     1       0.472   1.485  23.838  0.00  0.00    +0.103 A 
ATOM      9  N   UNL     1       1.119   1.166  23.439  0.00  0.00    -0.229 NA
BRANCH   4   2
ATOM      1  C   UNL     1       1.624  -0.355  22.067  0.00  0.00    +0.114 C 
ATOM      2  N   UNL     1       1.738   0.069  22.764  0.00  0.00    -0.290 N 
ATOM      3  C   UNL     1       2.501   0.174  23.063  0.00  0.00    +0.114 C 
ENDBRANCH   4   2
ENDBRANCH  10   7
BRANCH  13  15
ATOM     15  C   UNL     1      -2.870   2.010  24.562  0.00  0.00    +0.138 C 
ATOM     16  C   UNL     1      -3.155   2.723  24.258  0.00  0.00    +0.027 C 
ATOM     17  C   UNL     1      -3.978   2.700  24.284  0.00  0.00    +0.019 C 
ATOM     18  C   UNL     1      -4.203   1.973  24.604  0.00  0.00    +0.073 C 
ATOM     19  N   UNL     1      -3.518   1.547  24.775  0.00  0.00    -0.266 NA
BRANCH  19  20
ATOM     20  C   UNL     1      -3.486   0.790  25.103  0.00  0.00    +0.073 C 
BRANCH  20  21
ATOM     21  C   UNL     1      -3.947   0.184  24.786  0.00  0.00    +0.022 C 
BRANCH  21  22
ATOM     22  C   UNL     1      -4.065  -0.510  25.215  0.00  0.00    +0.028 C 
BRANCH  22  23
ATOM     23  C   UNL     1      -3.935  -1.242  24.858  0.00  0.00    -0.022 A 
ATOM     24  C   UNL     1      -3.432  -1.791  25.214  0.00  0.00    -0.004 A 
ATOM     25  C   UNL     1      -3.301  -2.524  24.858  0.00  0.00    -0.000 A 
ATOM     26  C   UNL     1      -3.673  -2.707  24.144  0.00  0.00    -0.000 A 
ATOM     27  C   UNL     1      -4.176  -2.158  23.788  0.00  0.00    -0.000 A 
ATOM     28  C   UNL     1      -4.307  -1.426  24.145  0.00  0.00    -0.004 A 
ENDBRANCH  22  23
ENDBRANCH  21  22
ENDBRANCH  20  21
ENDBRANCH  19  20
ENDBRANCH  13  15
TORSDOF 7
ENDMDL
