MODEL 1
REMARK VINA RESULT:     -15.9      0.000      0.000
REMARK  Name = 
REMARK  2 active torsions:
REMARK  status: ('A' for Active; 'I' for Inactive)
REMARK    1  A    between atoms: C_10  and  N_11
REMARK    2  A    between atoms: C_12  and  C_14
REMARK                            x       y       z     vdW  Elec       q    Type
REMARK                         _______ _______ _______ _____ _____    ______ ____
ROOT
ATOM      1  C   UNL     1      -1.724   4.963  25.369  0.00  0.00    +0.012 C 
ATOM      2  C   UNL     1      -1.865   4.163  25.224  0.00  0.00    +0.103 C 
ATOM      3  C   UNL     1      -2.606   3.807  25.147  0.00  0.00    +0.051 C 
ATOM      4  C   UNL     1      -3.371   4.112  25.189  0.00  0.00    +0.004 C 
ATOM      5  C   UNL     1      -4.020   3.612  25.088  0.00  0.00    +0.000 C 
ATOM      6  C   UNL     1      -3.903   2.807  24.946  0.00  0.00    +0.003 C 
ATOM      7  C   UNL     1      -4.668   3.111  24.987  0.00  0.00    +0.000 C 
ATOM      8  C   UNL     1      -4.551   2.307  24.846  0.00  0.00    +0.002 C 
ATOM      9  C   UNL     1      -4.434   1.503  24.704  0.00  0.00    +0.022 C 
ATOM     10  C   UNL     1      -3.668   1.199  24.663  0.00  0.00    +0.096 C 
ATOM     20  C   UNL     1      -3.019   1.699  24.764  0.00  0.00    +0.023 C 
ATOM     21  C   UNL     1      -2.254   1.394  24.723  0.00  0.00    +0.002 C 
ATOM     22  C   UNL     1      -3.137   2.502  24.905  0.00  0.00    +0.042 C 
ATOM     23  C   UNL     1      -2.489   3.003  25.006  0.00  0.00    +0.169 C 
ATOM     24  O   UNL     1      -1.675   2.862  24.995  0.00  0.00    -0.452 OA
ATOM     25  C   UNL     1      -1.290   3.578  25.130  0.00  0.00    +0.316 C 
ATOM     26  O   UNL     1      -0.474   3.692  25.164  0.00  0.00    -0.250 OA
ENDROOT
BRANCH  10  11
ATOM     11  N   UNL     1      -3.550   0.394  24.521  0.00  0.00    -0.203 NA
ATOM     12  C   UNL     1      -4.026  -0.164  24.900  0.00  0.00    +0.265 C 
ATOM     13  O   UNL     1      -4.618   0.081  25.418  0.00  0.00    -0.268 OA
BRANCH  12  14
ATOM     14  C   UNL     1      -3.909  -0.969  24.759  0.00  0.00    +0.055 A 
ATOM     15  C   UNL     1      -4.197  -1.313  24.068  0.00  0.00    +0.005 A 
ATOM     16  C   UNL     1      -4.080  -2.117  23.927  0.00  0.00    +0.000 A 
ATOM     17  C   UNL     1      -3.674  -2.577  24.478  0.00  0.00    +0.000 A 
ATOM     18  C   UNL     1      -3.385  -2.233  25.170  0.00  0.00    +0.000 A 
ATOM     19  C   UNL     1      -3.502  -1.429  25.310  0.00  0.00    +0.005 A 
ENDBRANCH  12  14
ENDBRANCH  10  11
TORSDOF 2
ENDMDL
MODEL 2
REMARK VINA RESULT:     -14.7      1.293      4.701
REMARK  Name = 
REMARK  2 active torsions:
REMARK  status: ('A' for Active; 'I' for Inactive)
REMARK    1  A    between atoms: C_10  and  N_11
REMARK    2  A    between atoms: C_12  and  C_14
REMARK                            x       y       z     vdW  Elec       q    Type
REMARK                         _______ _______ _______ _____ _____    ______ ____
ROOT
ATOM      1  C   UNL     1      -3.199  -2.717  24.514  0.00  0.00    +0.012 C 
ATOM      2  C   UNL     1      -2.902  -1.955  24.623  0.00  0.00    +0.103 C 
ATOM      3  C   UNL     1      -3.341  -1.255  24.606  0.00  0.00    +0.051 C 
ATOM      4  C   UNL     1      -4.144  -1.112  24.485  0.00  0.00    +0.004 C 
ATOM      5  C   UNL     1      -4.431  -0.338  24.499  0.00  0.00    +0.000 C 
ATOM      6  C   UNL     1      -3.913   0.292  24.634  0.00  0.00    +0.003 C 
ATOM      7  C   UNL     1      -4.716   0.436  24.513  0.00  0.00    +0.000 C 
ATOM      8  C   UNL     1      -4.200   1.065  24.647  0.00  0.00    +0.002 C 
ATOM      9  C   UNL     1      -3.683   1.694  24.782  0.00  0.00    +0.022 C 
ATOM     10  C   UNL     1      -2.880   1.549  24.903  0.00  0.00    +0.096 C 
ATOM     20  C   UNL     1      -2.593   0.775  24.889  0.00  0.00    +0.023 C 
ATOM     21  C   UNL     1      -1.790   0.630  25.011  0.00  0.00    +0.002 C 
ATOM     22  C   UNL     1      -3.110   0.147  24.755  0.00  0.00    +0.042 C 
ATOM     23  C   UNL     1      -2.824  -0.627  24.741  0.00  0.00    +0.169 C 
ATOM     24  O   UNL     1      -2.065  -0.937  24.841  0.00  0.00    -0.452 OA
ATOM     25  C   UNL     1      -2.114  -1.757  24.769  0.00  0.00    +0.316 C 
ATOM     26  O   UNL     1      -1.485  -2.288  24.830  0.00  0.00    -0.250 OA
ENDROOT
BRANCH  10  11
ATOM     11  N   UNL     1      -2.362   2.177  25.038  0.00  0.00    -0.203 NA
ATOM     12  C   UNL     1      -2.503   2.910  24.685  0.00  0.00    +0.265 C 
ATOM     13  O   UNL     1      -3.160   3.013  24.197  0.00  0.00    -0.268 OA
BRANCH  12  14
ATOM     14  C   UNL     1      -1.986   3.539  24.819  0.00  0.00    +0.055 A 
ATOM     15  C   UNL     1      -1.215   3.508  24.530  0.00  0.00    +0.005 A 
ATOM     16  C   UNL     1      -0.698   4.137  24.664  0.00  0.00    +0.000 A 
ATOM     17  C   UNL     1      -0.954   4.797  25.088  0.00  0.00    +0.000 A 
ATOM     18  C   UNL     1      -1.726   4.828  25.377  0.00  0.00    +0.000 A 
ATOM     19  C   UNL     1      -2.242   4.199  25.243  0.00  0.00    +0.005 A 
ENDBRANCH  12  14
ENDBRANCH  10  11
TORSDOF 2
ENDMDL
MODEL 3
REMARK VINA RESULT:     -14.6      1.746      2.289
REMARK  Name = 
REMARK  2 active torsions:
REMARK  status: ('A' for Active; 'I' for Inactive)
REMARK    1  A    between atoms: C_10  and  N_11
REMARK    2  A    between atoms: C_12  and  C_14
REMARK                            x       y       z     vdW  Elec       q    Type
REMARK                         _______ _______ _______ _____ _____    ______ ____
ROOT
ATOM      1  C   UNL     1      -5.120   4.412  25.471  0.00  0.00    +0.012 C 
ATOM      2  C   UNL     1      -5.045   3.594  25.390  0.00  0.00    +0.103 C 
ATOM      3  C   UNL     1      -4.536   3.203  24.870  0.00  0.00    +0.051 C 
ATOM      4  C   UNL     1      -3.992   3.481  24.318  0.00  0.00    +0.004 C 
ATOM      5  C   UNL     1      -3.552   2.948  23.867  0.00  0.00    +0.000 C 
ATOM      6  C   UNL     1      -3.658   2.135  23.970  0.00  0.00    +0.003 C 
ATOM      7  C   UNL     1      -3.112   2.413  23.417  0.00  0.00    +0.000 C 
ATOM      8  C   UNL     1      -3.218   1.602  23.520  0.00  0.00    +0.002 C 
ATOM      9  C   UNL     1      -3.324   0.790  23.623  0.00  0.00    +0.022 C 
ATOM     10  C   UNL     1      -3.869   0.512  24.176  0.00  0.00    +0.096 C 
ATOM     20  C   UNL     1      -4.309   1.046  24.627  0.00  0.00    +0.023 C 
ATOM     21  C   UNL     1      -4.854   0.768  25.180  0.00  0.00    +0.002 C 
ATOM     22  C   UNL     1      -4.203   1.857  24.524  0.00  0.00    +0.042 C 
ATOM     23  C   UNL     1      -4.642   2.392  24.974  0.00  0.00    +0.169 C 
ATOM     24  O   UNL     1      -5.216   2.281  25.557  0.00  0.00    -0.452 OA
ATOM     25  C   UNL     1      -5.464   3.024  25.814  0.00  0.00    +0.316 C 
ATOM     26  O   UNL     1      -6.033   3.172  26.393  0.00  0.00    -0.250 OA
ENDROOT
BRANCH  10  11
ATOM     11  N   UNL     1      -3.975  -0.300  24.280  0.00  0.00    -0.203 NA
ATOM     12  C   UNL     1      -3.319  -0.799  24.318  0.00  0.00    +0.265 C 
ATOM     13  O   UNL     1      -2.558  -0.487  24.253  0.00  0.00    -0.268 OA
BRANCH  12  14
ATOM     14  C   UNL     1      -3.424  -1.611  24.422  0.00  0.00    +0.055 A 
ATOM     15  C   UNL     1      -3.902  -2.035  23.901  0.00  0.00    +0.005 A 
ATOM     16  C   UNL     1      -4.007  -2.846  24.005  0.00  0.00    +0.000 A 
ATOM     17  C   UNL     1      -3.633  -3.234  24.630  0.00  0.00    +0.000 A 
ATOM     18  C   UNL     1      -3.154  -2.809  25.151  0.00  0.00    +0.000 A 
ATOM     19  C   UNL     1      -3.050  -1.998  25.047  0.00  0.00    +0.005 A 
ENDBRANCH  12  14
ENDBRANCH  10  11
TORSDOF 2
ENDMDL
MODEL 4
REMARK VINA RESULT:     -14.4      1.411      5.168
REMARK  Name = 
REMARK  2 active torsions:
REMARK  status: ('A' for Active; 'I' for Inactive)
REMARK    1  A    between atoms: C_10  and  N_11
REMARK    2  A    between atoms: C_12  and  C_14
REMARK                            x       y       z     vdW  Elec       q    Type
REMARK                         _______ _______ _______ _____ _____    ______ ____
ROOT
ATOM      1  C   UNL     1      -3.598  -2.762  24.397  0.00  0.00    +0.012 C 
ATOM      2  C   UNL     1      -3.451  -1.951  24.435  0.00  0.00    +0.103 C 
ATOM      3  C   UNL     1      -2.747  -1.596  24.681  0.00  0.00    +0.051 C 
ATOM      4  C   UNL     1      -2.032  -1.914  24.941  0.00  0.00    +0.004 C 
ATOM      5  C   UNL     1      -1.411  -1.413  25.154  0.00  0.00    +0.000 C 
ATOM      6  C   UNL     1      -1.507  -0.594  25.106  0.00  0.00    +0.003 C 
ATOM      7  C   UNL     1      -0.792  -0.911  25.367  0.00  0.00    +0.000 C 
ATOM      8  C   UNL     1      -0.888  -0.093  25.319  0.00  0.00    +0.002 C 
ATOM      9  C   UNL     1      -0.983   0.725  25.271  0.00  0.00    +0.022 C 
ATOM     10  C   UNL     1      -1.699   1.042  25.010  0.00  0.00    +0.096 C 
ATOM     20  C   UNL     1      -2.319   0.540  24.797  0.00  0.00    +0.023 C 
ATOM     21  C   UNL     1      -3.035   0.857  24.536  0.00  0.00    +0.002 C 
ATOM     22  C   UNL     1      -2.223  -0.277  24.845  0.00  0.00    +0.042 C 
ATOM     23  C   UNL     1      -2.843  -0.779  24.633  0.00  0.00    +0.169 C 
ATOM     24  O   UNL     1      -3.607  -0.627  24.358  0.00  0.00    -0.452 OA
ATOM     25  C   UNL     1      -3.982  -1.351  24.236  0.00  0.00    +0.316 C 
ATOM     26  O   UNL     1      -4.753  -1.458  23.963  0.00  0.00    -0.250 OA
ENDROOT
BRANCH  10  11
ATOM     11  N   UNL     1      -1.796   1.860  24.962  0.00  0.00    -0.203 NA
ATOM     12  C   UNL     1      -1.325   2.358  25.422  0.00  0.00    +0.265 C 
ATOM     13  O   UNL     1      -0.759   2.038  25.930  0.00  0.00    -0.268 OA
BRANCH  12  14
ATOM     14  C   UNL     1      -1.421   3.176  25.375  0.00  0.00    +0.055 A 
ATOM     15  C   UNL     1      -2.076   3.535  25.724  0.00  0.00    +0.005 A 
ATOM     16  C   UNL     1      -2.171   4.354  25.676  0.00  0.00    +0.000 A 
ATOM     17  C   UNL     1      -1.612   4.812  25.280  0.00  0.00    +0.000 A 
ATOM     18  C   UNL     1      -0.956   4.452  24.930  0.00  0.00    +0.000 A 
ATOM     19  C   UNL     1      -0.861   3.634  24.978  0.00  0.00    +0.005 A 
ENDBRANCH  12  14
ENDBRANCH  10  11
TORSDOF 2
ENDMDL
MODEL 5
REMARK VINA RESULT:     -14.3      1.820      4.538
REMARK  Name = 
REMARK  2 active torsions:
REMARK  status: ('A' for Active; 'I' for Inactive)
REMARK    1  A    between atoms: C_10  and  N_11
REMARK    2  A    between atoms: C_12  and  C_14
REMARK                            x       y       z     vdW  Elec       q    Type
REMARK                         _______ _______ _______ _____ _____    ______ ____
ROOT
ATOM      1  C   UNL     1      -1.115  -2.902  24.677  0.00  0.00    +0.012 C 
ATOM      2  C   UNL     1      -1.451  -2.154  24.770  0.00  0.00    +0.103 C 
ATOM      3  C   UNL     1      -2.233  -1.949  24.601  0.00  0.00    +0.051 C 
ATOM      4  C   UNL     1      -2.868  -2.388  24.313  0.00  0.00    +0.004 C 
ATOM      5  C   UNL     1      -3.601  -2.026  24.197  0.00  0.00    +0.000 C 
ATOM      6  C   UNL     1      -3.697  -1.225  24.371  0.00  0.00    +0.003 C 
ATOM      7  C   UNL     1      -4.333  -1.664  24.082  0.00  0.00    +0.000 C 
ATOM      8  C   UNL     1      -4.429  -0.863  24.256  0.00  0.00    +0.002 C 
ATOM      9  C   UNL     1      -4.526  -0.063  24.429  0.00  0.00    +0.022 C 
ATOM     10  C   UNL     1      -3.890   0.376  24.718  0.00  0.00    +0.096 C 
ATOM     20  C   UNL     1      -3.157   0.014  24.833  0.00  0.00    +0.023 C 
ATOM     21  C   UNL     1      -2.521   0.453  25.122  0.00  0.00    +0.002 C 
ATOM     22  C   UNL     1      -3.061  -0.786  24.660  0.00  0.00    +0.042 C 
ATOM     23  C   UNL     1      -2.329  -1.149  24.775  0.00  0.00    +0.169 C 
ATOM     24  O   UNL     1      -1.606  -0.858  25.051  0.00  0.00    -0.452 OA
ATOM     25  C   UNL     1      -1.065  -1.480  25.047  0.00  0.00    +0.316 C 
ATOM     26  O   UNL     1      -0.274  -1.436  25.280  0.00  0.00    -0.250 OA
ENDROOT
BRANCH  10  11
ATOM     11  N   UNL     1      -3.985   1.177  24.892  0.00  0.00    -0.203 NA
ATOM     12  C   UNL     1      -4.736   1.519  24.860  0.00  0.00    +0.265 C 
ATOM     13  O   UNL     1      -5.390   1.060  24.655  0.00  0.00    -0.268 OA
BRANCH  12  14
ATOM     14  C   UNL     1      -4.833   2.320  25.034  0.00  0.00    +0.055 A 
ATOM     15  C   UNL     1      -4.413   2.887  24.608  0.00  0.00    +0.005 A 
ATOM     16  C   UNL     1      -4.510   3.688  24.782  0.00  0.00    +0.000 A 
ATOM     17  C   UNL     1      -5.027   3.920  25.381  0.00  0.00    +0.000 A 
ATOM     18  C   UNL     1      -5.447   3.352  25.807  0.00  0.00    +0.000 A 
ATOM     19  C   UNL     1      -5.350   2.552  25.633  0.00  0.00    +0.005 A 
ENDBRANCH  12  14
ENDBRANCH  10  11
TORSDOF 2
ENDMDL
MODEL 6
REMARK VINA RESULT:     -14.2      1.319      2.275
REMARK  Name = 
REMARK  2 active torsions:
REMARK  status: ('A' for Active; 'I' for Inactive)
REMARK    1  A    between atoms: C_10  and  N_11
REMARK    2  A    between atoms: C_12  and  C_14
REMARK                            x       y       z     vdW  Elec       q    Type
REMARK                         _______ _______ _______ _____ _____    ______ ____
ROOT
ATOM      1  C   UNL     1      -1.944   5.007  25.252  0.00  0.00    +0.012 C 
ATOM      2  C   UNL     1      -2.128   4.211  25.132  0.00  0.00    +0.103 C 
ATOM      3  C   UNL     1      -1.629   3.570  25.282  0.00  0.00    +0.051 C 
ATOM      4  C   UNL     1      -0.859   3.528  25.573  0.00  0.00    +0.004 C 
ATOM      5  C   UNL     1      -0.494   2.793  25.666  0.00  0.00    +0.000 C 
ATOM      6  C   UNL     1      -0.900   2.102  25.468  0.00  0.00    +0.003 C 
ATOM      7  C   UNL     1      -0.130   2.059  25.759  0.00  0.00    +0.000 C 
ATOM      8  C   UNL     1      -0.536   1.369  25.562  0.00  0.00    +0.002 C 
ATOM      9  C   UNL     1      -0.941   0.678  25.364  0.00  0.00    +0.022 C 
ATOM     10  C   UNL     1      -1.712   0.722  25.073  0.00  0.00    +0.096 C 
ATOM     20  C   UNL     1      -2.077   1.456  24.980  0.00  0.00    +0.023 C 
ATOM     21  C   UNL     1      -2.848   1.499  24.689  0.00  0.00    +0.002 C 
ATOM     22  C   UNL     1      -1.671   2.146  25.177  0.00  0.00    +0.042 C 
ATOM     23  C   UNL     1      -2.035   2.881  25.084  0.00  0.00    +0.169 C 
ATOM     24  O   UNL     1      -2.785   3.094  24.812  0.00  0.00    -0.452 OA
ATOM     25  C   UNL     1      -2.842   3.916  24.842  0.00  0.00    +0.316 C 
ATOM     26  O   UNL     1      -3.497   4.366  24.620  0.00  0.00    -0.250 OA
ENDROOT
BRANCH  10  11
ATOM     11  N   UNL     1      -2.119   0.031  24.875  0.00  0.00    -0.203 NA
ATOM     12  C   UNL     1      -2.051  -0.638  25.353  0.00  0.00    +0.265 C 
ATOM     13  O   UNL     1      -1.577  -0.617  26.029  0.00  0.00    -0.268 OA
BRANCH  12  14
ATOM     14  C   UNL     1      -2.457  -1.329  25.157  0.00  0.00    +0.055 A 
ATOM     15  C   UNL     1      -3.211  -1.464  25.460  0.00  0.00    +0.005 A 
ATOM     16  C   UNL     1      -3.618  -2.155  25.263  0.00  0.00    +0.000 A 
ATOM     17  C   UNL     1      -3.268  -2.710  24.763  0.00  0.00    +0.000 A 
ATOM     18  C   UNL     1      -2.513  -2.574  24.459  0.00  0.00    +0.000 A 
ATOM     19  C   UNL     1      -2.108  -1.883  24.656  0.00  0.00    +0.005 A 
ENDBRANCH  12  14
ENDBRANCH  10  11
TORSDOF 2
ENDMDL
MODEL 7
REMARK VINA RESULT:     -12.7      1.710      3.001
REMARK  Name = 
REMARK  2 active torsions:
REMARK  status: ('A' for Active; 'I' for Inactive)
REMARK    1  A    between atoms: C_10  and  N_11
REMARK    2  A    between atoms: C_12  and  C_14
REMARK                            x       y       z     vdW  Elec       q    Type
REMARK                         _______ _______ _______ _____ _____    ______ ____
ROOT
ATOM      1  C   UNL     1      -5.927   3.734  25.576  0.00  0.00    +0.012 C 
ATOM      2  C   UNL     1      -5.364   3.158  25.397  0.00  0.00    +0.103 C 
ATOM      3  C   UNL     1      -4.545   3.258  25.418  0.00  0.00    +0.051 C 
ATOM      4  C   UNL     1      -4.073   3.907  25.608  0.00  0.00    +0.004 C 
ATOM      5  C   UNL     1      -3.251   3.841  25.579  0.00  0.00    +0.000 C 
ATOM      6  C   UNL     1      -2.901   3.126  25.361  0.00  0.00    +0.003 C 
ATOM      7  C   UNL     1      -2.429   3.775  25.550  0.00  0.00    +0.000 C 
ATOM      8  C   UNL     1      -2.080   3.060  25.332  0.00  0.00    +0.002 C 
ATOM      9  C   UNL     1      -1.730   2.346  25.114  0.00  0.00    +0.022 C 
ATOM     10  C   UNL     1      -2.203   1.697  24.924  0.00  0.00    +0.096 C 
ATOM     20  C   UNL     1      -3.025   1.762  24.953  0.00  0.00    +0.023 C 
ATOM     21  C   UNL     1      -3.498   1.113  24.763  0.00  0.00    +0.002 C 
ATOM     22  C   UNL     1      -3.374   2.477  25.171  0.00  0.00    +0.042 C 
ATOM     23  C   UNL     1      -4.196   2.543  25.200  0.00  0.00    +0.169 C 
ATOM     24  O   UNL     1      -4.800   2.001  25.044  0.00  0.00    -0.452 OA
ATOM     25  C   UNL     1      -5.521   2.382  25.166  0.00  0.00    +0.316 C 
ATOM     26  O   UNL     1      -6.269   2.046  25.073  0.00  0.00    -0.250 OA
ENDROOT
BRANCH  10  11
ATOM     11  N   UNL     1      -1.855   0.981  24.705  0.00  0.00    -0.203 NA
ATOM     12  C   UNL     1      -1.207   0.693  25.128  0.00  0.00    +0.265 C 
ATOM     13  O   UNL     1      -0.908   1.120  25.767  0.00  0.00    -0.268 OA
BRANCH  12  14
ATOM     14  C   UNL     1      -0.857  -0.022  24.910  0.00  0.00    +0.055 A 
ATOM     15  C   UNL     1      -0.395  -0.065  24.229  0.00  0.00    +0.005 A 
ATOM     16  C   UNL     1      -0.045  -0.780  24.012  0.00  0.00    +0.000 A 
ATOM     17  C   UNL     1      -0.159  -1.452  24.476  0.00  0.00    +0.000 A 
ATOM     18  C   UNL     1      -0.622  -1.409  25.158  0.00  0.00    +0.000 A 
ATOM     19  C   UNL     1      -0.971  -0.694  25.375  0.00  0.00    +0.005 A 
ENDBRANCH  12  14
ENDBRANCH  10  11
TORSDOF 2
ENDMDL
