MODEL 1
REMARK VINA RESULT:     -12.6      0.000      0.000
REMARK  Name = 
REMARK  5 active torsions:
REMARK  status: ('A' for Active; 'I' for Inactive)
REMARK    1  A    between atoms: C_5  and  C_6
REMARK    2  A    between atoms: C_7  and  C_8
REMARK    3  A    between atoms: N_14  and  C_15
REMARK    4  A    between atoms: C_15  and  C_16
REMARK    5  A    between atoms: C_20  and  C_22
REMARK                            x       y       z     vdW  Elec       q    Type
REMARK                         _______ _______ _______ _____ _____    ______ ____
ROOT
ATOM      8  C   UNL     1      -2.074   1.794  24.931  0.00  0.00    +0.012 A 
ATOM      9  C   UNL     1      -2.798   1.404  24.873  0.00  0.00    +0.041 A 
ATOM     10  C   UNL     1      -3.695   1.575  24.769  0.00  0.00    +0.054 C 
ATOM     11  C   UNL     1      -4.149   2.105  24.695  0.00  0.00    +0.011 C 
ATOM     12  C   UNL     1      -4.174   1.292  24.732  0.00  0.00    +0.039 C 
ATOM     13  C   UNL     1      -4.407   0.332  24.753  0.00  0.00    +0.074 C 
ATOM     14  N   UNL     1      -3.644   0.005  24.850  0.00  0.00    -0.269 NA
ATOM     24  C   UNL     1      -3.936   0.651  24.788  0.00  0.00    +0.078 C 
ATOM     25  C   UNL     1      -3.239   1.103  24.841  0.00  0.00    +0.110 C 
ATOM     26  N   UNL     1      -2.826   0.580  24.910  0.00  0.00    -0.299 N 
ATOM     27  C   UNL     1      -2.131   0.147  25.005  0.00  0.00    +0.261 A 
ATOM     28  O   UNL     1      -2.160  -0.677  25.041  0.00  0.00    -0.267 OA
ATOM     29  C   UNL     1      -1.407   0.537  25.063  0.00  0.00    +0.061 A 
ATOM     30  C   UNL     1      -1.378   1.361  25.026  0.00  0.00    +0.006 A 
ENDROOT
BRANCH   8   7
ATOM      6  C   UNL     1      -1.355   3.017  25.108  0.00  0.00    +0.000 C 
ATOM      7  C   UNL     1      -2.045   2.618  24.895  0.00  0.00    +0.001 C 
BRANCH   6   5
ATOM      1 CL   UNL     1      -1.241   6.311  24.962  0.00  0.00    -0.082 Cl
ATOM      2  C   UNL     1      -1.270   5.488  24.998  0.00  0.00    +0.058 A 
ATOM      3  C   UNL     1      -1.868   5.114  25.427  0.00  0.00    +0.011 A 
ATOM      4  C   UNL     1      -1.896   4.291  25.463  0.00  0.00    +0.001 A 
ATOM      5  C   UNL     1      -1.327   3.841  25.071  0.00  0.00    +0.000 A 
ATOM     31  C   UNL     1      -0.729   4.214  24.643  0.00  0.00    +0.001 A 
ATOM     32  C   UNL     1      -0.700   5.038  24.607  0.00  0.00    +0.011 A 
ENDBRANCH   6   5
ENDBRANCH   8   7
BRANCH  14  15
ATOM     15  C   UNL     1      -3.059  -0.570  24.940  0.00  0.00    +0.099 C 
BRANCH  15  16
ATOM     16  C   UNL     1      -3.264  -1.369  24.955  0.00  0.00    -0.005 A 
ATOM     17  C   UNL     1      -3.138  -1.815  25.637  0.00  0.00    -0.003 A 
ATOM     18  C   UNL     1      -3.344  -2.615  25.652  0.00  0.00    +0.000 A 
ATOM     19  C   UNL     1      -3.676  -2.966  24.984  0.00  0.00    +0.010 A 
ATOM     20  C   UNL     1      -3.803  -2.521  24.302  0.00  0.00    +0.068 A 
ATOM     21  C   UNL     1      -3.597  -1.722  24.287  0.00  0.00    +0.007 A 
BRANCH  20  22
ATOM     22  C   UNL     1      -4.135  -2.873  23.634  0.00  0.00    +0.100 C 
ATOM     23  N   UNL     1      -4.469  -3.224  22.966  0.00  0.00    -0.191 NA
ENDBRANCH  20  22
ENDBRANCH  15  16
ENDBRANCH  14  15
TORSDOF 5
ENDMDL
MODEL 2
REMARK VINA RESULT:     -12.5      2.349      5.786
REMARK  Name = 
REMARK  5 active torsions:
REMARK  status: ('A' for Active; 'I' for Inactive)
REMARK    1  A    between atoms: C_5  and  C_6
REMARK    2  A    between atoms: C_7  and  C_8
REMARK    3  A    between atoms: N_14  and  C_15
REMARK    4  A    between atoms: C_15  and  C_16
REMARK    5  A    between atoms: C_20  and  C_22
REMARK                            x       y       z     vdW  Elec       q    Type
REMARK                         _______ _______ _______ _____ _____    ______ ____
ROOT
ATOM      8  C   UNL     1      -3.199   0.529  24.628  0.00  0.00    +0.012 A 
ATOM      9  C   UNL     1      -2.532   0.933  24.896  0.00  0.00    +0.041 A 
ATOM     10  C   UNL     1      -1.667   0.782  25.168  0.00  0.00    +0.054 C 
ATOM     11  C   UNL     1      -1.203   0.264  25.265  0.00  0.00    +0.011 C 
ATOM     12  C   UNL     1      -1.228   1.074  25.348  0.00  0.00    +0.039 C 
ATOM     13  C   UNL     1      -1.062   2.034  25.512  0.00  0.00    +0.074 C 
ATOM     14  N   UNL     1      -1.808   2.344  25.298  0.00  0.00    -0.269 NA
ATOM     24  C   UNL     1      -1.492   1.706  25.331  0.00  0.00    +0.078 C 
ATOM     25  C   UNL     1      -2.130   1.242  25.066  0.00  0.00    +0.110 C 
ATOM     26  N   UNL     1      -2.553   1.754  24.982  0.00  0.00    -0.299 N 
ATOM     27  C   UNL     1      -3.241   2.170  24.799  0.00  0.00    +0.261 A 
ATOM     28  O   UNL     1      -3.263   2.991  24.885  0.00  0.00    -0.267 OA
ATOM     29  C   UNL     1      -3.908   1.766  24.530  0.00  0.00    +0.061 A 
ATOM     30  C   UNL     1      -3.887   0.946  24.445  0.00  0.00    +0.006 A 
ENDROOT
BRANCH   8   7
ATOM      6  C   UNL     1      -3.881  -0.720  24.506  0.00  0.00    +0.000 C 
ATOM      7  C   UNL     1      -3.178  -0.291  24.542  0.00  0.00    +0.001 C 
BRANCH   6   5
ATOM      1 CL   UNL     1      -3.796  -4.001  24.164  0.00  0.00    -0.082 Cl
ATOM      2  C   UNL     1      -3.817  -3.182  24.249  0.00  0.00    +0.058 A 
ATOM      3  C   UNL     1      -3.525  -2.830  24.937  0.00  0.00    +0.011 A 
ATOM      4  C   UNL     1      -3.546  -2.011  25.022  0.00  0.00    +0.001 A 
ATOM      5  C   UNL     1      -3.860  -1.541  24.421  0.00  0.00    +0.000 A 
ATOM     31  C   UNL     1      -4.152  -1.891  23.734  0.00  0.00    +0.001 A 
ATOM     32  C   UNL     1      -4.131  -2.712  23.648  0.00  0.00    +0.011 A 
ENDBRANCH   6   5
ENDBRANCH   8   7
BRANCH  14  15
ATOM     15  C   UNL     1      -2.399   2.903  25.163  0.00  0.00    +0.099 C 
BRANCH  15  16
ATOM     16  C   UNL     1      -2.261   3.698  25.333  0.00  0.00    -0.005 A 
ATOM     17  C   UNL     1      -2.730   4.090  25.886  0.00  0.00    -0.003 A 
ATOM     18  C   UNL     1      -2.591   4.886  26.056  0.00  0.00    +0.000 A 
ATOM     19  C   UNL     1      -1.982   5.289  25.672  0.00  0.00    +0.010 A 
ATOM     20  C   UNL     1      -1.513   4.898  25.118  0.00  0.00    +0.068 A 
ATOM     21  C   UNL     1      -1.652   4.102  24.948  0.00  0.00    +0.007 A 
BRANCH  20  22
ATOM     22  C   UNL     1      -0.905   5.301  24.734  0.00  0.00    +0.100 C 
ATOM     23  N   UNL     1      -0.296   5.703  24.348  0.00  0.00    -0.191 NA
ENDBRANCH  20  22
ENDBRANCH  15  16
ENDBRANCH  14  15
TORSDOF 5
ENDMDL
MODEL 3
REMARK VINA RESULT:     -11.9      2.933      4.244
REMARK  Name = 
REMARK  5 active torsions:
REMARK  status: ('A' for Active; 'I' for Inactive)
REMARK    1  A    between atoms: C_5  and  C_6
REMARK    2  A    between atoms: C_7  and  C_8
REMARK    3  A    between atoms: N_14  and  C_15
REMARK    4  A    between atoms: C_15  and  C_16
REMARK    5  A    between atoms: C_20  and  C_22
REMARK                            x       y       z     vdW  Elec       q    Type
REMARK                         _______ _______ _______ _____ _____    ______ ____
ROOT
ATOM      8  C   UNL     1      -1.381   0.947  24.023  0.00  0.00    +0.012 A 
ATOM      9  C   UNL     1      -2.012   1.362  23.691  0.00  0.00    +0.041 A 
ATOM     10  C   UNL     1      -2.240   1.826  22.930  0.00  0.00    +0.054 C 
ATOM     11  C   UNL     1      -1.981   2.026  22.310  0.00  0.00    +0.011 C 
ATOM     12  C   UNL     1      -2.678   2.102  22.724  0.00  0.00    +0.039 C 
ATOM     13  C   UNL     1      -3.585   2.301  23.062  0.00  0.00    +0.074 C 
ATOM     14  N   UNL     1      -3.544   1.921  23.805  0.00  0.00    -0.269 NA
ATOM     24  C   UNL     1      -3.120   2.026  23.243  0.00  0.00    +0.078 C 
ATOM     25  C   UNL     1      -2.449   1.620  23.522  0.00  0.00    +0.110 C 
ATOM     26  N   UNL     1      -2.719   1.441  24.108  0.00  0.00    -0.299 N 
ATOM     27  C   UNL     1      -2.796   1.105  24.857  0.00  0.00    +0.261 A 
ATOM     28  O   UNL     1      -3.503   1.184  25.275  0.00  0.00    -0.267 OA
ATOM     29  C   UNL     1      -2.165   0.690  25.189  0.00  0.00    +0.061 A 
ATOM     30  C   UNL     1      -1.458   0.611  24.772  0.00  0.00    +0.006 A 
ENDROOT
BRANCH   8   7
ATOM      6  C   UNL     1      -0.047   0.443  23.932  0.00  0.00    +0.000 C 
ATOM      7  C   UNL     1      -0.674   0.868  23.605  0.00  0.00    +0.001 C 
BRANCH   6   5
ATOM      1 CL   UNL     1       2.782   0.127  22.263  0.00  0.00    -0.082 Cl
ATOM      2  C   UNL     1       2.075   0.206  22.680  0.00  0.00    +0.058 A 
ATOM      3  C   UNL     1       1.463  -0.335  22.563  0.00  0.00    +0.011 A 
ATOM      4  C   UNL     1       0.757  -0.256  22.980  0.00  0.00    +0.001 A 
ATOM      5  C   UNL     1       0.660   0.364  23.515  0.00  0.00    +0.000 A 
ATOM     31  C   UNL     1       1.271   0.906  23.633  0.00  0.00    +0.001 A 
ATOM     32  C   UNL     1       1.979   0.827  23.215  0.00  0.00    +0.011 A 
ENDBRANCH   6   5
ENDBRANCH   8   7
BRANCH  14  15
ATOM     15  C   UNL     1      -3.787   1.654  24.547  0.00  0.00    +0.099 C 
BRANCH  15  16
ATOM     16  C   UNL     1      -4.544   1.831  24.822  0.00  0.00    -0.005 A 
ATOM     17  C   UNL     1      -5.127   1.248  24.830  0.00  0.00    -0.003 A 
ATOM     18  C   UNL     1      -5.885   1.425  25.105  0.00  0.00    +0.000 A 
ATOM     19  C   UNL     1      -6.059   2.187  25.371  0.00  0.00    +0.010 A 
ATOM     20  C   UNL     1      -5.477   2.770  25.363  0.00  0.00    +0.068 A 
ATOM     21  C   UNL     1      -4.719   2.593  25.088  0.00  0.00    +0.007 A 
BRANCH  20  22
ATOM     22  C   UNL     1      -5.650   3.531  25.629  0.00  0.00    +0.100 C 
ATOM     23  N   UNL     1      -5.824   4.293  25.895  0.00  0.00    -0.191 NA
ENDBRANCH  20  22
ENDBRANCH  15  16
ENDBRANCH  14  15
TORSDOF 5
ENDMDL
MODEL 4
REMARK VINA RESULT:     -10.7      2.742      4.501
REMARK  Name = 
REMARK  5 active torsions:
REMARK  status: ('A' for Active; 'I' for Inactive)
REMARK    1  A    between atoms: C_5  and  C_6
REMARK    2  A    between atoms: C_7  and  C_8
REMARK    3  A    between atoms: N_14  and  C_15
REMARK    4  A    between atoms: C_15  and  C_16
REMARK    5  A    between atoms: C_20  and  C_22
REMARK                            x       y       z     vdW  Elec       q    Type
REMARK                         _______ _______ _______ _____ _____    ______ ____
ROOT
ATOM      8  C   UNL     1      -2.356   1.410  24.277  0.00  0.00    +0.012 A 
ATOM      9  C   UNL     1      -1.800   0.833  24.475  0.00  0.00    +0.041 A 
ATOM     10  C   UNL     1      -1.663   0.151  25.075  0.00  0.00    +0.054 C 
ATOM     11  C   UNL     1      -1.965  -0.173  25.619  0.00  0.00    +0.011 C 
ATOM     12  C   UNL     1      -1.274  -0.231  25.192  0.00  0.00    +0.039 C 
ATOM     13  C   UNL     1      -0.394  -0.458  24.804  0.00  0.00    +0.074 C 
ATOM     14  N   UNL     1      -0.359   0.113  24.195  0.00  0.00    -0.269 NA
ATOM     24  C   UNL     1      -0.811  -0.080  24.711  0.00  0.00    +0.078 C 
ATOM     25  C   UNL     1      -1.409   0.479  24.561  0.00  0.00    +0.110 C 
ATOM     26  N   UNL     1      -1.099   0.771  24.045  0.00  0.00    -0.299 N 
ATOM     27  C   UNL     1      -0.953   1.285  23.416  0.00  0.00    +0.261 A 
ATOM     28  O   UNL     1      -0.252   1.223  22.986  0.00  0.00    -0.267 OA
ATOM     29  C   UNL     1      -1.509   1.862  23.219  0.00  0.00    +0.061 A 
ATOM     30  C   UNL     1      -2.210   1.924  23.649  0.00  0.00    +0.006 A 
ENDROOT
BRANCH   8   7
ATOM      6  C   UNL     1      -3.657   1.976  24.449  0.00  0.00    +0.000 C 
ATOM      7  C   UNL     1      -3.057   1.472  24.708  0.00  0.00    +0.001 C 
BRANCH   6   5
ATOM      1 CL   UNL     1      -6.460   2.225  26.170  0.00  0.00    -0.082 Cl
ATOM      2  C   UNL     1      -5.760   2.163  25.740  0.00  0.00    +0.058 A 
ATOM      3  C   UNL     1      -5.166   2.728  25.833  0.00  0.00    +0.011 A 
ATOM      4  C   UNL     1      -4.466   2.666  25.403  0.00  0.00    +0.001 A 
ATOM      5  C   UNL     1      -4.358   2.038  24.879  0.00  0.00    +0.000 A 
ATOM     31  C   UNL     1      -4.951   1.472  24.786  0.00  0.00    +0.001 A 
ATOM     32  C   UNL     1      -5.652   1.535  25.216  0.00  0.00    +0.011 A 
ENDBRANCH   6   5
ENDBRANCH   8   7
BRANCH  14  15
ATOM     15  C   UNL     1      -0.060   0.536  23.552  0.00  0.00    +0.099 C 
BRANCH  15  16
ATOM     16  C   UNL     1       0.627   0.280  23.175  0.00  0.00    -0.005 A 
ATOM     17  C   UNL     1       0.599  -0.361  22.656  0.00  0.00    -0.003 A 
ATOM     18  C   UNL     1       1.287  -0.617  22.277  0.00  0.00    +0.000 A 
ATOM     19  C   UNL     1       2.002  -0.232  22.419  0.00  0.00    +0.010 A 
ATOM     20  C   UNL     1       2.031   0.408  22.938  0.00  0.00    +0.068 A 
ATOM     21  C   UNL     1       1.344   0.664  23.316  0.00  0.00    +0.007 A 
BRANCH  20  22
ATOM     22  C   UNL     1       2.747   0.793  23.080  0.00  0.00    +0.100 C 
ATOM     23  N   UNL     1       3.463   1.178  23.221  0.00  0.00    -0.191 NA
ENDBRANCH  20  22
ENDBRANCH  15  16
ENDBRANCH  14  15
TORSDOF 5
ENDMDL
