MODEL 1
REMARK VINA RESULT:     -13.3      0.000      0.000
REMARK  Name = 
REMARK  2 active torsions:
REMARK  status: ('A' for Active; 'I' for Inactive)
REMARK    1  A    between atoms: C_5  and  C_8
REMARK    2  A    between atoms: C_13  and  C_15
REMARK                            x       y       z     vdW  Elec       q    Type
REMARK                         _______ _______ _______ _____ _____    ______ ____
ROOT
ATOM      8  C   UNL     1      -3.923  -0.032  24.927  0.00  0.00    +0.249 C 
ATOM      9  O   UNL     1      -4.655   0.283  25.144  0.00  0.00    -0.270 OA
ATOM     10  N   UNL     1      -3.264   0.459  24.863  0.00  0.00    -0.276 N 
ATOM     11  C   UNL     1      -2.502   0.224  24.652  0.00  0.00    +0.094 C 
ATOM     12  C   UNL     1      -2.018   0.892  24.657  0.00  0.00    +0.031 C 
ATOM     13  C   UNL     1      -2.482   1.541  24.871  0.00  0.00    +0.080 C 
ATOM     14  C   UNL     1      -3.251   1.273  24.998  0.00  0.00    +0.101 C 
ENDROOT
BRANCH  13  15
ATOM     15  C   UNL     1      -2.221   2.320  24.945  0.00  0.00    +0.140 A 
ATOM     16  N   UNL     1      -2.638   2.941  25.291  0.00  0.00    -0.229 NA
ATOM     17  C   UNL     1      -2.172   3.619  25.246  0.00  0.00    +0.100 A 
ATOM     18  C   UNL     1      -1.465   3.418  24.871  0.00  0.00    +0.100 A 
ATOM     19  N   UNL     1      -1.495   2.615  24.685  0.00  0.00    -0.229 NA
ATOM     20  C   UNL     1      -0.886   3.992  24.747  0.00  0.00    +0.021 A 
ATOM     21  C   UNL     1      -1.013   4.767  24.999  0.00  0.00    +0.002 A 
ATOM     22  C   UNL     1      -1.719   4.969  25.373  0.00  0.00    +0.002 A 
ATOM     23  C   UNL     1      -2.299   4.395  25.497  0.00  0.00    +0.021 A 
ENDBRANCH  13  15
BRANCH   8   5
ATOM      1  F   UNL     1      -3.641  -3.262  24.313  0.00  0.00    -0.204 F 
ATOM      2  C   UNL     1      -3.712  -2.454  24.467  0.00  0.00    +0.140 A 
ATOM      3  C   UNL     1      -3.970  -1.943  23.874  0.00  0.00    +0.030 A 
ATOM      4  C   UNL     1      -4.041  -1.135  24.027  0.00  0.00    +0.007 A 
ATOM      5  C   UNL     1      -3.853  -0.840  24.774  0.00  0.00    +0.054 A 
ATOM      6  C   UNL     1      -3.595  -1.351  25.367  0.00  0.00    +0.007 A 
ATOM      7  C   UNL     1      -3.524  -2.159  25.213  0.00  0.00    +0.030 A 
ENDBRANCH   8   5
TORSDOF 2
ENDMDL
MODEL 2
REMARK VINA RESULT:     -13.0      2.221      5.304
REMARK  Name = 
REMARK  2 active torsions:
REMARK  status: ('A' for Active; 'I' for Inactive)
REMARK    1  A    between atoms: C_5  and  C_8
REMARK    2  A    between atoms: C_13  and  C_15
REMARK                            x       y       z     vdW  Elec       q    Type
REMARK                         _______ _______ _______ _____ _____    ______ ____
ROOT
ATOM      8  C   UNL     1      -1.422   2.419  25.491  0.00  0.00    +0.249 C 
ATOM      9  O   UNL     1      -0.867   2.069  25.991  0.00  0.00    -0.270 OA
ATOM     10  N   UNL     1      -1.982   1.952  25.105  0.00  0.00    -0.276 N 
ATOM     11  C   UNL     1      -2.568   2.223  24.592  0.00  0.00    +0.094 C 
ATOM     12  C   UNL     1      -3.003   1.570  24.334  0.00  0.00    +0.031 C 
ATOM     13  C   UNL     1      -2.685   0.896  24.688  0.00  0.00    +0.080 C 
ATOM     14  C   UNL     1      -2.054   1.132  25.165  0.00  0.00    +0.101 C 
ENDROOT
BRANCH  13  15
ATOM     15  C   UNL     1      -2.951   0.122  24.584  0.00  0.00    +0.140 A 
ATOM     16  N   UNL     1      -3.629  -0.106  24.174  0.00  0.00    -0.229 NA
ATOM     17  C   UNL     1      -3.682  -0.928  24.208  0.00  0.00    +0.100 A 
ATOM     18  C   UNL     1      -3.037  -1.208  24.640  0.00  0.00    +0.100 A 
ATOM     19  N   UNL     1      -2.585  -0.559  24.872  0.00  0.00    -0.229 NA
ATOM     20  C   UNL     1      -2.946  -2.019  24.765  0.00  0.00    +0.021 A 
ATOM     21  C   UNL     1      -3.498  -2.549  24.459  0.00  0.00    +0.002 A 
ATOM     22  C   UNL     1      -4.143  -2.269  24.028  0.00  0.00    +0.002 A 
ATOM     23  C   UNL     1      -4.236  -1.459  23.902  0.00  0.00    +0.021 A 
ENDBRANCH  13  15
BRANCH   8   5
ATOM      1  F   UNL     1      -1.400   5.687  25.037  0.00  0.00    -0.204 F 
ATOM      2  C   UNL     1      -1.406   4.870  25.151  0.00  0.00    +0.140 A 
ATOM      3  C   UNL     1      -0.851   4.397  24.767  0.00  0.00    +0.030 A 
ATOM      4  C   UNL     1      -0.856   3.579  24.880  0.00  0.00    +0.007 A 
ATOM      5  C   UNL     1      -1.417   3.236  25.378  0.00  0.00    +0.054 A 
ATOM      6  C   UNL     1      -1.972   3.709  25.763  0.00  0.00    +0.007 A 
ATOM      7  C   UNL     1      -1.967   4.527  25.649  0.00  0.00    +0.030 A 
ENDBRANCH   8   5
TORSDOF 2
ENDMDL
MODEL 3
REMARK VINA RESULT:     -11.4      1.899      2.460
REMARK  Name = 
REMARK  2 active torsions:
REMARK  status: ('A' for Active; 'I' for Inactive)
REMARK    1  A    between atoms: C_5  and  C_8
REMARK    2  A    between atoms: C_13  and  C_15
REMARK                            x       y       z     vdW  Elec       q    Type
REMARK                         _______ _______ _______ _____ _____    ______ ____
ROOT
ATOM      8  C   UNL     1      -3.449  -1.200  25.433  0.00  0.00    +0.249 C 
ATOM      9  O   UNL     1      -3.536  -1.277  26.250  0.00  0.00    -0.270 OA
ATOM     10  N   UNL     1      -3.642  -0.489  25.062  0.00  0.00    -0.276 N 
ATOM     11  C   UNL     1      -3.583  -0.332  24.254  0.00  0.00    +0.094 C 
ATOM     12  C   UNL     1      -3.833   0.445  24.127  0.00  0.00    +0.031 C 
ATOM     13  C   UNL     1      -4.046   0.767  24.857  0.00  0.00    +0.080 C 
ATOM     14  C   UNL     1      -3.928   0.190  25.434  0.00  0.00    +0.101 C 
ENDROOT
BRANCH  13  15
ATOM     15  C   UNL     1      -4.328   1.531  24.986  0.00  0.00    +0.140 A 
ATOM     16  N   UNL     1      -3.901   2.229  24.880  0.00  0.00    -0.229 NA
ATOM     17  C   UNL     1      -4.395   2.861  25.072  0.00  0.00    +0.100 A 
ATOM     18  C   UNL     1      -5.127   2.554  25.296  0.00  0.00    +0.100 A 
ATOM     19  N   UNL     1      -5.086   1.732  25.243  0.00  0.00    -0.229 NA
ATOM     20  C   UNL     1      -5.737   3.063  25.519  0.00  0.00    +0.021 A 
ATOM     21  C   UNL     1      -5.615   3.878  25.519  0.00  0.00    +0.002 A 
ATOM     22  C   UNL     1      -4.883   4.185  25.295  0.00  0.00    +0.002 A 
ATOM     23  C   UNL     1      -4.273   3.678  25.071  0.00  0.00    +0.021 A 
ENDBRANCH  13  15
BRANCH   8   5
ATOM      1  F   UNL     1      -2.322  -3.739  23.651  0.00  0.00    -0.204 F 
ATOM      2  C   UNL     1      -2.604  -3.104  24.097  0.00  0.00    +0.140 A 
ATOM      3  C   UNL     1      -2.076  -2.552  24.407  0.00  0.00    +0.030 A 
ATOM      4  C   UNL     1      -2.357  -1.917  24.853  0.00  0.00    +0.007 A 
ATOM      5  C   UNL     1      -3.167  -1.835  24.987  0.00  0.00    +0.054 A 
ATOM      6  C   UNL     1      -3.695  -2.387  24.677  0.00  0.00    +0.007 A 
ATOM      7  C   UNL     1      -3.413  -3.022  24.231  0.00  0.00    +0.030 A 
ENDBRANCH   8   5
TORSDOF 2
ENDMDL
