MODEL 1
REMARK VINA RESULT:      -9.0      0.000      0.000
REMARK  Name = 
REMARK  9 active torsions:
REMARK  status: ('A' for Active; 'I' for Inactive)
REMARK    1  A    between atoms: O_2  and  C_3
REMARK    2  A    between atoms: C_3  and  C_4
REMARK    3  A    between atoms: N_8  and  C_9
REMARK    4  A    between atoms: C_10  and  C_11
REMARK    5  A    between atoms: C_11  and  N_12
REMARK    6  A    between atoms: N_12  and  S_13
REMARK    7  A    between atoms: S_13  and  C_16
REMARK    8  A    between atoms: C_19  and  O_20
REMARK    9  A    between atoms: C_25  and  C_26
REMARK                            x       y       z     vdW  Elec       q    Type
REMARK                         _______ _______ _______ _____ _____    ______ ____
ROOT
ATOM      9  C   UNL     1      -3.707   2.645  24.465  0.00  0.00    +0.120 C 
ATOM     10  C   UNL     1      -4.080   2.008  24.834  0.00  0.00    +0.152 C 
ATOM     24  O   UNL     1      -4.705   2.305  25.284  0.00  0.00    -0.350 OA
ATOM     25  C   UNL     1      -4.718   3.124  25.192  0.00  0.00    +0.180 C 
ATOM     28  C   UNL     1      -4.102   3.334  24.686  0.00  0.00    +0.198 C 
ATOM     29  O   UNL     1      -3.912   4.100  24.444  0.00  0.00    -0.219 OA
ENDROOT
BRANCH   9   8
ATOM      4  C   UNL     1      -2.265   2.688  24.184  0.00  0.00    +0.087 C 
ATOM      5  C   UNL     1      -1.799   2.601  23.508  0.00  0.00    +0.020 C 
ATOM      6  C   UNL     1      -2.301   2.457  22.869  0.00  0.00    +0.019 C 
ATOM      7  C   UNL     1      -3.077   2.456  23.149  0.00  0.00    +0.072 C 
ATOM      8  N   UNL     1      -3.055   2.599  23.962  0.00  0.00    -0.269 NA
BRANCH   4   3
ATOM      3  C   UNL     1      -1.989   2.839  24.946  0.00  0.00    +0.158 C 
BRANCH   3   2
ATOM      1  C   UNL     1      -0.902   3.021  25.855  0.00  0.00    +0.174 C 
ATOM      2  O   UNL     1      -1.178   2.889  25.089  0.00  0.00    -0.350 OA
ENDBRANCH   3   2
ENDBRANCH   4   3
ENDBRANCH   9   8
BRANCH  25  26
ATOM     26  C   UNL     1      -5.254   3.644  25.545  0.00  0.00    +0.214 C 
ATOM     27  O   UNL     1      -5.828   3.355  26.062  0.00  0.00    -0.218 OA
ENDBRANCH  25  26
BRANCH  10  11
ATOM     11  C   UNL     1      -3.866   1.215  24.766  0.00  0.00    +0.146 C 
BRANCH  11  12
ATOM     12  N   UNL     1      -4.348   0.628  25.087  0.00  0.00    -0.075 NA
BRANCH  12  13
ATOM     13  S   UNL     1      -4.170  -0.168  24.962  0.00  0.00    +0.077 S 
ATOM     14  O   UNL     1      -4.724  -0.196  24.351  0.00  0.00    -0.152 OA
ATOM     15  O   UNL     1      -3.616  -0.140  25.573  0.00  0.00    -0.152 OA
BRANCH  13  16
ATOM     16  C   UNL     1      -3.992  -0.964  24.836  0.00  0.00    +0.124 A 
ATOM     17  C   UNL     1      -4.206  -1.327  24.127  0.00  0.00    +0.023 A 
ATOM     18  C   UNL     1      -4.027  -2.123  24.001  0.00  0.00    +0.038 A 
ATOM     19  C   UNL     1      -3.635  -2.555  24.585  0.00  0.00    +0.139 A 
ATOM     22  C   UNL     1      -3.422  -2.191  25.294  0.00  0.00    +0.038 A 
ATOM     23  C   UNL     1      -3.600  -1.395  25.419  0.00  0.00    +0.023 A 
BRANCH  19  20
ATOM     20  O   UNL     1      -3.457  -3.351  24.460  0.00  0.00    -0.471 OA
ATOM     21  C   UNL     1      -2.790  -3.559  24.023  0.00  0.00    +0.252 C 
ENDBRANCH  19  20
ENDBRANCH  13  16
ENDBRANCH  12  13
ENDBRANCH  11  12
ENDBRANCH  10  11
TORSDOF 9
ENDMDL
MODEL 2
REMARK VINA RESULT:      -8.8      1.059      2.466
REMARK  Name = 
REMARK  9 active torsions:
REMARK  status: ('A' for Active; 'I' for Inactive)
REMARK    1  A    between atoms: O_2  and  C_3
REMARK    2  A    between atoms: C_3  and  C_4
REMARK    3  A    between atoms: N_8  and  C_9
REMARK    4  A    between atoms: C_10  and  C_11
REMARK    5  A    between atoms: C_11  and  N_12
REMARK    6  A    between atoms: N_12  and  S_13
REMARK    7  A    between atoms: S_13  and  C_16
REMARK    8  A    between atoms: C_19  and  O_20
REMARK    9  A    between atoms: C_25  and  C_26
REMARK                            x       y       z     vdW  Elec       q    Type
REMARK                         _______ _______ _______ _____ _____    ______ ____
ROOT
ATOM      9  C   UNL     1      -2.131   2.545  24.707  0.00  0.00    +0.120 C 
ATOM     10  C   UNL     1      -1.937   1.805  25.016  0.00  0.00    +0.152 C 
ATOM     24  O   UNL     1      -1.295   1.901  25.525  0.00  0.00    -0.350 OA
ATOM     25  C   UNL     1      -1.092   2.700  25.531  0.00  0.00    +0.180 C 
ATOM     28  C   UNL     1      -1.609   3.098  25.026  0.00  0.00    +0.198 C 
ATOM     29  O   UNL     1      -1.604   3.908  24.867  0.00  0.00    -0.219 OA
ENDROOT
BRANCH   9   8
ATOM      4  C   UNL     1      -3.501   2.957  24.368  0.00  0.00    +0.087 C 
ATOM      5  C   UNL     1      -3.926   3.047  23.667  0.00  0.00    +0.020 C 
ATOM      6  C   UNL     1      -3.428   2.850  23.039  0.00  0.00    +0.019 C 
ATOM      7  C   UNL     1      -2.695   2.638  23.352  0.00  0.00    +0.072 C 
ATOM      8  N   UNL     1      -2.740   2.704  24.174  0.00  0.00    -0.269 NA
BRANCH   4   3
ATOM      3  C   UNL     1      -3.786   3.095  25.130  0.00  0.00    +0.158 C 
BRANCH   3   2
ATOM      1  C   UNL     1      -4.884   3.375  26.001  0.00  0.00    +0.174 C 
ATOM      2  O   UNL     1      -4.569   3.333  25.239  0.00  0.00    -0.350 OA
ENDBRANCH   3   2
ENDBRANCH   4   3
ENDBRANCH   9   8
BRANCH  25  26
ATOM     26  C   UNL     1      -0.480   3.042  25.966  0.00  0.00    +0.214 C 
ATOM     27  O   UNL     1       0.181   2.594  26.170  0.00  0.00    -0.218 OA
ENDBRANCH  25  26
BRANCH  10  11
ATOM     11  C   UNL     1      -2.319   1.094  24.845  0.00  0.00    +0.146 C 
BRANCH  11  12
ATOM     12  N   UNL     1      -2.045   0.389  25.175  0.00  0.00    -0.075 NA
BRANCH  12  13
ATOM     13  S   UNL     1      -2.417  -0.324  24.993  0.00  0.00    +0.077 S 
ATOM     14  O   UNL     1      -1.907  -0.427  24.352  0.00  0.00    -0.152 OA
ATOM     15  O   UNL     1      -2.927  -0.221  25.633  0.00  0.00    -0.152 OA
BRANCH  13  16
ATOM     16  C   UNL     1      -2.790  -1.038  24.811  0.00  0.00    +0.124 A 
ATOM     17  C   UNL     1      -2.404  -1.753  24.955  0.00  0.00    +0.023 A 
ATOM     18  C   UNL     1      -2.776  -2.466  24.774  0.00  0.00    +0.038 A 
ATOM     19  C   UNL     1      -3.535  -2.464  24.447  0.00  0.00    +0.139 A 
ATOM     22  C   UNL     1      -3.920  -1.749  24.304  0.00  0.00    +0.038 A 
ATOM     23  C   UNL     1      -3.547  -1.036  24.486  0.00  0.00    +0.023 A 
BRANCH  19  20
ATOM     20  O   UNL     1      -3.907  -3.177  24.266  0.00  0.00    -0.471 OA
ATOM     21  C   UNL     1      -4.354  -3.245  23.576  0.00  0.00    +0.252 C 
ENDBRANCH  19  20
ENDBRANCH  13  16
ENDBRANCH  12  13
ENDBRANCH  11  12
ENDBRANCH  10  11
TORSDOF 9
ENDMDL
MODEL 3
REMARK VINA RESULT:      -8.1      1.938      5.188
REMARK  Name = 
REMARK  9 active torsions:
REMARK  status: ('A' for Active; 'I' for Inactive)
REMARK    1  A    between atoms: O_2  and  C_3
REMARK    2  A    between atoms: C_3  and  C_4
REMARK    3  A    between atoms: N_8  and  C_9
REMARK    4  A    between atoms: C_10  and  C_11
REMARK    5  A    between atoms: C_11  and  N_12
REMARK    6  A    between atoms: N_12  and  S_13
REMARK    7  A    between atoms: S_13  and  C_16
REMARK    8  A    between atoms: C_19  and  O_20
REMARK    9  A    between atoms: C_25  and  C_26
REMARK                            x       y       z     vdW  Elec       q    Type
REMARK                         _______ _______ _______ _____ _____    ______ ____
ROOT
ATOM      9  C   UNL     1      -1.791  -0.772  24.922  0.00  0.00    +0.120 C 
ATOM     10  C   UNL     1      -1.815  -0.019  24.589  0.00  0.00    +0.152 C 
ATOM     24  O   UNL     1      -1.129   0.084  24.140  0.00  0.00    -0.350 OA
ATOM     25  C   UNL     1      -0.682  -0.607  24.197  0.00  0.00    +0.180 C 
ATOM     28  C   UNL     1      -1.091  -1.136  24.680  0.00  0.00    +0.198 C 
ATOM     29  O   UNL     1      -0.843  -1.896  24.886  0.00  0.00    -0.219 OA
ENDROOT
BRANCH   9   8
ATOM      4  C   UNL     1      -2.997  -1.576  25.167  0.00  0.00    +0.087 C 
ATOM      5  C   UNL     1      -3.432  -1.787  25.836  0.00  0.00    +0.020 C 
ATOM      6  C   UNL     1      -3.070  -1.445  26.494  0.00  0.00    +0.019 C 
ATOM      7  C   UNL     1      -2.411  -1.023  26.232  0.00  0.00    +0.072 C 
ATOM      8  N   UNL     1      -2.366  -1.105  25.412  0.00  0.00    -0.269 NA
BRANCH   4   3
ATOM      3  C   UNL     1      -3.164  -1.799  24.390  0.00  0.00    +0.158 C 
BRANCH   3   2
ATOM      1  C   UNL     1      -4.102  -2.367  23.475  0.00  0.00    +0.174 C 
ATOM      2  O   UNL     1      -3.785  -2.319  24.235  0.00  0.00    -0.350 OA
ENDBRANCH   3   2
ENDBRANCH   4   3
ENDBRANCH   9   8
BRANCH  25  26
ATOM     26  C   UNL     1       0.046  -0.744  23.835  0.00  0.00    +0.214 C 
ATOM     27  O   UNL     1       0.405  -0.149  23.392  0.00  0.00    -0.218 OA
ENDBRANCH  25  26
BRANCH  10  11
ATOM     11  C   UNL     1      -2.418   0.536  24.686  0.00  0.00    +0.146 C 
BRANCH  11  12
ATOM     12  N   UNL     1      -2.331   1.298  24.382  0.00  0.00    -0.075 NA
BRANCH  12  13
ATOM     13  S   UNL     1      -2.893   1.877  24.553  0.00  0.00    +0.077 S 
ATOM     14  O   UNL     1      -3.356   1.614  23.922  0.00  0.00    -0.152 OA
ATOM     15  O   UNL     1      -2.431   2.140  25.183  0.00  0.00    -0.152 OA
BRANCH  13  16
ATOM     16  C   UNL     1      -3.455   2.456  24.723  0.00  0.00    +0.124 A 
ATOM     17  C   UNL     1      -3.253   3.255  24.672  0.00  0.00    +0.023 A 
ATOM     18  C   UNL     1      -3.815   3.834  24.843  0.00  0.00    +0.038 A 
ATOM     19  C   UNL     1      -4.580   3.615  25.065  0.00  0.00    +0.139 A 
ATOM     22  C   UNL     1      -4.781   2.816  25.115  0.00  0.00    +0.038 A 
ATOM     23  C   UNL     1      -4.219   2.237  24.944  0.00  0.00    +0.023 A 
BRANCH  19  20
ATOM     20  O   UNL     1      -5.142   4.194  25.235  0.00  0.00    -0.471 OA
ATOM     21  C   UNL     1      -5.828   3.994  25.647  0.00  0.00    +0.252 C 
ENDBRANCH  19  20
ENDBRANCH  13  16
ENDBRANCH  12  13
ENDBRANCH  11  12
ENDBRANCH  10  11
TORSDOF 9
ENDMDL
