MODEL 1
REMARK VINA RESULT:      -8.9      0.000      0.000
REMARK  Name = 
REMARK  7 active torsions:
REMARK  status: ('A' for Active; 'I' for Inactive)
REMARK    1  A    between atoms: C_3  and  C_4
REMARK    2  A    between atoms: C_4  and  N_5
REMARK    3  A    between atoms: C_6  and  C_8
REMARK    4  A    between atoms: C_15  and  N_16
REMARK    5  A    between atoms: N_16  and  C_17
REMARK    6  A    between atoms: C_17  and  C_18
REMARK    7  A    between atoms: C_21  and  C_24
REMARK                            x       y       z     vdW  Elec       q    Type
REMARK                         _______ _______ _______ _____ _____    ______ ____
ROOT
ATOM      1  O   UNL     1      -0.834   0.925  23.783  0.00  0.00    -0.219 OA
ATOM      2  C   UNL     1      -0.754   0.939  24.604  0.00  0.00    +0.199 C 
ATOM      3  C   UNL     1      -0.518   1.587  25.057  0.00  0.00    +0.169 C 
ATOM     13  O   UNL     1      -0.514   1.357  25.849  0.00  0.00    -0.350 OA
ATOM     14  C   UNL     1      -0.749   0.567  25.886  0.00  0.00    +0.162 C 
ATOM     15  C   UNL     1      -0.897   0.308  25.117  0.00  0.00    +0.135 C 
ENDROOT
BRANCH   3   4
ATOM      4  C   UNL     1      -0.319   2.334  24.768  0.00  0.00    +0.148 C 
BRANCH   4   5
ATOM      5  N   UNL     1      -0.763   2.993  24.990  0.00  0.00    -0.199 NA
ATOM      6  C   UNL     1      -0.602   3.730  24.655  0.00  0.00    +0.271 C 
ATOM      7  O   UNL     1       0.002   3.808  24.099  0.00  0.00    -0.268 OA
BRANCH   6   8
ATOM      8  C   UNL     1      -1.046   4.390  24.877  0.00  0.00    +0.084 A 
ATOM      9  C   UNL     1      -0.822   5.178  24.786  0.00  0.00    +0.012 A 
ATOM     10  C   UNL     1      -1.428   5.652  25.082  0.00  0.00    +0.008 A 
ATOM     11  C   UNL     1      -2.028   5.156  25.357  0.00  0.00    +0.036 A 
ATOM     12  S   UNL     1      -1.792   4.376  25.231  0.00  0.00    -0.082 S 
ENDBRANCH   6   8
ENDBRANCH   4   5
ENDBRANCH   3   4
BRANCH  15  16
ATOM     16  N   UNL     1      -1.144  -0.447  24.898  0.00  0.00    -0.209 NA
BRANCH  16  17
ATOM     17  C   UNL     1      -1.631  -0.883  25.402  0.00  0.00    +0.115 C 
BRANCH  17  18
ATOM     18  C   UNL     1      -2.205  -1.386  25.087  0.00  0.00    -0.005 A 
ATOM     19  C   UNL     1      -1.980  -2.041  24.640  0.00  0.00    -0.003 A 
ATOM     20  C   UNL     1      -2.554  -2.544  24.326  0.00  0.00    +0.006 A 
ATOM     21  C   UNL     1      -3.354  -2.390  24.459  0.00  0.00    +0.080 A 
ATOM     22  C   UNL     1      -3.579  -1.735  24.907  0.00  0.00    +0.006 A 
ATOM     23  C   UNL     1      -3.005  -1.232  25.221  0.00  0.00    -0.003 A 
BRANCH  21  24
ATOM     24  C   UNL     1      -3.928  -2.893  24.145  0.00  0.00    +0.388 C 
ATOM     25  O   UNL     1      -3.896  -3.703  24.298  0.00  0.00    -0.241 OA
ATOM     26  O   UNL     1      -4.534  -2.585  23.678  0.00  0.00    -0.241 OA
ENDBRANCH  21  24
ENDBRANCH  17  18
ENDBRANCH  16  17
ENDBRANCH  15  16
TORSDOF 7
ENDMDL
MODEL 2
REMARK VINA RESULT:      -8.8      1.915      5.983
REMARK  Name = 
REMARK  7 active torsions:
REMARK  status: ('A' for Active; 'I' for Inactive)
REMARK    1  A    between atoms: C_3  and  C_4
REMARK    2  A    between atoms: C_4  and  N_5
REMARK    3  A    between atoms: C_6  and  C_8
REMARK    4  A    between atoms: C_15  and  N_16
REMARK    5  A    between atoms: N_16  and  C_17
REMARK    6  A    between atoms: C_17  and  C_18
REMARK    7  A    between atoms: C_21  and  C_24
REMARK                            x       y       z     vdW  Elec       q    Type
REMARK                         _______ _______ _______ _____ _____    ______ ____
ROOT
ATOM      1  O   UNL     1      -0.904   0.463  23.920  0.00  0.00    -0.219 OA
ATOM      2  C   UNL     1      -0.925   0.323  24.733  0.00  0.00    +0.199 C 
ATOM      3  C   UNL     1      -1.091  -0.399  25.097  0.00  0.00    +0.169 C 
ATOM     13  O   UNL     1      -1.052  -0.287  25.912  0.00  0.00    -0.350 OA
ATOM     14  C   UNL     1      -0.862   0.503  26.054  0.00  0.00    +0.162 C 
ATOM     15  C   UNL     1      -0.784   0.880  25.325  0.00  0.00    +0.135 C 
ENDROOT
BRANCH   3   4
ATOM      4  C   UNL     1      -1.265  -1.107  24.711  0.00  0.00    +0.148 C 
BRANCH   4   5
ATOM      5  N   UNL     1      -2.049  -1.349  24.626  0.00  0.00    -0.199 NA
ATOM      6  C   UNL     1      -2.220  -2.115  24.370  0.00  0.00    +0.271 C 
ATOM      7  O   UNL     1      -1.605  -2.638  24.199  0.00  0.00    -0.268 OA
BRANCH   6   8
ATOM      8  C   UNL     1      -3.004  -2.356  24.284  0.00  0.00    +0.084 A 
ATOM      9  C   UNL     1      -3.617  -1.908  23.962  0.00  0.00    +0.012 A 
ATOM     10  C   UNL     1      -4.304  -2.363  23.985  0.00  0.00    +0.008 A 
ATOM     11  C   UNL     1      -4.116  -3.092  24.321  0.00  0.00    +0.036 A 
ATOM     12  S   UNL     1      -3.313  -3.088  24.506  0.00  0.00    -0.082 S 
ENDBRANCH   6   8
ENDBRANCH   4   5
ENDBRANCH   3   4
BRANCH  15  16
ATOM     16  N   UNL     1      -0.597   1.675  25.208  0.00  0.00    -0.209 NA
BRANCH  16  17
ATOM     17  C   UNL     1      -0.763   2.229  25.796  0.00  0.00    +0.115 C 
BRANCH  17  18
ATOM     18  C   UNL     1      -0.892   3.019  25.594  0.00  0.00    -0.005 A 
ATOM     19  C   UNL     1      -0.303   3.446  25.205  0.00  0.00    -0.003 A 
ATOM     20  C   UNL     1      -0.432   4.236  25.004  0.00  0.00    +0.006 A 
ATOM     21  C   UNL     1      -1.149   4.598  25.192  0.00  0.00    +0.080 A 
ATOM     22  C   UNL     1      -1.738   4.170  25.581  0.00  0.00    +0.006 A 
ATOM     23  C   UNL     1      -1.609   3.380  25.782  0.00  0.00    -0.003 A 
BRANCH  21  24
ATOM     24  C   UNL     1      -1.278   5.388  24.990  0.00  0.00    +0.388 C 
ATOM     25  O   UNL     1      -2.010   5.738  25.140  0.00  0.00    -0.241 OA
ATOM     26  O   UNL     1      -0.674   5.827  24.639  0.00  0.00    -0.241 OA
ENDBRANCH  21  24
ENDBRANCH  17  18
ENDBRANCH  16  17
ENDBRANCH  15  16
TORSDOF 7
ENDMDL
MODEL 3
REMARK VINA RESULT:      -8.7      2.143      2.512
REMARK  Name = 
REMARK  7 active torsions:
REMARK  status: ('A' for Active; 'I' for Inactive)
REMARK    1  A    between atoms: C_3  and  C_4
REMARK    2  A    between atoms: C_4  and  N_5
REMARK    3  A    between atoms: C_6  and  C_8
REMARK    4  A    between atoms: C_15  and  N_16
REMARK    5  A    between atoms: N_16  and  C_17
REMARK    6  A    between atoms: C_17  and  C_18
REMARK    7  A    between atoms: C_21  and  C_24
REMARK                            x       y       z     vdW  Elec       q    Type
REMARK                         _______ _______ _______ _____ _____    ______ ____
ROOT
ATOM      1  O   UNL     1      -3.515   1.889  23.634  0.00  0.00    -0.219 OA
ATOM      2  C   UNL     1      -3.969   1.960  24.320  0.00  0.00    +0.199 C 
ATOM      3  C   UNL     1      -4.087   2.651  24.754  0.00  0.00    +0.169 C 
ATOM     13  O   UNL     1      -4.575   2.469  25.394  0.00  0.00    -0.350 OA
ATOM     14  C   UNL     1      -4.758   1.666  25.355  0.00  0.00    +0.162 C 
ATOM     15  C   UNL     1      -4.383   1.351  24.692  0.00  0.00    +0.135 C 
ENDROOT
BRANCH   3   4
ATOM      4  C   UNL     1      -3.773   3.394  24.579  0.00  0.00    +0.148 C 
BRANCH   4   5
ATOM      5  N   UNL     1      -2.974   3.547  24.718  0.00  0.00    -0.199 NA
ATOM      6  C   UNL     1      -2.715   4.323  24.823  0.00  0.00    +0.271 C 
ATOM      7  O   UNL     1      -3.255   4.946  24.789  0.00  0.00    -0.268 OA
BRANCH   6   8
ATOM      8  C   UNL     1      -1.916   4.476  24.962  0.00  0.00    +0.084 A 
ATOM      9  C   UNL     1      -1.524   5.185  24.807  0.00  0.00    +0.012 A 
ATOM     10  C   UNL     1      -0.736   5.094  25.029  0.00  0.00    +0.008 A 
ATOM     11  C   UNL     1      -0.640   4.329  25.322  0.00  0.00    +0.036 A 
ATOM     12  S   UNL     1      -1.369   3.947  25.280  0.00  0.00    -0.082 S 
ENDBRANCH   6   8
ENDBRANCH   4   5
ENDBRANCH   3   4
BRANCH  15  16
ATOM     16  N   UNL     1      -4.417   0.565  24.443  0.00  0.00    -0.209 NA
BRANCH  16  17
ATOM     17  C   UNL     1      -4.486  -0.040  24.999  0.00  0.00    +0.115 C 
BRANCH  17  18
ATOM     18  C   UNL     1      -4.161  -0.783  24.843  0.00  0.00    -0.005 A 
ATOM     19  C   UNL     1      -3.644  -1.129  25.384  0.00  0.00    -0.003 A 
ATOM     20  C   UNL     1      -3.319  -1.871  25.227  0.00  0.00    +0.006 A 
ATOM     21  C   UNL     1      -3.512  -2.267  24.530  0.00  0.00    +0.080 A 
ATOM     22  C   UNL     1      -4.029  -1.921  23.989  0.00  0.00    +0.006 A 
ATOM     23  C   UNL     1      -4.354  -1.178  24.145  0.00  0.00    -0.003 A 
BRANCH  21  24
ATOM     24  C   UNL     1      -3.187  -3.009  24.373  0.00  0.00    +0.388 C 
ATOM     25  O   UNL     1      -2.373  -3.089  24.267  0.00  0.00    -0.241 OA
ATOM     26  O   UNL     1      -3.677  -3.671  24.323  0.00  0.00    -0.241 OA
ENDBRANCH  21  24
ENDBRANCH  17  18
ENDBRANCH  16  17
ENDBRANCH  15  16
TORSDOF 7
ENDMDL
MODEL 4
REMARK VINA RESULT:      -8.7      2.402      6.345
REMARK  Name = 
REMARK  7 active torsions:
REMARK  status: ('A' for Active; 'I' for Inactive)
REMARK    1  A    between atoms: C_3  and  C_4
REMARK    2  A    between atoms: C_4  and  N_5
REMARK    3  A    between atoms: C_6  and  C_8
REMARK    4  A    between atoms: C_15  and  N_16
REMARK    5  A    between atoms: N_16  and  C_17
REMARK    6  A    between atoms: C_17  and  C_18
REMARK    7  A    between atoms: C_21  and  C_24
REMARK                            x       y       z     vdW  Elec       q    Type
REMARK                         _______ _______ _______ _____ _____    ______ ____
ROOT
ATOM      1  O   UNL     1      -3.483   1.240  23.593  0.00  0.00    -0.219 OA
ATOM      2  C   UNL     1      -3.939   1.199  24.279  0.00  0.00    +0.199 C 
ATOM      3  C   UNL     1      -4.341   0.534  24.556  0.00  0.00    +0.169 C 
ATOM     13  O   UNL     1      -4.723   0.740  25.257  0.00  0.00    -0.350 OA
ATOM     14  C   UNL     1      -4.558   1.533  25.413  0.00  0.00    +0.162 C 
ATOM     15  C   UNL     1      -4.074   1.817  24.809  0.00  0.00    +0.135 C 
ENDROOT
BRANCH   3   4
ATOM      4  C   UNL     1      -4.357  -0.208  24.195  0.00  0.00    +0.148 C 
BRANCH   4   5
ATOM      5  N   UNL     1      -3.863  -0.810  24.467  0.00  0.00    -0.199 NA
ATOM      6  C   UNL     1      -3.902  -1.562  24.127  0.00  0.00    +0.271 C 
ATOM      7  O   UNL     1      -4.436  -1.710  23.516  0.00  0.00    -0.268 OA
BRANCH   6   8
ATOM      8  C   UNL     1      -3.409  -2.164  24.400  0.00  0.00    +0.084 A 
ATOM      9  C   UNL     1      -3.642  -2.821  24.839  0.00  0.00    +0.012 A 
ATOM     10  C   UNL     1      -2.973  -3.278  24.991  0.00  0.00    +0.008 A 
ATOM     11  C   UNL     1      -2.324  -2.902  24.646  0.00  0.00    +0.036 A 
ATOM     12  S   UNL     1      -2.593  -2.214  24.280  0.00  0.00    -0.082 S 
ENDBRANCH   6   8
ENDBRANCH   4   5
ENDBRANCH   3   4
BRANCH  15  16
ATOM     16  N   UNL     1      -3.776   2.583  24.746  0.00  0.00    -0.209 NA
BRANCH  16  17
ATOM     17  C   UNL     1      -3.448   2.954  25.406  0.00  0.00    +0.115 C 
BRANCH  17  18
ATOM     18  C   UNL     1      -2.867   3.532  25.309  0.00  0.00    -0.005 A 
ATOM     19  C   UNL     1      -2.090   3.379  25.541  0.00  0.00    -0.003 A 
ATOM     20  C   UNL     1      -1.509   3.956  25.443  0.00  0.00    +0.006 A 
ATOM     21  C   UNL     1      -1.705   4.687  25.114  0.00  0.00    +0.080 A 
ATOM     22  C   UNL     1      -2.482   4.840  24.882  0.00  0.00    +0.006 A 
ATOM     23  C   UNL     1      -3.063   4.262  24.979  0.00  0.00    -0.003 A 
BRANCH  21  24
ATOM     24  C   UNL     1      -1.124   5.264  25.016  0.00  0.00    +0.388 C 
ATOM     25  O   UNL     1      -1.323   6.063  25.070  0.00  0.00    -0.241 OA
ATOM     26  O   UNL     1      -0.344   5.043  24.865  0.00  0.00    -0.241 OA
ENDBRANCH  21  24
ENDBRANCH  17  18
ENDBRANCH  16  17
ENDBRANCH  15  16
TORSDOF 7
ENDMDL
MODEL 5
REMARK VINA RESULT:      -8.6      3.352      4.923
REMARK  Name = 
REMARK  7 active torsions:
REMARK  status: ('A' for Active; 'I' for Inactive)
REMARK    1  A    between atoms: C_3  and  C_4
REMARK    2  A    between atoms: C_4  and  N_5
REMARK    3  A    between atoms: C_6  and  C_8
REMARK    4  A    between atoms: C_15  and  N_16
REMARK    5  A    between atoms: N_16  and  C_17
REMARK    6  A    between atoms: C_17  and  C_18
REMARK    7  A    between atoms: C_21  and  C_24
REMARK                            x       y       z     vdW  Elec       q    Type
REMARK                         _______ _______ _______ _____ _____    ______ ____
ROOT
ATOM      1  O   UNL     1      -1.544   0.328  24.231  0.00  0.00    -0.219 OA
ATOM      2  C   UNL     1      -1.144   1.043  24.142  0.00  0.00    +0.199 C 
ATOM      3  C   UNL     1      -0.373   1.137  23.864  0.00  0.00    +0.169 C 
ATOM     13  O   UNL     1      -0.197   1.942  23.865  0.00  0.00    -0.350 OA
ATOM     14  C   UNL     1      -0.860   2.347  24.144  0.00  0.00    +0.162 C 
ATOM     15  C   UNL     1      -1.445   1.792  24.315  0.00  0.00    +0.135 C 
ENDROOT
BRANCH   3   4
ATOM      4  C   UNL     1       0.134   0.530  23.626  0.00  0.00    +0.148 C 
BRANCH   4   5
ATOM      5  N   UNL     1       0.902   0.706  23.385  0.00  0.00    -0.199 NA
ATOM      6  C   UNL     1       1.381   0.112  23.068  0.00  0.00    +0.271 C 
ATOM      7  O   UNL     1       1.090  -0.656  22.993  0.00  0.00    -0.268 OA
BRANCH   6   8
ATOM      8  C   UNL     1       2.150   0.288  22.826  0.00  0.00    +0.084 A 
ATOM      9  C   UNL     1       2.665   0.818  23.193  0.00  0.00    +0.012 A 
ATOM     10  C   UNL     1       3.372   0.821  22.769  0.00  0.00    +0.008 A 
ATOM     11  C   UNL     1       3.294   0.294  22.140  0.00  0.00    +0.036 A 
ATOM     12  S   UNL     1       2.540  -0.036  22.175  0.00  0.00    -0.082 S 
ENDBRANCH   6   8
ENDBRANCH   4   5
ENDBRANCH   3   4
BRANCH  15  16
ATOM     16  N   UNL     1      -2.198   1.956  24.608  0.00  0.00    -0.209 NA
BRANCH  16  17
ATOM     17  C   UNL     1      -2.566   2.671  24.422  0.00  0.00    +0.115 C 
BRANCH  17  18
ATOM     18  C   UNL     1      -3.298   2.857  24.755  0.00  0.00    -0.005 A 
ATOM     19  C   UNL     1      -3.990   2.550  24.427  0.00  0.00    -0.003 A 
ATOM     20  C   UNL     1      -4.722   2.736  24.760  0.00  0.00    +0.006 A 
ATOM     21  C   UNL     1      -4.761   3.229  25.421  0.00  0.00    +0.080 A 
ATOM     22  C   UNL     1      -4.069   3.535  25.748  0.00  0.00    +0.006 A 
ATOM     23  C   UNL     1      -3.337   3.349  25.416  0.00  0.00    -0.003 A 
BRANCH  21  24
ATOM     24  C   UNL     1      -5.493   3.415  25.754  0.00  0.00    +0.388 C 
ATOM     25  O   UNL     1      -5.880   2.865  26.232  0.00  0.00    -0.241 OA
ATOM     26  O   UNL     1      -5.837   4.150  25.607  0.00  0.00    -0.241 OA
ENDBRANCH  21  24
ENDBRANCH  17  18
ENDBRANCH  16  17
ENDBRANCH  15  16
TORSDOF 7
ENDMDL
MODEL 6
REMARK VINA RESULT:      -8.4      3.394      4.415
REMARK  Name = 
REMARK  7 active torsions:
REMARK  status: ('A' for Active; 'I' for Inactive)
REMARK    1  A    between atoms: C_3  and  C_4
REMARK    2  A    between atoms: C_4  and  N_5
REMARK    3  A    between atoms: C_6  and  C_8
REMARK    4  A    between atoms: C_15  and  N_16
REMARK    5  A    between atoms: N_16  and  C_17
REMARK    6  A    between atoms: C_17  and  C_18
REMARK    7  A    between atoms: C_21  and  C_24
REMARK                            x       y       z     vdW  Elec       q    Type
REMARK                         _______ _______ _______ _____ _____    ______ ____
ROOT
ATOM      1  O   UNL     1      -0.523   1.129  22.887  0.00  0.00    -0.219 OA
ATOM      2  C   UNL     1      -0.366   0.550  23.453  0.00  0.00    +0.199 C 
ATOM      3  C   UNL     1       0.273   0.029  23.449  0.00  0.00    +0.169 C 
ATOM     13  O   UNL     1       0.213  -0.452  24.115  0.00  0.00    -0.350 OA
ATOM     14  C   UNL     1      -0.463  -0.228  24.532  0.00  0.00    +0.162 C 
ATOM     15  C   UNL     1      -0.821   0.391  24.123  0.00  0.00    +0.135 C 
ENDROOT
BRANCH   3   4
ATOM      4  C   UNL     1       0.867  -0.005  22.877  0.00  0.00    +0.148 C 
BRANCH   4   5
ATOM      5  N   UNL     1       1.648   0.163  23.084  0.00  0.00    -0.199 NA
ATOM      6  C   UNL     1       2.249   0.087  22.523  0.00  0.00    +0.271 C 
ATOM      7  O   UNL     1       2.068  -0.157  21.756  0.00  0.00    -0.268 OA
BRANCH   6   8
ATOM      8  C   UNL     1       3.030   0.255  22.729  0.00  0.00    +0.084 A 
ATOM      9  C   UNL     1       3.400   0.990  22.669  0.00  0.00    +0.012 A 
ATOM     10  C   UNL     1       4.176   0.907  22.935  0.00  0.00    +0.008 A 
ATOM     11  C   UNL     1       4.286   0.120  23.159  0.00  0.00    +0.036 A 
ATOM     12  S   UNL     1       3.578  -0.282  23.033  0.00  0.00    -0.082 S 
ENDBRANCH   6   8
ENDBRANCH   4   5
ENDBRANCH   3   4
BRANCH  15  16
ATOM     16  N   UNL     1      -1.512   0.783  24.344  0.00  0.00    -0.209 NA
BRANCH  16  17
ATOM     17  C   UNL     1      -2.099   0.380  24.760  0.00  0.00    +0.115 C 
BRANCH  17  18
ATOM     18  C   UNL     1      -2.856   0.704  24.825  0.00  0.00    -0.005 A 
ATOM     19  C   UNL     1      -3.520   0.220  24.755  0.00  0.00    -0.003 A 
ATOM     20  C   UNL     1      -4.276   0.544  24.820  0.00  0.00    +0.006 A 
ATOM     21  C   UNL     1      -4.367   1.353  24.955  0.00  0.00    +0.080 A 
ATOM     22  C   UNL     1      -3.703   1.837  25.024  0.00  0.00    +0.006 A 
ATOM     23  C   UNL     1      -2.947   1.513  24.959  0.00  0.00    -0.003 A 
BRANCH  21  24
ATOM     24  C   UNL     1      -5.123   1.677  25.020  0.00  0.00    +0.388 C 
ATOM     25  O   UNL     1      -5.403   2.190  24.437  0.00  0.00    -0.241 OA
ATOM     26  O   UNL     1      -5.598   1.488  25.667  0.00  0.00    -0.241 OA
ENDBRANCH  21  24
ENDBRANCH  17  18
ENDBRANCH  16  17
ENDBRANCH  15  16
TORSDOF 7
ENDMDL
MODEL 7
REMARK VINA RESULT:      -8.1      3.226      4.711
REMARK  Name = 
REMARK  7 active torsions:
REMARK  status: ('A' for Active; 'I' for Inactive)
REMARK    1  A    between atoms: C_3  and  C_4
REMARK    2  A    between atoms: C_4  and  N_5
REMARK    3  A    between atoms: C_6  and  C_8
REMARK    4  A    between atoms: C_15  and  N_16
REMARK    5  A    between atoms: N_16  and  C_17
REMARK    6  A    between atoms: C_17  and  C_18
REMARK    7  A    between atoms: C_21  and  C_24
REMARK                            x       y       z     vdW  Elec       q    Type
REMARK                         _______ _______ _______ _____ _____    ______ ____
ROOT
ATOM      1  O   UNL     1      -2.038   1.992  22.771  0.00  0.00    -0.219 OA
ATOM      2  C   UNL     1      -1.965   1.763  23.560  0.00  0.00    +0.199 C 
ATOM      3  C   UNL     1      -2.509   1.912  24.162  0.00  0.00    +0.169 C 
ATOM     13  O   UNL     1      -2.215   1.585  24.859  0.00  0.00    -0.350 OA
ATOM     14  C   UNL     1      -1.488   1.234  24.689  0.00  0.00    +0.162 C 
ATOM     15  C   UNL     1      -1.333   1.344  23.887  0.00  0.00    +0.135 C 
ENDROOT
BRANCH   3   4
ATOM      4  C   UNL     1      -3.224   2.316  24.079  0.00  0.00    +0.148 C 
BRANCH   4   5
ATOM      5  N   UNL     1      -3.855   2.146  24.582  0.00  0.00    -0.199 NA
ATOM      6  C   UNL     1      -4.545   2.597  24.546  0.00  0.00    +0.271 C 
ATOM      7  O   UNL     1      -4.603   3.219  24.007  0.00  0.00    -0.268 OA
BRANCH   6   8
ATOM      8  C   UNL     1      -5.176   2.427  25.050  0.00  0.00    +0.084 A 
ATOM      9  C   UNL     1      -5.678   1.775  24.995  0.00  0.00    +0.012 A 
ATOM     10  C   UNL     1      -6.228   1.824  25.607  0.00  0.00    +0.008 A 
ATOM     11  C   UNL     1      -6.066   2.507  26.041  0.00  0.00    +0.036 A 
ATOM     12  S   UNL     1      -5.416   2.879  25.697  0.00  0.00    -0.082 S 
ENDBRANCH   6   8
ENDBRANCH   4   5
ENDBRANCH   3   4
BRANCH  15  16
ATOM     16  N   UNL     1      -0.665   1.081  23.482  0.00  0.00    -0.209 NA
BRANCH  16  17
ATOM     17  C   UNL     1      -0.071   0.675  23.886  0.00  0.00    +0.115 C 
BRANCH  17  18
ATOM     18  C   UNL     1       0.655   0.532  23.518  0.00  0.00    -0.005 A 
ATOM     19  C   UNL     1       0.752  -0.136  23.044  0.00  0.00    -0.003 A 
ATOM     20  C   UNL     1       1.477  -0.279  22.677  0.00  0.00    +0.006 A 
ATOM     21  C   UNL     1       2.104   0.246  22.784  0.00  0.00    +0.080 A 
ATOM     22  C   UNL     1       2.007   0.914  23.258  0.00  0.00    +0.006 A 
ATOM     23  C   UNL     1       1.281   1.057  23.625  0.00  0.00    -0.003 A 
BRANCH  21  24
ATOM     24  C   UNL     1       2.829   0.103  22.417  0.00  0.00    +0.388 C 
ATOM     25  O   UNL     1       3.512   0.015  22.872  0.00  0.00    -0.241 OA
ATOM     26  O   UNL     1       2.871   0.048  21.595  0.00  0.00    -0.241 OA
ENDBRANCH  21  24
ENDBRANCH  17  18
ENDBRANCH  16  17
ENDBRANCH  15  16
TORSDOF 7
ENDMDL
MODEL 8
REMARK VINA RESULT:      -8.1      3.698      6.001
REMARK  Name = 
REMARK  7 active torsions:
REMARK  status: ('A' for Active; 'I' for Inactive)
REMARK    1  A    between atoms: C_3  and  C_4
REMARK    2  A    between atoms: C_4  and  N_5
REMARK    3  A    between atoms: C_6  and  C_8
REMARK    4  A    between atoms: C_15  and  N_16
REMARK    5  A    between atoms: N_16  and  C_17
REMARK    6  A    between atoms: C_17  and  C_18
REMARK    7  A    between atoms: C_21  and  C_24
REMARK                            x       y       z     vdW  Elec       q    Type
REMARK                         _______ _______ _______ _____ _____    ______ ____
ROOT
ATOM      1  O   UNL     1       0.466   1.559  24.208  0.00  0.00    -0.219 OA
ATOM      2  C   UNL     1       0.327   0.851  23.807  0.00  0.00    +0.199 C 
ATOM      3  C   UNL     1      -0.386   0.436  23.789  0.00  0.00    +0.169 C 
ATOM     13  O   UNL     1      -0.277  -0.237  23.325  0.00  0.00    -0.350 OA
ATOM     14  C   UNL     1       0.503  -0.237  23.055  0.00  0.00    +0.162 C 
ATOM     15  C   UNL     1       0.876   0.435  23.353  0.00  0.00    +0.135 C 
ENDROOT
BRANCH   3   4
ATOM      4  C   UNL     1      -1.085   0.655  24.170  0.00  0.00    +0.148 C 
BRANCH   4   5
ATOM      5  N   UNL     1      -1.701   0.112  24.243  0.00  0.00    -0.199 NA
ATOM      6  C   UNL     1      -2.418   0.346  24.580  0.00  0.00    +0.271 C 
ATOM      7  O   UNL     1      -2.517   1.122  24.842  0.00  0.00    -0.268 OA
BRANCH   6   8
ATOM      8  C   UNL     1      -3.035  -0.197  24.654  0.00  0.00    +0.084 A 
ATOM      9  C   UNL     1      -3.682  -0.268  24.147  0.00  0.00    +0.012 A 
ATOM     10  C   UNL     1      -4.160  -0.878  24.427  0.00  0.00    +0.008 A 
ATOM     11  C   UNL     1      -3.809  -1.185  25.108  0.00  0.00    +0.036 A 
ATOM     12  S   UNL     1      -3.114  -0.764  25.248  0.00  0.00    -0.082 S 
ENDBRANCH   6   8
ENDBRANCH   4   5
ENDBRANCH   3   4
BRANCH  15  16
ATOM     16  N   UNL     1       1.660   0.653  23.221  0.00  0.00    -0.209 NA
BRANCH  16  17
ATOM     17  C   UNL     1       2.163   0.150  22.803  0.00  0.00    +0.115 C 
BRANCH  17  18
ATOM     18  C   UNL     1       2.978   0.179  22.934  0.00  0.00    -0.005 A 
ATOM     19  C   UNL     1       3.408   0.846  22.708  0.00  0.00    -0.003 A 
ATOM     20  C   UNL     1       4.223   0.875  22.838  0.00  0.00    +0.006 A 
ATOM     21  C   UNL     1       4.606   0.237  23.195  0.00  0.00    +0.080 A 
ATOM     22  C   UNL     1       4.175  -0.429  23.421  0.00  0.00    +0.006 A 
ATOM     23  C   UNL     1       3.361  -0.458  23.291  0.00  0.00    -0.003 A 
BRANCH  21  24
ATOM     24  C   UNL     1       5.420   0.266  23.326  0.00  0.00    +0.388 C 
ATOM     25  O   UNL     1       5.726   0.751  23.919  0.00  0.00    -0.241 OA
ATOM     26  O   UNL     1       5.928  -0.190  22.863  0.00  0.00    -0.241 OA
ENDBRANCH  21  24
ENDBRANCH  17  18
ENDBRANCH  16  17
ENDBRANCH  15  16
TORSDOF 7
ENDMDL
MODEL 9
REMARK VINA RESULT:      -6.1     18.996     19.672
REMARK  Name = 
REMARK  7 active torsions:
REMARK  status: ('A' for Active; 'I' for Inactive)
REMARK    1  A    between atoms: C_3  and  C_4
REMARK    2  A    between atoms: C_4  and  N_5
REMARK    3  A    between atoms: C_6  and  C_8
REMARK    4  A    between atoms: C_15  and  N_16
REMARK    5  A    between atoms: N_16  and  C_17
REMARK    6  A    between atoms: C_17  and  C_18
REMARK    7  A    between atoms: C_21  and  C_24
REMARK                            x       y       z     vdW  Elec       q    Type
REMARK                         _______ _______ _______ _____ _____    ______ ____
ROOT
ATOM      1  O   UNL     1      16.998  -5.659  23.520  0.00  0.00    -0.219 OA
ATOM      2  C   UNL     1      17.130  -5.429  24.301  0.00  0.00    +0.199 C 
ATOM      3  C   UNL     1      17.253  -4.657  24.565  0.00  0.00    +0.169 C 
ATOM     13  O   UNL     1      17.361  -4.681  25.382  0.00  0.00    -0.350 OA
ATOM     14  C   UNL     1      17.306  -5.468  25.623  0.00  0.00    +0.162 C 
ATOM     15  C   UNL     1      17.163  -5.931  24.956  0.00  0.00    +0.135 C 
ENDROOT
BRANCH   3   4
ATOM      4  C   UNL     1      17.264  -3.980  24.094  0.00  0.00    +0.148 C 
BRANCH   4   5
ATOM      5  N   UNL     1      17.164  -3.237  24.437  0.00  0.00    -0.199 NA
ATOM      6  C   UNL     1      17.160  -2.560  23.964  0.00  0.00    +0.271 C 
ATOM      7  O   UNL     1      17.257  -2.628  23.148  0.00  0.00    -0.268 OA
BRANCH   6   8
ATOM      8  C   UNL     1      17.060  -1.817  24.308  0.00  0.00    +0.084 A 
ATOM      9  C   UNL     1      16.641  -1.655  24.999  0.00  0.00    +0.012 A 
ATOM     10  C   UNL     1      16.683  -0.843  25.139  0.00  0.00    +0.008 A 
ATOM     11  C   UNL     1      17.128  -0.503  24.533  0.00  0.00    +0.036 A 
ATOM     12  S   UNL     1      17.361  -1.104  24.020  0.00  0.00    -0.082 S 
ENDBRANCH   6   8
ENDBRANCH   4   5
ENDBRANCH   3   4
BRANCH  15  16
ATOM     16  N   UNL     1      17.070  -6.750  24.944  0.00  0.00    -0.209 NA
BRANCH  16  17
ATOM     17  C   UNL     1      16.856  -7.150  25.633  0.00  0.00    +0.115 C 
BRANCH  17  18
ATOM     18  C   UNL     1      16.617  -7.939  25.594  0.00  0.00    -0.005 A 
ATOM     19  C   UNL     1      17.086  -8.494  25.202  0.00  0.00    -0.003 A 
ATOM     20  C   UNL     1      16.847  -9.283  25.164  0.00  0.00    +0.006 A 
ATOM     21  C   UNL     1      16.139  -9.516  25.517  0.00  0.00    +0.080 A 
ATOM     22  C   UNL     1      15.670  -8.962  25.908  0.00  0.00    +0.006 A 
ATOM     23  C   UNL     1      15.909  -8.173  25.947  0.00  0.00    -0.003 A 
BRANCH  21  24
ATOM     24  C   UNL     1      15.900 -10.305  25.478  0.00  0.00    +0.388 C 
ATOM     25  O   UNL     1      15.783 -10.735  26.172  0.00  0.00    -0.241 OA
ATOM     26  O   UNL     1      15.778 -10.664  24.745  0.00  0.00    -0.241 OA
ENDBRANCH  21  24
ENDBRANCH  17  18
ENDBRANCH  16  17
ENDBRANCH  15  16
TORSDOF 7
ENDMDL
MODEL 10
REMARK VINA RESULT:      -5.8     15.760     17.433
REMARK  Name = 
REMARK  7 active torsions:
REMARK  status: ('A' for Active; 'I' for Inactive)
REMARK    1  A    between atoms: C_3  and  C_4
REMARK    2  A    between atoms: C_4  and  N_5
REMARK    3  A    between atoms: C_6  and  C_8
REMARK    4  A    between atoms: C_15  and  N_16
REMARK    5  A    between atoms: N_16  and  C_17
REMARK    6  A    between atoms: C_17  and  C_18
REMARK    7  A    between atoms: C_21  and  C_24
REMARK                            x       y       z     vdW  Elec       q    Type
REMARK                         _______ _______ _______ _____ _____    ______ ____
ROOT
ATOM      1  O   UNL     1      11.011  -8.623  31.597  0.00  0.00    -0.219 OA
ATOM      2  C   UNL     1      10.838  -7.932  32.013  0.00  0.00    +0.199 C 
ATOM      3  C   UNL     1      10.157  -7.791  32.457  0.00  0.00    +0.169 C 
ATOM     13  O   UNL     1      10.213  -7.033  32.776  0.00  0.00    -0.350 OA
ATOM     14  C   UNL     1      10.929  -6.705  32.530  0.00  0.00    +0.162 C 
ATOM     15  C   UNL     1      11.315  -7.260  32.059  0.00  0.00    +0.135 C 
ENDROOT
BRANCH   3   4
ATOM      4  C   UNL     1       9.529  -8.316  32.563  0.00  0.00    +0.148 C 
BRANCH   4   5
ATOM      5  N   UNL     1       8.760  -8.083  32.377  0.00  0.00    -0.199 NA
ATOM      6  C   UNL     1       8.127  -8.589  32.531  0.00  0.00    +0.271 C 
ATOM      7  O   UNL     1       8.263  -9.328  32.872  0.00  0.00    -0.268 OA
BRANCH   6   8
ATOM      8  C   UNL     1       7.358  -8.356  32.345  0.00  0.00    +0.084 A 
ATOM      9  C   UNL     1       7.007  -8.390  31.599  0.00  0.00    +0.012 A 
ATOM     10  C   UNL     1       6.237  -8.103  31.666  0.00  0.00    +0.008 A 
ATOM     11  C   UNL     1       6.111  -7.892  32.453  0.00  0.00    +0.036 A 
ATOM     12  S   UNL     1       6.803  -8.048  32.873  0.00  0.00    -0.082 S 
ENDBRANCH   6   8
ENDBRANCH   4   5
ENDBRANCH   3   4
BRANCH  15  16
ATOM     16  N   UNL     1      12.049  -7.162  31.696  0.00  0.00    -0.209 NA
BRANCH  16  17
ATOM     17  C   UNL     1      12.279  -6.418  31.424  0.00  0.00    +0.115 C 
BRANCH  17  18
ATOM     18  C   UNL     1      13.010  -6.321  31.055  0.00  0.00    -0.005 A 
ATOM     19  C   UNL     1      13.119  -6.582  30.281  0.00  0.00    -0.003 A 
ATOM     20  C   UNL     1      13.851  -6.485  29.911  0.00  0.00    +0.006 A 
ATOM     21  C   UNL     1      14.473  -6.126  30.317  0.00  0.00    +0.080 A 
ATOM     22  C   UNL     1      14.364  -5.865  31.092  0.00  0.00    +0.006 A 
ATOM     23  C   UNL     1      13.632  -5.962  31.461  0.00  0.00    -0.003 A 
BRANCH  21  24
ATOM     24  C   UNL     1      15.205  -6.029  29.948  0.00  0.00    +0.388 C 
ATOM     25  O   UNL     1      15.566  -6.669  29.573  0.00  0.00    -0.241 OA
ATOM     26  O   UNL     1      15.575  -5.292  29.955  0.00  0.00    -0.241 OA
ENDBRANCH  21  24
ENDBRANCH  17  18
ENDBRANCH  16  17
ENDBRANCH  15  16
TORSDOF 7
ENDMDL
