MODEL 1
REMARK VINA RESULT:      -9.6      0.000      0.000
REMARK  Name = 
REMARK  8 active torsions:
REMARK  status: ('A' for Active; 'I' for Inactive)
REMARK    1  A    between atoms: O_2  and  C_3
REMARK    2  A    between atoms: C_3  and  C_4
REMARK    3  A    between atoms: C_4  and  N_5
REMARK    4  A    between atoms: N_5  and  C_6
REMARK    5  A    between atoms: C_8  and  C_12
REMARK    6  A    between atoms: C_15  and  C_17
REMARK    7  A    between atoms: N_21  and  C_22
REMARK    8  A    between atoms: C_22  and  C_23
REMARK                            x       y       z     vdW  Elec       q    Type
REMARK                         _______ _______ _______ _____ _____    ______ ____
ROOT
ATOM     12  C   UNL     1      -0.810   2.715  25.309  0.00  0.00    +0.203 A 
ATOM     13  N   UNL     1      -0.292   2.427  25.883  0.00  0.00    -0.056 NA
ATOM     14  O   UNL     1       0.036   1.724  25.601  0.00  0.00    -0.336 OA
ATOM     15  C   UNL     1      -0.278   1.579  24.852  0.00  0.00    +0.251 A 
ATOM     16  N   UNL     1      -0.801   2.191  24.672  0.00  0.00    -0.190 NA
ENDROOT
BRANCH  12   8
ATOM      6  C   UNL     1      -2.476   4.067  25.709  0.00  0.00    +0.148 A 
ATOM      7  C   UNL     1      -2.029   3.376  25.655  0.00  0.00    +0.039 A 
ATOM      8  C   UNL     1      -1.258   3.406  25.363  0.00  0.00    +0.043 A 
ATOM      9  C   UNL     1      -0.935   4.126  25.124  0.00  0.00    +0.024 A 
ATOM     10  C   UNL     1      -1.382   4.817  25.178  0.00  0.00    +0.100 A 
ATOM     11  N   UNL     1      -2.153   4.788  25.470  0.00  0.00    -0.228 NA
BRANCH   6   5
ATOM      5  N   UNL     1      -3.247   4.038  26.002  0.00  0.00    -0.218 NA
BRANCH   5   4
ATOM      4  C   UNL     1      -3.860   3.762  25.524  0.00  0.00    +0.146 C 
BRANCH   4   3
ATOM      3  C   UNL     1      -4.604   3.618  25.850  0.00  0.00    +0.166 C 
BRANCH   3   2
ATOM      1  C   UNL     1      -5.700   2.747  25.565  0.00  0.00    +0.174 C 
ATOM      2  O   UNL     1      -5.232   3.395  25.363  0.00  0.00    -0.349 OA
ENDBRANCH   3   2
ENDBRANCH   4   3
ENDBRANCH   5   4
ENDBRANCH   6   5
ENDBRANCH  12   8
BRANCH  15  17
ATOM     17  C   UNL     1      -0.101   0.935  24.368  0.00  0.00    +0.138 C 
ATOM     18  C   UNL     1       0.407   0.942  23.718  0.00  0.00    +0.027 C 
ATOM     19  C   UNL     1       0.421   0.181  23.397  0.00  0.00    +0.019 C 
ATOM     20  C   UNL     1      -0.078  -0.295  23.849  0.00  0.00    +0.073 C 
ATOM     21  N   UNL     1      -0.401   0.171  24.449  0.00  0.00    -0.263 NA
BRANCH  21  22
ATOM     22  C   UNL     1      -0.931  -0.084  25.028  0.00  0.00    +0.101 C 
BRANCH  22  23
ATOM     23  C   UNL     1      -1.347  -0.788  24.925  0.00  0.00    +0.013 A 
ATOM     24  C   UNL     1      -2.133  -0.769  24.672  0.00  0.00    +0.000 A 
ATOM     25  C   UNL     1      -2.550  -1.473  24.569  0.00  0.00    +0.020 A 
ATOM     26  C   UNL     1      -2.182  -2.196  24.719  0.00  0.00    +0.099 A 
ATOM     27  N   UNL     1      -1.397  -2.216  24.972  0.00  0.00    -0.243 NA
ATOM     28  C   UNL     1      -0.980  -1.511  25.075  0.00  0.00    +0.096 A 
ENDBRANCH  22  23
ENDBRANCH  21  22
ENDBRANCH  15  17
TORSDOF 8
ENDMDL
MODEL 2
REMARK VINA RESULT:      -9.5      1.223      4.713
REMARK  Name = 
REMARK  8 active torsions:
REMARK  status: ('A' for Active; 'I' for Inactive)
REMARK    1  A    between atoms: O_2  and  C_3
REMARK    2  A    between atoms: C_3  and  C_4
REMARK    3  A    between atoms: C_4  and  N_5
REMARK    4  A    between atoms: N_5  and  C_6
REMARK    5  A    between atoms: C_8  and  C_12
REMARK    6  A    between atoms: C_15  and  C_17
REMARK    7  A    between atoms: N_21  and  C_22
REMARK    8  A    between atoms: C_22  and  C_23
REMARK                            x       y       z     vdW  Elec       q    Type
REMARK                         _______ _______ _______ _____ _____    ______ ____
ROOT
ATOM     12  C   UNL     1      -0.454   1.572  25.016  0.00  0.00    +0.203 A 
ATOM     13  N   UNL     1      -0.189   1.768  25.773  0.00  0.00    -0.056 NA
ATOM     14  O   UNL     1      -0.460   2.528  25.948  0.00  0.00    -0.336 OA
ATOM     15  C   UNL     1      -0.891   2.801  25.300  0.00  0.00    +0.251 A 
ATOM     16  N   UNL     1      -0.887   2.210  24.724  0.00  0.00    -0.190 NA
ENDROOT
BRANCH  12   8
ATOM      6  C   UNL     1      -0.522  -0.545  24.489  0.00  0.00    +0.148 A 
ATOM      7  C   UNL     1      -0.665   0.165  24.884  0.00  0.00    +0.039 A 
ATOM      8  C   UNL     1      -0.310   0.862  24.621  0.00  0.00    +0.043 A 
ATOM      9  C   UNL     1       0.188   0.849  23.964  0.00  0.00    +0.024 A 
ATOM     10  C   UNL     1       0.332   0.139  23.569  0.00  0.00    +0.100 A 
ATOM     11  N   UNL     1      -0.023  -0.558  23.831  0.00  0.00    -0.228 NA
BRANCH   6   5
ATOM      5  N   UNL     1      -0.876  -1.243  24.751  0.00  0.00    -0.218 NA
BRANCH   5   4
ATOM      4  C   UNL     1      -1.583  -1.499  24.411  0.00  0.00    +0.146 C 
BRANCH   4   3
ATOM      3  C   UNL     1      -1.991  -2.136  24.741  0.00  0.00    +0.166 C 
BRANCH   3   2
ATOM      1  C   UNL     1      -3.321  -2.658  24.726  0.00  0.00    +0.174 C 
ATOM      2  O   UNL     1      -2.619  -2.480  24.331  0.00  0.00    -0.349 OA
ENDBRANCH   3   2
ENDBRANCH   4   3
ENDBRANCH   5   4
ENDBRANCH   6   5
ENDBRANCH  12   8
BRANCH  15  17
ATOM     17  C   UNL     1      -1.261   3.535  25.238  0.00  0.00    +0.138 C 
ATOM     18  C   UNL     1      -0.887   4.255  25.082  0.00  0.00    +0.027 C 
ATOM     19  C   UNL     1      -1.465   4.844  25.069  0.00  0.00    +0.019 C 
ATOM     20  C   UNL     1      -2.195   4.489  25.218  0.00  0.00    +0.073 C 
ATOM     21  N   UNL     1      -2.069   3.680  25.322  0.00  0.00    -0.263 NA
BRANCH  21  22
ATOM     22  C   UNL     1      -2.648   3.116  25.482  0.00  0.00    +0.101 C 
BRANCH  22  23
ATOM     23  C   UNL     1      -3.446   3.309  25.399  0.00  0.00    +0.013 A 
ATOM     24  C   UNL     1      -3.839   3.145  24.692  0.00  0.00    +0.000 A 
ATOM     25  C   UNL     1      -4.636   3.338  24.609  0.00  0.00    +0.020 A 
ATOM     26  C   UNL     1      -5.041   3.695  25.232  0.00  0.00    +0.099 A 
ATOM     27  N   UNL     1      -4.650   3.859  25.939  0.00  0.00    -0.243 NA
ATOM     28  C   UNL     1      -3.851   3.666  26.022  0.00  0.00    +0.096 A 
ENDBRANCH  22  23
ENDBRANCH  21  22
ENDBRANCH  15  17
TORSDOF 8
ENDMDL
MODEL 3
REMARK VINA RESULT:      -9.4      1.600      3.937
REMARK  Name = 
REMARK  8 active torsions:
REMARK  status: ('A' for Active; 'I' for Inactive)
REMARK    1  A    between atoms: O_2  and  C_3
REMARK    2  A    between atoms: C_3  and  C_4
REMARK    3  A    between atoms: C_4  and  N_5
REMARK    4  A    between atoms: N_5  and  C_6
REMARK    5  A    between atoms: C_8  and  C_12
REMARK    6  A    between atoms: C_15  and  C_17
REMARK    7  A    between atoms: N_21  and  C_22
REMARK    8  A    between atoms: C_22  and  C_23
REMARK                            x       y       z     vdW  Elec       q    Type
REMARK                         _______ _______ _______ _____ _____    ______ ____
ROOT
ATOM     12  C   UNL     1      -3.123   3.358  24.733  0.00  0.00    +0.203 A 
ATOM     13  N   UNL     1      -3.587   3.546  24.077  0.00  0.00    -0.056 NA
ATOM     14  O   UNL     1      -4.264   3.075  24.101  0.00  0.00    -0.336 OA
ATOM     15  C   UNL     1      -4.219   2.597  24.771  0.00  0.00    +0.251 A 
ATOM     16  N   UNL     1      -3.513   2.772  25.162  0.00  0.00    -0.190 NA
ENDROOT
BRANCH  12   8
ATOM      6  C   UNL     1      -0.995   3.564  25.173  0.00  0.00    +0.148 A 
ATOM      7  C   UNL     1      -1.722   3.225  24.980  0.00  0.00    +0.039 A 
ATOM      8  C   UNL     1      -2.396   3.698  24.926  0.00  0.00    +0.043 A 
ATOM      9  C   UNL     1      -2.344   4.509  25.064  0.00  0.00    +0.024 A 
ATOM     10  C   UNL     1      -1.617   4.848  25.257  0.00  0.00    +0.100 A 
ATOM     11  N   UNL     1      -0.942   4.376  25.312  0.00  0.00    -0.228 NA
BRANCH   6   5
ATOM      5  N   UNL     1      -0.320   3.092  25.227  0.00  0.00    -0.218 NA
BRANCH   5   4
ATOM      4  C   UNL     1      -0.050   2.681  24.565  0.00  0.00    +0.146 C 
BRANCH   4   3
ATOM      3  C   UNL     1       0.444   2.026  24.661  0.00  0.00    +0.166 C 
BRANCH   3   2
ATOM      1  C   UNL     1       1.013   1.074  23.760  0.00  0.00    +0.174 C 
ATOM      2  O   UNL     1       0.993   1.836  24.076  0.00  0.00    -0.349 OA
ENDBRANCH   3   2
ENDBRANCH   4   3
ENDBRANCH   5   4
ENDBRANCH   6   5
ENDBRANCH  12   8
BRANCH  15  17
ATOM     17  C   UNL     1      -4.780   2.041  25.010  0.00  0.00    +0.138 C 
ATOM     18  C   UNL     1      -5.498   2.206  25.382  0.00  0.00    +0.027 C 
ATOM     19  C   UNL     1      -5.883   1.489  25.520  0.00  0.00    +0.019 C 
ATOM     20  C   UNL     1      -5.404   0.882  25.233  0.00  0.00    +0.073 C 
ATOM     21  N   UNL     1      -4.722   1.223  24.918  0.00  0.00    -0.263 NA
BRANCH  21  22
ATOM     22  C   UNL     1      -4.093   0.817  24.571  0.00  0.00    +0.101 C 
BRANCH  22  23
ATOM     23  C   UNL     1      -4.043  -0.003  24.640  0.00  0.00    +0.013 A 
ATOM     24  C   UNL     1      -4.288  -0.485  24.017  0.00  0.00    +0.000 A 
ATOM     25  C   UNL     1      -4.238  -1.305  24.086  0.00  0.00    +0.020 A 
ATOM     26  C   UNL     1      -3.944  -1.644  24.777  0.00  0.00    +0.099 A 
ATOM     27  N   UNL     1      -3.699  -1.163  25.401  0.00  0.00    -0.243 NA
ATOM     28  C   UNL     1      -3.749  -0.342  25.332  0.00  0.00    +0.096 A 
ENDBRANCH  22  23
ENDBRANCH  21  22
ENDBRANCH  15  17
TORSDOF 8
ENDMDL
MODEL 4
REMARK VINA RESULT:      -9.3      1.848      3.240
REMARK  Name = 
REMARK  8 active torsions:
REMARK  status: ('A' for Active; 'I' for Inactive)
REMARK    1  A    between atoms: O_2  and  C_3
REMARK    2  A    between atoms: C_3  and  C_4
REMARK    3  A    between atoms: C_4  and  N_5
REMARK    4  A    between atoms: N_5  and  C_6
REMARK    5  A    between atoms: C_8  and  C_12
REMARK    6  A    between atoms: C_15  and  C_17
REMARK    7  A    between atoms: N_21  and  C_22
REMARK    8  A    between atoms: C_22  and  C_23
REMARK                            x       y       z     vdW  Elec       q    Type
REMARK                         _______ _______ _______ _____ _____    ______ ____
ROOT
ATOM     12  C   UNL     1      -4.092   1.606  24.488  0.00  0.00    +0.203 A 
ATOM     13  N   UNL     1      -3.943   1.532  23.680  0.00  0.00    -0.056 NA
ATOM     14  O   UNL     1      -3.774   0.740  23.523  0.00  0.00    -0.336 OA
ATOM     15  C   UNL     1      -3.818   0.324  24.234  0.00  0.00    +0.251 A 
ATOM     16  N   UNL     1      -4.015   0.859  24.831  0.00  0.00    -0.190 NA
ENDROOT
BRANCH  12   8
ATOM      6  C   UNL     1      -3.879   3.495  25.560  0.00  0.00    +0.148 A 
ATOM      7  C   UNL     1      -3.686   2.797  25.164  0.00  0.00    +0.039 A 
ATOM      8  C   UNL     1      -4.285   2.304  24.884  0.00  0.00    +0.043 A 
ATOM      9  C   UNL     1      -5.075   2.507  25.000  0.00  0.00    +0.024 A 
ATOM     10  C   UNL     1      -5.268   3.205  25.396  0.00  0.00    +0.100 A 
ATOM     11  N   UNL     1      -4.670   3.699  25.676  0.00  0.00    -0.228 NA
BRANCH   6   5
ATOM      5  N   UNL     1      -3.281   3.990  25.840  0.00  0.00    -0.218 NA
BRANCH   5   4
ATOM      4  C   UNL     1      -2.687   4.250  25.330  0.00  0.00    +0.146 C 
BRANCH   4   3
ATOM      3  C   UNL     1      -2.011   4.612  25.635  0.00  0.00    +0.166 C 
BRANCH   3   2
ATOM      1  C   UNL     1      -0.836   5.028  24.936  0.00  0.00    +0.174 C 
ATOM      2  O   UNL     1      -1.608   5.175  25.187  0.00  0.00    -0.349 OA
ENDBRANCH   3   2
ENDBRANCH   4   3
ENDBRANCH   5   4
ENDBRANCH   6   5
ENDBRANCH  12   8
BRANCH  15  17
ATOM     17  C   UNL     1      -3.688  -0.484  24.333  0.00  0.00    +0.138 C 
ATOM     18  C   UNL     1      -4.242  -1.083  24.205  0.00  0.00    +0.027 C 
ATOM     19  C   UNL     1      -3.878  -1.806  24.369  0.00  0.00    +0.019 C 
ATOM     20  C   UNL     1      -3.100  -1.653  24.598  0.00  0.00    +0.073 C 
ATOM     21  N   UNL     1      -2.983  -0.837  24.575  0.00  0.00    -0.263 NA
BRANCH  21  22
ATOM     22  C   UNL     1      -2.283  -0.442  24.762  0.00  0.00    +0.101 C 
BRANCH  22  23
ATOM     23  C   UNL     1      -1.582  -0.867  24.853  0.00  0.00    +0.013 A 
ATOM     24  C   UNL     1      -1.358  -1.138  25.599  0.00  0.00    +0.000 A 
ATOM     25  C   UNL     1      -0.656  -1.563  25.690  0.00  0.00    +0.020 A 
ATOM     26  C   UNL     1      -0.179  -1.716  25.036  0.00  0.00    +0.099 A 
ATOM     27  N   UNL     1      -0.402  -1.445  24.289  0.00  0.00    -0.243 NA
ATOM     28  C   UNL     1      -1.104  -1.020  24.198  0.00  0.00    +0.096 A 
ENDBRANCH  22  23
ENDBRANCH  21  22
ENDBRANCH  15  17
TORSDOF 8
ENDMDL
MODEL 5
REMARK VINA RESULT:      -9.2      1.690      5.706
REMARK  Name = 
REMARK  8 active torsions:
REMARK  status: ('A' for Active; 'I' for Inactive)
REMARK    1  A    between atoms: O_2  and  C_3
REMARK    2  A    between atoms: C_3  and  C_4
REMARK    3  A    between atoms: C_4  and  N_5
REMARK    4  A    between atoms: N_5  and  C_6
REMARK    5  A    between atoms: C_8  and  C_12
REMARK    6  A    between atoms: C_15  and  C_17
REMARK    7  A    between atoms: N_21  and  C_22
REMARK    8  A    between atoms: C_22  and  C_23
REMARK                            x       y       z     vdW  Elec       q    Type
REMARK                         _______ _______ _______ _____ _____    ______ ____
ROOT
ATOM     12  C   UNL     1      -3.946  -0.241  24.676  0.00  0.00    +0.203 A 
ATOM     13  N   UNL     1      -4.399  -0.085  24.004  0.00  0.00    -0.056 NA
ATOM     14  O   UNL     1      -4.776   0.641  24.113  0.00  0.00    -0.336 OA
ATOM     15  C   UNL     1      -4.555   0.935  24.851  0.00  0.00    +0.251 A 
ATOM     16  N   UNL     1      -4.042   0.390  25.200  0.00  0.00    -0.190 NA
ENDROOT
BRANCH  12   8
ATOM      6  C   UNL     1      -2.189  -1.507  24.948  0.00  0.00    +0.148 A 
ATOM      7  C   UNL     1      -2.657  -0.839  24.822  0.00  0.00    +0.039 A 
ATOM      8  C   UNL     1      -3.479  -0.909  24.803  0.00  0.00    +0.043 A 
ATOM      9  C   UNL     1      -3.833  -1.645  24.909  0.00  0.00    +0.024 A 
ATOM     10  C   UNL     1      -3.366  -2.313  25.035  0.00  0.00    +0.100 A 
ATOM     11  N   UNL     1      -2.544  -2.245  25.055  0.00  0.00    -0.228 NA
BRANCH   6   5
ATOM      5  N   UNL     1      -1.368  -1.439  24.967  0.00  0.00    -0.218 NA
BRANCH   5   4
ATOM      4  C   UNL     1      -0.957  -1.195  24.294  0.00  0.00    +0.146 C 
BRANCH   4   3
ATOM      3  C   UNL     1      -0.198  -0.880  24.366  0.00  0.00    +0.166 C 
BRANCH   3   2
ATOM      1  C   UNL     1       0.566  -0.105  23.440  0.00  0.00    +0.174 C 
ATOM      2  O   UNL     1       0.294  -0.837  23.706  0.00  0.00    -0.349 OA
ENDBRANCH   3   2
ENDBRANCH   4   3
ENDBRANCH   5   4
ENDBRANCH   6   5
ENDBRANCH  12   8
BRANCH  15  17
ATOM     17  C   UNL     1      -4.803   1.647  25.184  0.00  0.00    +0.138 C 
ATOM     18  C   UNL     1      -5.508   1.772  25.594  0.00  0.00    +0.027 C 
ATOM     19  C   UNL     1      -5.531   2.563  25.829  0.00  0.00    +0.019 C 
ATOM     20  C   UNL     1      -4.841   2.927  25.563  0.00  0.00    +0.073 C 
ATOM     21  N   UNL     1      -4.391   2.362  25.164  0.00  0.00    -0.263 NA
BRANCH  21  22
ATOM     22  C   UNL     1      -3.657   2.488  24.809  0.00  0.00    +0.101 C 
BRANCH  22  23
ATOM     23  C   UNL     1      -3.207   3.147  25.016  0.00  0.00    +0.013 A 
ATOM     24  C   UNL     1      -2.661   3.097  25.632  0.00  0.00    +0.000 A 
ATOM     25  C   UNL     1      -2.211   3.757  25.839  0.00  0.00    +0.020 A 
ATOM     26  C   UNL     1      -2.306   4.466  25.430  0.00  0.00    +0.099 A 
ATOM     27  N   UNL     1      -2.851   4.517  24.813  0.00  0.00    -0.243 NA
ATOM     28  C   UNL     1      -3.302   3.857  24.606  0.00  0.00    +0.096 A 
ENDBRANCH  22  23
ENDBRANCH  21  22
ENDBRANCH  15  17
TORSDOF 8
ENDMDL
MODEL 6
REMARK VINA RESULT:      -9.0      1.861      4.150
REMARK  Name = 
REMARK  8 active torsions:
REMARK  status: ('A' for Active; 'I' for Inactive)
REMARK    1  A    between atoms: O_2  and  C_3
REMARK    2  A    between atoms: C_3  and  C_4
REMARK    3  A    between atoms: C_4  and  N_5
REMARK    4  A    between atoms: N_5  and  C_6
REMARK    5  A    between atoms: C_8  and  C_12
REMARK    6  A    between atoms: C_15  and  C_17
REMARK    7  A    between atoms: N_21  and  C_22
REMARK    8  A    between atoms: C_22  and  C_23
REMARK                            x       y       z     vdW  Elec       q    Type
REMARK                         _______ _______ _______ _____ _____    ______ ____
ROOT
ATOM     12  C   UNL     1      -3.967   3.362  25.694  0.00  0.00    +0.203 A 
ATOM     13  N   UNL     1      -3.897   3.787  26.398  0.00  0.00    -0.056 NA
ATOM     14  O   UNL     1      -3.181   4.198  26.377  0.00  0.00    -0.336 OA
ATOM     15  C   UNL     1      -2.809   4.026  25.661  0.00  0.00    +0.251 A 
ATOM     16  N   UNL     1      -3.295   3.510  25.239  0.00  0.00    -0.190 NA
ENDROOT
BRANCH  12   8
ATOM      6  C   UNL     1      -5.086   1.655  24.920  0.00  0.00    +0.148 A 
ATOM      7  C   UNL     1      -4.454   2.142  25.131  0.00  0.00    +0.039 A 
ATOM      8  C   UNL     1      -4.599   2.875  25.482  0.00  0.00    +0.043 A 
ATOM      9  C   UNL     1      -5.373   3.121  25.622  0.00  0.00    +0.024 A 
ATOM     10  C   UNL     1      -6.005   2.633  25.410  0.00  0.00    +0.100 A 
ATOM     11  N   UNL     1      -5.862   1.901  25.059  0.00  0.00    -0.228 NA
BRANCH   6   5
ATOM      5  N   UNL     1      -4.943   0.923  24.569  0.00  0.00    -0.218 NA
BRANCH   5   4
ATOM      4  C   UNL     1      -4.520   0.344  24.978  0.00  0.00    +0.146 C 
BRANCH   4   3
ATOM      3  C   UNL     1      -4.333  -0.369  24.607  0.00  0.00    +0.166 C 
BRANCH   3   2
ATOM      1  C   UNL     1      -3.685  -1.641  24.675  0.00  0.00    +0.174 C 
ATOM      2  O   UNL     1      -4.045  -1.001  25.051  0.00  0.00    -0.349 OA
ENDBRANCH   3   2
ENDBRANCH   4   3
ENDBRANCH   5   4
ENDBRANCH   6   5
ENDBRANCH  12   8
BRANCH  15  17
ATOM     17  C   UNL     1      -2.080   4.319  25.411  0.00  0.00    +0.138 C 
ATOM     18  C   UNL     1      -1.929   5.089  25.155  0.00  0.00    +0.027 C 
ATOM     19  C   UNL     1      -1.129   5.140  24.959  0.00  0.00    +0.019 C 
ATOM     20  C   UNL     1      -0.786   4.402  25.094  0.00  0.00    +0.073 C 
ATOM     21  N   UNL     1      -1.374   3.895  25.373  0.00  0.00    -0.263 NA
BRANCH  21  22
ATOM     22  C   UNL     1      -1.273   3.102  25.579  0.00  0.00    +0.101 C 
BRANCH  22  23
ATOM     23  C   UNL     1      -0.660   2.664  25.243  0.00  0.00    +0.013 A 
ATOM     24  C   UNL     1      -0.755   2.328  24.495  0.00  0.00    +0.000 A 
ATOM     25  C   UNL     1      -0.143   1.890  24.160  0.00  0.00    +0.020 A 
ATOM     26  C   UNL     1       0.565   1.787  24.571  0.00  0.00    +0.099 A 
ATOM     27  N   UNL     1       0.660   2.122  25.318  0.00  0.00    -0.243 NA
ATOM     28  C   UNL     1       0.047   2.561  25.654  0.00  0.00    +0.096 A 
ENDBRANCH  22  23
ENDBRANCH  21  22
ENDBRANCH  15  17
TORSDOF 8
ENDMDL
MODEL 7
REMARK VINA RESULT:      -8.9      1.413      5.328
REMARK  Name = 
REMARK  8 active torsions:
REMARK  status: ('A' for Active; 'I' for Inactive)
REMARK    1  A    between atoms: O_2  and  C_3
REMARK    2  A    between atoms: C_3  and  C_4
REMARK    3  A    between atoms: C_4  and  N_5
REMARK    4  A    between atoms: N_5  and  C_6
REMARK    5  A    between atoms: C_8  and  C_12
REMARK    6  A    between atoms: C_15  and  C_17
REMARK    7  A    between atoms: N_21  and  C_22
REMARK    8  A    between atoms: C_22  and  C_23
REMARK                            x       y       z     vdW  Elec       q    Type
REMARK                         _______ _______ _______ _____ _____    ______ ____
ROOT
ATOM     12  C   UNL     1      -0.541   1.419  25.017  0.00  0.00    +0.203 A 
ATOM     13  N   UNL     1      -0.379   1.561  25.814  0.00  0.00    -0.056 NA
ATOM     14  O   UNL     1      -0.660   2.315  26.001  0.00  0.00    -0.336 OA
ATOM     15  C   UNL     1      -0.995   2.638  25.321  0.00  0.00    +0.251 A 
ATOM     16  N   UNL     1      -0.922   2.084  24.713  0.00  0.00    -0.190 NA
ENDROOT
BRANCH  12   8
ATOM      6  C   UNL     1       0.369   0.078  23.556  0.00  0.00    +0.148 A 
ATOM      7  C   UNL     1       0.183   0.764  23.974  0.00  0.00    +0.039 A 
ATOM      8  C   UNL     1      -0.355   0.733  24.600  0.00  0.00    +0.043 A 
ATOM      9  C   UNL     1      -0.706   0.016  24.807  0.00  0.00    +0.024 A 
ATOM     10  C   UNL     1      -0.520  -0.670  24.389  0.00  0.00    +0.100 A 
ATOM     11  N   UNL     1       0.017  -0.640  23.764  0.00  0.00    -0.228 NA
BRANCH   6   5
ATOM      5  N   UNL     1       0.906   0.108  22.931  0.00  0.00    -0.218 NA
BRANCH   5   4
ATOM      4  C   UNL     1       1.710  -0.012  23.071  0.00  0.00    +0.146 C 
BRANCH   4   3
ATOM      3  C   UNL     1       2.262   0.164  22.484  0.00  0.00    +0.166 C 
BRANCH   3   2
ATOM      1  C   UNL     1       3.617   0.617  22.471  0.00  0.00    +0.174 C 
ATOM      2  O   UNL     1       3.064   0.023  22.615  0.00  0.00    -0.349 OA
ENDBRANCH   3   2
ENDBRANCH   4   3
ENDBRANCH   5   4
ENDBRANCH   6   5
ENDBRANCH  12   8
BRANCH  15  17
ATOM     17  C   UNL     1      -1.343   3.383  25.258  0.00  0.00    +0.138 C 
ATOM     18  C   UNL     1      -0.944   4.096  25.142  0.00  0.00    +0.027 C 
ATOM     19  C   UNL     1      -1.506   4.701  25.113  0.00  0.00    +0.019 C 
ATOM     20  C   UNL     1      -2.251   4.361  25.211  0.00  0.00    +0.073 C 
ATOM     21  N   UNL     1      -2.151   3.547  25.301  0.00  0.00    -0.263 NA
BRANCH  21  22
ATOM     22  C   UNL     1      -2.752   2.994  25.413  0.00  0.00    +0.101 C 
BRANCH  22  23
ATOM     23  C   UNL     1      -3.541   3.222  25.343  0.00  0.00    +0.013 A 
ATOM     24  C   UNL     1      -3.944   3.102  24.633  0.00  0.00    +0.000 A 
ATOM     25  C   UNL     1      -4.733   3.331  24.562  0.00  0.00    +0.020 A 
ATOM     26  C   UNL     1      -5.120   3.680  25.202  0.00  0.00    +0.099 A 
ATOM     27  N   UNL     1      -4.718   3.800  25.912  0.00  0.00    -0.243 NA
ATOM     28  C   UNL     1      -3.929   3.571  25.982  0.00  0.00    +0.096 A 
ENDBRANCH  22  23
ENDBRANCH  21  22
ENDBRANCH  15  17
TORSDOF 8
ENDMDL
