MODEL 1
REMARK VINA RESULT:     -10.1      0.000      0.000
REMARK  Name = 
REMARK  8 active torsions:
REMARK  status: ('A' for Active; 'I' for Inactive)
REMARK    1  A    between atoms: O_2  and  C_3
REMARK    2  A    between atoms: C_8  and  N_9
REMARK    3  A    between atoms: N_12  and  C_15
REMARK    4  A    between atoms: C_16  and  C_17
REMARK    5  A    between atoms: C_17  and  N_18
REMARK    6  A    between atoms: C_19  and  C_21
REMARK    7  A    between atoms: C_24  and  N_27
REMARK    8  A    between atoms: C_31  and  C_32
REMARK                            x       y       z     vdW  Elec       q    Type
REMARK                         _______ _______ _______ _____ _____    ______ ____
ROOT
ATOM     15  C   UNL     1      -4.645   2.672  25.378  0.00  0.00    +0.120 C 
ATOM     16  C   UNL     1      -4.802   1.931  25.051  0.00  0.00    +0.154 C 
ATOM     30  O   UNL     1      -5.557   1.701  25.291  0.00  0.00    -0.350 OA
ATOM     31  C   UNL     1      -5.866   2.300  25.766  0.00  0.00    +0.180 C 
ATOM     34  C   UNL     1      -5.304   2.900  25.820  0.00  0.00    +0.198 C 
ATOM     35  O   UNL     1      -5.384   3.605  26.242  0.00  0.00    -0.219 OA
ENDROOT
BRANCH  15  12
ATOM      9  N   UNL     1      -2.566   3.982  25.084  0.00  0.00    -0.302 N 
ATOM     10  C   UNL     1      -2.684   3.546  25.774  0.00  0.00    +0.108 C 
ATOM     11  C   UNL     1      -3.377   3.109  25.872  0.00  0.00    +0.094 C 
ATOM     12  N   UNL     1      -3.952   3.109  25.280  0.00  0.00    -0.267 NA
ATOM     13  C   UNL     1      -3.833   3.546  24.591  0.00  0.00    +0.094 C 
ATOM     14  C   UNL     1      -3.140   3.982  24.492  0.00  0.00    +0.108 C 
BRANCH   9   8
ATOM      3  C   UNL     1      -1.182   4.045  24.734  0.00  0.00    +0.152 A 
ATOM      4  C   UNL     1      -0.489   4.482  24.636  0.00  0.00    +0.038 A 
ATOM      5  C   UNL     1      -0.487   5.292  24.790  0.00  0.00    +0.003 A 
ATOM      6  C   UNL     1      -1.177   5.666  25.042  0.00  0.00    +0.001 A 
ATOM      7  C   UNL     1      -1.870   5.230  25.140  0.00  0.00    +0.018 A 
ATOM      8  C   UNL     1      -1.873   4.419  24.986  0.00  0.00    +0.082 A 
BRANCH   3   2
ATOM      1  C   UNL     1      -0.495   2.862  24.320  0.00  0.00    +0.253 C 
ATOM      2  O   UNL     1      -1.184   3.234  24.580  0.00  0.00    -0.470 OA
ENDBRANCH   3   2
ENDBRANCH   9   8
ENDBRANCH  15  12
BRANCH  31  32
ATOM     32  C   UNL     1      -6.610   2.299  26.125  0.00  0.00    +0.214 C 
ATOM     33  O   UNL     1      -6.870   1.629  26.532  0.00  0.00    -0.218 OA
ENDBRANCH  31  32
BRANCH  16  17
ATOM     17  C   UNL     1      -4.293   1.497  24.569  0.00  0.00    +0.146 C 
BRANCH  17  18
ATOM     18  N   UNL     1      -4.224   0.681  24.672  0.00  0.00    -0.199 NA
ATOM     19  C   UNL     1      -3.793   0.232  24.130  0.00  0.00    +0.265 C 
ATOM     20  O   UNL     1      -3.432   0.599  23.486  0.00  0.00    -0.268 OA
BRANCH  19  21
ATOM     21  C   UNL     1      -3.724  -0.584  24.232  0.00  0.00    +0.055 A 
ATOM     22  C   UNL     1      -3.141  -0.889  24.730  0.00  0.00    +0.006 A 
ATOM     23  C   UNL     1      -3.072  -1.705  24.833  0.00  0.00    +0.015 A 
ATOM     24  C   UNL     1      -3.587  -2.215  24.438  0.00  0.00    +0.048 A 
ATOM     25  C   UNL     1      -4.169  -1.910  23.940  0.00  0.00    +0.015 A 
ATOM     26  C   UNL     1      -4.238  -1.095  23.838  0.00  0.00    +0.006 A 
BRANCH  24  27
ATOM     27  N   UNL     1      -3.518  -3.031  24.540  0.00  0.00    -0.304 N 
ATOM     28  C   UNL     1      -3.715  -3.542  23.923  0.00  0.00    +0.112 C 
ATOM     29  C   UNL     1      -3.251  -3.335  25.259  0.00  0.00    +0.112 C 
ENDBRANCH  24  27
ENDBRANCH  19  21
ENDBRANCH  17  18
ENDBRANCH  16  17
TORSDOF 8
ENDMDL
MODEL 2
REMARK VINA RESULT:      -8.8      2.418      4.431
REMARK  Name = 
REMARK  8 active torsions:
REMARK  status: ('A' for Active; 'I' for Inactive)
REMARK    1  A    between atoms: O_2  and  C_3
REMARK    2  A    between atoms: C_8  and  N_9
REMARK    3  A    between atoms: N_12  and  C_15
REMARK    4  A    between atoms: C_16  and  C_17
REMARK    5  A    between atoms: C_17  and  N_18
REMARK    6  A    between atoms: C_19  and  C_21
REMARK    7  A    between atoms: C_24  and  N_27
REMARK    8  A    between atoms: C_31  and  C_32
REMARK                            x       y       z     vdW  Elec       q    Type
REMARK                         _______ _______ _______ _____ _____    ______ ____
ROOT
ATOM     15  C   UNL     1      -3.642  -0.597  24.538  0.00  0.00    +0.120 C 
ATOM     16  C   UNL     1      -2.855  -0.843  24.575  0.00  0.00    +0.154 C 
ATOM     30  O   UNL     1      -2.827  -1.640  24.364  0.00  0.00    -0.350 OA
ATOM     31  C   UNL     1      -3.597  -1.886  24.197  0.00  0.00    +0.180 C 
ATOM     34  C   UNL     1      -4.100  -1.241  24.304  0.00  0.00    +0.198 C 
ATOM     35  O   UNL     1      -4.918  -1.241  24.197  0.00  0.00    -0.219 OA
ENDROOT
BRANCH  15  12
ATOM      9  N   UNL     1      -4.478   1.678  25.040  0.00  0.00    -0.302 N 
ATOM     10  C   UNL     1      -4.235   1.488  24.274  0.00  0.00    +0.108 C 
ATOM     11  C   UNL     1      -3.957   0.730  24.107  0.00  0.00    +0.094 C 
ATOM     12  N   UNL     1      -3.920   0.162  24.705  0.00  0.00    -0.267 NA
ATOM     13  C   UNL     1      -4.163   0.353  25.470  0.00  0.00    +0.094 C 
ATOM     14  C   UNL     1      -4.442   1.111  25.637  0.00  0.00    +0.108 C 
BRANCH   9   8
ATOM      3  C   UNL     1      -4.226   3.061  25.296  0.00  0.00    +0.152 A 
ATOM      4  C   UNL     1      -4.505   3.819  25.464  0.00  0.00    +0.038 A 
ATOM      5  C   UNL     1      -5.314   3.953  25.541  0.00  0.00    +0.003 A 
ATOM      6  C   UNL     1      -5.847   3.329  25.452  0.00  0.00    +0.001 A 
ATOM      7  C   UNL     1      -5.568   2.570  25.285  0.00  0.00    +0.018 A 
ATOM      8  C   UNL     1      -4.757   2.436  25.207  0.00  0.00    +0.082 A 
BRANCH   3   2
ATOM      1  C   UNL     1      -2.882   3.547  25.333  0.00  0.00    +0.253 C 
ATOM      2  O   UNL     1      -3.415   2.927  25.219  0.00  0.00    -0.470 OA
ENDBRANCH   3   2
ENDBRANCH   9   8
ENDBRANCH  15  12
BRANCH  31  32
ATOM     32  C   UNL     1      -3.824  -2.644  23.963  0.00  0.00    +0.214 C 
ATOM     33  O   UNL     1      -3.389  -3.300  24.214  0.00  0.00    -0.218 OA
ENDBRANCH  31  32
BRANCH  16  17
ATOM     17  C   UNL     1      -2.210  -0.375  24.786  0.00  0.00    +0.146 C 
BRANCH  17  18
ATOM     18  N   UNL     1      -1.539  -0.356  24.305  0.00  0.00    -0.199 NA
ATOM     19  C   UNL     1      -0.855   0.025  24.566  0.00  0.00    +0.265 C 
ATOM     20  O   UNL     1      -0.842   0.386  25.308  0.00  0.00    -0.268 OA
BRANCH  19  21
ATOM     21  C   UNL     1      -0.185   0.044  24.086  0.00  0.00    +0.055 A 
ATOM     22  C   UNL     1       0.141   0.768  23.860  0.00  0.00    +0.006 A 
ATOM     23  C   UNL     1       0.811   0.787  23.379  0.00  0.00    +0.015 A 
ATOM     24  C   UNL     1       1.155   0.082  23.124  0.00  0.00    +0.048 A 
ATOM     25  C   UNL     1       0.831  -0.642  23.350  0.00  0.00    +0.015 A 
ATOM     26  C   UNL     1       0.160  -0.661  23.830  0.00  0.00    +0.006 A 
BRANCH  24  27
ATOM     27  N   UNL     1       1.825   0.101  22.643  0.00  0.00    -0.304 N 
ATOM     28  C   UNL     1       2.513   0.474  22.908  0.00  0.00    +0.112 C 
ATOM     29  C   UNL     1       1.809  -0.253  21.898  0.00  0.00    +0.112 C 
ENDBRANCH  24  27
ENDBRANCH  19  21
ENDBRANCH  17  18
ENDBRANCH  16  17
TORSDOF 8
ENDMDL
MODEL 3
REMARK VINA RESULT:      -8.5      1.937      3.883
REMARK  Name = 
REMARK  8 active torsions:
REMARK  status: ('A' for Active; 'I' for Inactive)
REMARK    1  A    between atoms: O_2  and  C_3
REMARK    2  A    between atoms: C_8  and  N_9
REMARK    3  A    between atoms: N_12  and  C_15
REMARK    4  A    between atoms: C_16  and  C_17
REMARK    5  A    between atoms: C_17  and  N_18
REMARK    6  A    between atoms: C_19  and  C_21
REMARK    7  A    between atoms: C_24  and  N_27
REMARK    8  A    between atoms: C_31  and  C_32
REMARK                            x       y       z     vdW  Elec       q    Type
REMARK                         _______ _______ _______ _____ _____    ______ ____
ROOT
ATOM     15  C   UNL     1       0.047   1.229  24.131  0.00  0.00    +0.120 C 
ATOM     16  C   UNL     1      -0.263   0.486  24.315  0.00  0.00    +0.154 C 
ATOM     30  O   UNL     1       0.240  -0.085  23.999  0.00  0.00    -0.350 OA
ATOM     31  C   UNL     1       0.861   0.303  23.620  0.00  0.00    +0.180 C 
ATOM     34  C   UNL     1       0.742   1.115  23.702  0.00  0.00    +0.198 C 
ATOM     35  O   UNL     1       1.232   1.710  23.406  0.00  0.00    -0.219 OA
ENDROOT
BRANCH  15  12
ATOM      9  N   UNL     1      -0.936   3.412  24.759  0.00  0.00    -0.302 N 
ATOM     10  C   UNL     1      -0.424   3.026  25.278  0.00  0.00    +0.108 C 
ATOM     11  C   UNL     1      -0.096   2.298  25.069  0.00  0.00    +0.094 C 
ATOM     12  N   UNL     1      -0.281   1.956  24.341  0.00  0.00    -0.267 NA
ATOM     13  C   UNL     1      -0.793   2.343  23.822  0.00  0.00    +0.094 C 
ATOM     14  C   UNL     1      -1.120   3.071  24.031  0.00  0.00    +0.108 C 
BRANCH   9   8
ATOM      3  C   UNL     1      -2.001   4.170  25.337  0.00  0.00    +0.152 A 
ATOM      4  C   UNL     1      -2.328   4.897  25.546  0.00  0.00    +0.038 A 
ATOM      5  C   UNL     1      -1.919   5.595  25.386  0.00  0.00    +0.003 A 
ATOM      6  C   UNL     1      -1.181   5.566  25.017  0.00  0.00    +0.001 A 
ATOM      7  C   UNL     1      -0.854   4.838  24.808  0.00  0.00    +0.018 A 
ATOM      8  C   UNL     1      -1.264   4.139  24.968  0.00  0.00    +0.082 A 
BRANCH   3   2
ATOM      1  C   UNL     1      -3.170   3.503  25.818  0.00  0.00    +0.253 C 
ATOM      2  O   UNL     1      -2.411   3.471  25.496  0.00  0.00    -0.470 OA
ENDBRANCH   3   2
ENDBRANCH   9   8
ENDBRANCH  15  12
BRANCH  31  32
ATOM     32  C   UNL     1       1.492  -0.057  23.228  0.00  0.00    +0.214 C 
ATOM     33  O   UNL     1       1.353  -0.498  22.544  0.00  0.00    -0.218 OA
ENDBRANCH  31  32
BRANCH  16  17
ATOM     17  C   UNL     1      -0.955   0.342  24.740  0.00  0.00    +0.146 C 
BRANCH  17  18
ATOM     18  N   UNL     1      -1.471  -0.254  24.497  0.00  0.00    -0.199 NA
ATOM     19  C   UNL     1      -2.088  -0.493  24.991  0.00  0.00    +0.265 C 
ATOM     20  O   UNL     1      -2.188  -0.135  25.728  0.00  0.00    -0.268 OA
BRANCH  19  21
ATOM     21  C   UNL     1      -2.604  -1.089  24.748  0.00  0.00    +0.055 A 
ATOM     22  C   UNL     1      -2.384  -1.881  24.824  0.00  0.00    +0.006 A 
ATOM     23  C   UNL     1      -2.900  -2.477  24.581  0.00  0.00    +0.015 A 
ATOM     24  C   UNL     1      -3.636  -2.281  24.263  0.00  0.00    +0.048 A 
ATOM     25  C   UNL     1      -3.856  -1.490  24.188  0.00  0.00    +0.015 A 
ATOM     26  C   UNL     1      -3.340  -0.894  24.431  0.00  0.00    +0.006 A 
BRANCH  24  27
ATOM     27  N   UNL     1      -4.152  -2.877  24.020  0.00  0.00    -0.304 N 
ATOM     28  C   UNL     1      -4.022  -3.657  24.256  0.00  0.00    +0.112 C 
ATOM     29  C   UNL     1      -4.798  -2.694  23.541  0.00  0.00    +0.112 C 
ENDBRANCH  24  27
ENDBRANCH  19  21
ENDBRANCH  17  18
ENDBRANCH  16  17
TORSDOF 8
ENDMDL
MODEL 4
REMARK VINA RESULT:      -7.8      1.128      5.492
REMARK  Name = 
REMARK  8 active torsions:
REMARK  status: ('A' for Active; 'I' for Inactive)
REMARK    1  A    between atoms: O_2  and  C_3
REMARK    2  A    between atoms: C_8  and  N_9
REMARK    3  A    between atoms: N_12  and  C_15
REMARK    4  A    between atoms: C_16  and  C_17
REMARK    5  A    between atoms: C_17  and  N_18
REMARK    6  A    between atoms: C_19  and  C_21
REMARK    7  A    between atoms: C_24  and  N_27
REMARK    8  A    between atoms: C_31  and  C_32
REMARK                            x       y       z     vdW  Elec       q    Type
REMARK                         _______ _______ _______ _____ _____    ______ ____
ROOT
ATOM     15  C   UNL     1      -4.617   1.141  25.101  0.00  0.00    +0.120 C 
ATOM     16  C   UNL     1      -4.172   1.813  25.281  0.00  0.00    +0.154 C 
ATOM     30  O   UNL     1      -4.695   2.441  25.392  0.00  0.00    -0.350 OA
ATOM     31  C   UNL     1      -5.462   2.158  25.281  0.00  0.00    +0.180 C 
ATOM     34  C   UNL     1      -5.413   1.355  25.101  0.00  0.00    +0.198 C 
ATOM     35  O   UNL     1      -6.050   0.852  24.948  0.00  0.00    -0.219 OA
ENDROOT
BRANCH  15  12
ATOM      9  N   UNL     1      -3.716  -1.118  24.642  0.00  0.00    -0.302 N 
ATOM     10  C   UNL     1      -3.873  -0.887  25.419  0.00  0.00    +0.108 C 
ATOM     11  C   UNL     1      -4.173  -0.134  25.572  0.00  0.00    +0.094 C 
ATOM     12  N   UNL     1      -4.317   0.388  24.948  0.00  0.00    -0.267 NA
ATOM     13  C   UNL     1      -4.160   0.155  24.172  0.00  0.00    +0.094 C 
ATOM     14  C   UNL     1      -3.860  -0.598  24.019  0.00  0.00    +0.108 C 
BRANCH   9   8
ATOM      3  C   UNL     1      -2.602  -2.003  24.508  0.00  0.00    +0.152 A 
ATOM      4  C   UNL     1      -2.302  -2.756  24.355  0.00  0.00    +0.038 A 
ATOM      5  C   UNL     1      -2.816  -3.378  24.183  0.00  0.00    +0.003 A 
ATOM      6  C   UNL     1      -3.630  -3.247  24.164  0.00  0.00    +0.001 A 
ATOM      7  C   UNL     1      -3.930  -2.494  24.317  0.00  0.00    +0.018 A 
ATOM      8  C   UNL     1      -3.416  -1.871  24.489  0.00  0.00    +0.082 A 
BRANCH   3   2
ATOM      1  C   UNL     1      -1.273  -1.511  24.692  0.00  0.00    +0.253 C 
ATOM      2  O   UNL     1      -2.088  -1.381  24.681  0.00  0.00    -0.470 OA
ENDBRANCH   3   2
ENDBRANCH   9   8
ENDBRANCH  15  12
BRANCH  31  32
ATOM     32  C   UNL     1      -6.156   2.601  25.340  0.00  0.00    +0.214 C 
ATOM     33  O   UNL     1      -6.149   3.326  25.735  0.00  0.00    -0.218 OA
ENDBRANCH  31  32
BRANCH  16  17
ATOM     17  C   UNL     1      -3.351   1.849  25.340  0.00  0.00    +0.146 C 
BRANCH  17  18
ATOM     18  N   UNL     1      -2.956   2.554  25.172  0.00  0.00    -0.199 NA
ATOM     19  C   UNL     1      -2.151   2.625  25.336  0.00  0.00    +0.265 C 
ATOM     20  O   UNL     1      -1.741   1.991  25.669  0.00  0.00    -0.268 OA
BRANCH  19  21
ATOM     21  C   UNL     1      -1.756   3.330  25.168  0.00  0.00    +0.055 A 
ATOM     22  C   UNL     1      -1.100   3.326  24.667  0.00  0.00    +0.006 A 
ATOM     23  C   UNL     1      -0.706   4.031  24.499  0.00  0.00    +0.015 A 
ATOM     24  C   UNL     1      -0.967   4.739  24.831  0.00  0.00    +0.048 A 
ATOM     25  C   UNL     1      -1.623   4.743  25.332  0.00  0.00    +0.015 A 
ATOM     26  C   UNL     1      -2.017   4.038  25.500  0.00  0.00    +0.006 A 
BRANCH  24  27
ATOM     27  N   UNL     1      -0.573   5.444  24.663  0.00  0.00    -0.304 N 
ATOM     28  C   UNL     1      -0.902   6.166  24.891  0.00  0.00    +0.112 C 
ATOM     29  C   UNL     1       0.150   5.428  24.267  0.00  0.00    +0.112 C 
ENDBRANCH  24  27
ENDBRANCH  19  21
ENDBRANCH  17  18
ENDBRANCH  16  17
TORSDOF 8
ENDMDL
MODEL 5
REMARK VINA RESULT:      -7.7      2.210      4.792
REMARK  Name = 
REMARK  8 active torsions:
REMARK  status: ('A' for Active; 'I' for Inactive)
REMARK    1  A    between atoms: O_2  and  C_3
REMARK    2  A    between atoms: C_8  and  N_9
REMARK    3  A    between atoms: N_12  and  C_15
REMARK    4  A    between atoms: C_16  and  C_17
REMARK    5  A    between atoms: C_17  and  N_18
REMARK    6  A    between atoms: C_19  and  C_21
REMARK    7  A    between atoms: C_24  and  N_27
REMARK    8  A    between atoms: C_31  and  C_32
REMARK                            x       y       z     vdW  Elec       q    Type
REMARK                         _______ _______ _______ _____ _____    ______ ____
ROOT
ATOM     15  C   UNL     1      -2.010   3.654  25.001  0.00  0.00    +0.120 C 
ATOM     16  C   UNL     1      -1.277   3.275  24.978  0.00  0.00    +0.154 C 
ATOM     30  O   UNL     1      -0.691   3.855  24.959  0.00  0.00    -0.350 OA
ATOM     31  C   UNL     1      -1.062   4.592  24.970  0.00  0.00    +0.180 C 
ATOM     34  C   UNL     1      -1.877   4.468  24.996  0.00  0.00    +0.198 C 
ATOM     35  O   UNL     1      -2.457   5.054  25.014  0.00  0.00    -0.219 OA
ENDROOT
BRANCH  15  12
ATOM      9  N   UNL     1      -4.219   2.541  25.073  0.00  0.00    -0.302 N 
ATOM     10  C   UNL     1      -3.819   2.709  25.775  0.00  0.00    +0.108 C 
ATOM     11  C   UNL     1      -3.083   3.080  25.751  0.00  0.00    +0.094 C 
ATOM     12  N   UNL     1      -2.746   3.283  25.025  0.00  0.00    -0.267 NA
ATOM     13  C   UNL     1      -3.147   3.115  24.324  0.00  0.00    +0.094 C 
ATOM     14  C   UNL     1      -3.884   2.744  24.348  0.00  0.00    +0.108 C 
BRANCH   9   8
ATOM      3  C   UNL     1      -5.008   1.350  25.022  0.00  0.00    +0.152 A 
ATOM      4  C   UNL     1      -5.745   0.979  25.046  0.00  0.00    +0.038 A 
ATOM      5  C   UNL     1      -6.429   1.428  25.146  0.00  0.00    +0.003 A 
ATOM      6  C   UNL     1      -6.378   2.248  25.221  0.00  0.00    +0.001 A 
ATOM      7  C   UNL     1      -5.641   2.619  25.197  0.00  0.00    +0.018 A 
ATOM      8  C   UNL     1      -4.956   2.170  25.097  0.00  0.00    +0.082 A 
BRANCH   3   2
ATOM      1  C   UNL     1      -4.375   0.082  24.841  0.00  0.00    +0.253 C 
ATOM      2  O   UNL     1      -4.322   0.901  24.922  0.00  0.00    -0.470 OA
ENDBRANCH   3   2
ENDBRANCH   9   8
ENDBRANCH  15  12
BRANCH  31  32
ATOM     32  C   UNL     1      -0.684   5.326  24.957  0.00  0.00    +0.214 C 
ATOM     33  O   UNL     1      -0.075   5.466  24.417  0.00  0.00    -0.218 OA
ENDBRANCH  31  32
BRANCH  16  17
ATOM     17  C   UNL     1      -1.152   2.460  24.975  0.00  0.00    +0.146 C 
BRANCH  17  18
ATOM     18  N   UNL     1      -0.590   2.131  24.469  0.00  0.00    -0.199 NA
ATOM     19  C   UNL     1      -0.359   1.344  24.565  0.00  0.00    +0.265 C 
ATOM     20  O   UNL     1      -0.691   0.888  25.166  0.00  0.00    -0.268 OA
BRANCH  19  21
ATOM     21  C   UNL     1       0.204   1.015  24.059  0.00  0.00    +0.055 A 
ATOM     22  C   UNL     1       0.033   0.320  23.648  0.00  0.00    +0.006 A 
ATOM     23  C   UNL     1       0.595  -0.009  23.143  0.00  0.00    +0.015 A 
ATOM     24  C   UNL     1       1.328   0.357  23.047  0.00  0.00    +0.048 A 
ATOM     25  C   UNL     1       1.499   1.052  23.457  0.00  0.00    +0.015 A 
ATOM     26  C   UNL     1       0.937   1.381  23.963  0.00  0.00    +0.006 A 
BRANCH  24  27
ATOM     27  N   UNL     1       1.890   0.028  22.541  0.00  0.00    -0.304 N 
ATOM     28  C   UNL     1       2.694   0.098  22.716  0.00  0.00    +0.112 C 
ATOM     29  C   UNL     1       1.650  -0.371  21.860  0.00  0.00    +0.112 C 
ENDBRANCH  24  27
ENDBRANCH  19  21
ENDBRANCH  17  18
ENDBRANCH  16  17
TORSDOF 8
ENDMDL
MODEL 6
REMARK VINA RESULT:      -7.6      1.530      3.784
REMARK  Name = 
REMARK  8 active torsions:
REMARK  status: ('A' for Active; 'I' for Inactive)
REMARK    1  A    between atoms: O_2  and  C_3
REMARK    2  A    between atoms: C_8  and  N_9
REMARK    3  A    between atoms: N_12  and  C_15
REMARK    4  A    between atoms: C_16  and  C_17
REMARK    5  A    between atoms: C_17  and  N_18
REMARK    6  A    between atoms: C_19  and  C_21
REMARK    7  A    between atoms: C_24  and  N_27
REMARK    8  A    between atoms: C_31  and  C_32
REMARK                            x       y       z     vdW  Elec       q    Type
REMARK                         _______ _______ _______ _____ _____    ______ ____
ROOT
ATOM     15  C   UNL     1      -1.125   2.089  24.748  0.00  0.00    +0.120 C 
ATOM     16  C   UNL     1      -0.848   1.370  25.045  0.00  0.00    +0.154 C 
ATOM     30  O   UNL     1      -0.074   1.267  24.780  0.00  0.00    -0.350 OA
ATOM     31  C   UNL     1       0.128   1.922  24.321  0.00  0.00    +0.180 C 
ATOM     34  C   UNL     1      -0.522   2.429  24.300  0.00  0.00    +0.198 C 
ATOM     35  O   UNL     1      -0.561   3.151  23.903  0.00  0.00    -0.219 OA
ENDROOT
BRANCH  15  12
ATOM      9  N   UNL     1      -3.372   3.053  25.133  0.00  0.00    -0.302 N 
ATOM     10  C   UNL     1      -3.193   2.703  24.408  0.00  0.00    +0.108 C 
ATOM     11  C   UNL     1      -2.444   2.381  24.279  0.00  0.00    +0.094 C 
ATOM     12  N   UNL     1      -1.874   2.410  24.876  0.00  0.00    -0.267 NA
ATOM     13  C   UNL     1      -2.054   2.761  25.601  0.00  0.00    +0.094 C 
ATOM     14  C   UNL     1      -2.803   3.082  25.729  0.00  0.00    +0.108 C 
BRANCH   9   8
ATOM      3  C   UNL     1      -4.766   2.878  25.393  0.00  0.00    +0.152 A 
ATOM      4  C   UNL     1      -5.515   3.199  25.521  0.00  0.00    +0.038 A 
ATOM      5  C   UNL     1      -5.619   4.017  25.519  0.00  0.00    +0.003 A 
ATOM      6  C   UNL     1      -4.974   4.515  25.387  0.00  0.00    +0.001 A 
ATOM      7  C   UNL     1      -4.225   4.194  25.259  0.00  0.00    +0.018 A 
ATOM      8  C   UNL     1      -4.121   3.374  25.262  0.00  0.00    +0.082 A 
BRANCH   3   2
ATOM      1  C   UNL     1      -5.315   1.561  25.478  0.00  0.00    +0.253 C 
ATOM      2  O   UNL     1      -4.662   2.059  25.396  0.00  0.00    -0.470 OA
ENDBRANCH   3   2
ENDBRANCH   9   8
ENDBRANCH  15  12
BRANCH  31  32
ATOM     32  C   UNL     1       0.853   2.046  23.946  0.00  0.00    +0.214 C 
ATOM     33  O   UNL     1       1.421   1.448  23.940  0.00  0.00    -0.218 OA
ENDBRANCH  31  32
BRANCH  16  17
ATOM     17  C   UNL     1      -1.272   0.848  25.521  0.00  0.00    +0.146 C 
BRANCH  17  18
ATOM     18  N   UNL     1      -1.704   0.235  25.178  0.00  0.00    -0.199 NA
ATOM     19  C   UNL     1      -1.867  -0.449  25.612  0.00  0.00    +0.265 C 
ATOM     20  O   UNL     1      -1.597  -0.518  26.388  0.00  0.00    -0.268 OA
BRANCH  19  21
ATOM     21  C   UNL     1      -2.299  -1.062  25.269  0.00  0.00    +0.055 A 
ATOM     22  C   UNL     1      -1.913  -1.641  24.825  0.00  0.00    +0.006 A 
ATOM     23  C   UNL     1      -2.345  -2.254  24.482  0.00  0.00    +0.015 A 
ATOM     24  C   UNL     1      -3.163  -2.288  24.583  0.00  0.00    +0.048 A 
ATOM     25  C   UNL     1      -3.549  -1.710  25.026  0.00  0.00    +0.015 A 
ATOM     26  C   UNL     1      -3.117  -1.097  25.369  0.00  0.00    +0.006 A 
BRANCH  24  27
ATOM     27  N   UNL     1      -3.596  -2.901  24.239  0.00  0.00    -0.304 N 
ATOM     28  C   UNL     1      -3.385  -3.686  24.384  0.00  0.00    +0.112 C 
ATOM     29  C   UNL     1      -4.238  -2.730  23.751  0.00  0.00    +0.112 C 
ENDBRANCH  24  27
ENDBRANCH  19  21
ENDBRANCH  17  18
ENDBRANCH  16  17
TORSDOF 8
ENDMDL
MODEL 7
REMARK VINA RESULT:      -7.5      3.699      5.574
REMARK  Name = 
REMARK  8 active torsions:
REMARK  status: ('A' for Active; 'I' for Inactive)
REMARK    1  A    between atoms: O_2  and  C_3
REMARK    2  A    between atoms: C_8  and  N_9
REMARK    3  A    between atoms: N_12  and  C_15
REMARK    4  A    between atoms: C_16  and  C_17
REMARK    5  A    between atoms: C_17  and  N_18
REMARK    6  A    between atoms: C_19  and  C_21
REMARK    7  A    between atoms: C_24  and  N_27
REMARK    8  A    between atoms: C_31  and  C_32
REMARK                            x       y       z     vdW  Elec       q    Type
REMARK                         _______ _______ _______ _____ _____    ______ ____
ROOT
ATOM     15  C   UNL     1      -0.592   0.261  24.501  0.00  0.00    +0.120 C 
ATOM     16  C   UNL     1      -0.076  -0.100  23.968  0.00  0.00    +0.154 C 
ATOM     30  O   UNL     1      -0.131  -0.916  24.073  0.00  0.00    -0.350 OA
ATOM     31  C   UNL     1      -0.681  -1.059  24.671  0.00  0.00    +0.180 C 
ATOM     34  C   UNL     1      -0.966  -0.332  24.935  0.00  0.00    +0.198 C 
ATOM     35  O   UNL     1      -1.527  -0.217  25.530  0.00  0.00    -0.219 OA
ENDROOT
BRANCH  15  12
ATOM      9  N   UNL     1      -0.954   2.697  24.752  0.00  0.00    -0.302 N 
ATOM     10  C   UNL     1      -1.312   2.289  24.130  0.00  0.00    +0.108 C 
ATOM     11  C   UNL     1      -1.191   1.477  24.046  0.00  0.00    +0.094 C 
ATOM     12  N   UNL     1      -0.713   1.073  24.585  0.00  0.00    -0.267 NA
ATOM     13  C   UNL     1      -0.356   1.482  25.206  0.00  0.00    +0.094 C 
ATOM     14  C   UNL     1      -0.477   2.294  25.289  0.00  0.00    +0.108 C 
BRANCH   9   8
ATOM      3  C   UNL     1      -1.757   3.789  25.205  0.00  0.00    +0.152 A 
ATOM      4  C   UNL     1      -1.878   4.601  25.288  0.00  0.00    +0.038 A 
ATOM      5  C   UNL     1      -1.316   5.132  25.002  0.00  0.00    +0.003 A 
ATOM      6  C   UNL     1      -0.633   4.853  24.632  0.00  0.00    +0.001 A 
ATOM      7  C   UNL     1      -0.513   4.041  24.549  0.00  0.00    +0.018 A 
ATOM      8  C   UNL     1      -1.075   3.509  24.835  0.00  0.00    +0.082 A 
BRANCH   3   2
ATOM      1  C   UNL     1      -3.019   3.537  25.826  0.00  0.00    +0.253 C 
ATOM      2  O   UNL     1      -2.319   3.256  25.491  0.00  0.00    -0.470 OA
ENDBRANCH   3   2
ENDBRANCH   9   8
ENDBRANCH  15  12
BRANCH  31  32
ATOM     32  C   UNL     1      -0.907  -1.801  24.955  0.00  0.00    +0.214 C 
ATOM     33  O   UNL     1      -1.308  -2.327  24.461  0.00  0.00    -0.218 OA
ENDBRANCH  31  32
BRANCH  16  17
ATOM     17  C   UNL     1       0.410   0.287  23.425  0.00  0.00    +0.146 C 
BRANCH  17  18
ATOM     18  N   UNL     1       1.229   0.265  23.517  0.00  0.00    -0.199 NA
ATOM     19  C   UNL     1       1.718   0.242  22.852  0.00  0.00    +0.265 C 
ATOM     20  O   UNL     1       1.387   0.240  22.097  0.00  0.00    -0.268 OA
BRANCH  19  21
ATOM     21  C   UNL     1       2.538   0.220  22.944  0.00  0.00    +0.055 A 
ATOM     22  C   UNL     1       2.982   0.908  22.847  0.00  0.00    +0.006 A 
ATOM     23  C   UNL     1       3.802   0.886  22.938  0.00  0.00    +0.015 A 
ATOM     24  C   UNL     1       4.177   0.176  23.126  0.00  0.00    +0.048 A 
ATOM     25  C   UNL     1       3.733  -0.512  23.223  0.00  0.00    +0.015 A 
ATOM     26  C   UNL     1       2.913  -0.490  23.132  0.00  0.00    +0.006 A 
BRANCH  24  27
ATOM     27  N   UNL     1       4.996   0.154  23.218  0.00  0.00    -0.304 N 
ATOM     28  C   UNL     1       5.468  -0.186  22.632  0.00  0.00    +0.112 C 
ATOM     29  C   UNL     1       5.345   0.471  23.895  0.00  0.00    +0.112 C 
ENDBRANCH  24  27
ENDBRANCH  19  21
ENDBRANCH  17  18
ENDBRANCH  16  17
TORSDOF 8
ENDMDL
MODEL 8
REMARK VINA RESULT:      -7.5      2.358      6.707
REMARK  Name = 
REMARK  8 active torsions:
REMARK  status: ('A' for Active; 'I' for Inactive)
REMARK    1  A    between atoms: O_2  and  C_3
REMARK    2  A    between atoms: C_8  and  N_9
REMARK    3  A    between atoms: N_12  and  C_15
REMARK    4  A    between atoms: C_16  and  C_17
REMARK    5  A    between atoms: C_17  and  N_18
REMARK    6  A    between atoms: C_19  and  C_21
REMARK    7  A    between atoms: C_24  and  N_27
REMARK    8  A    between atoms: C_31  and  C_32
REMARK                            x       y       z     vdW  Elec       q    Type
REMARK                         _______ _______ _______ _____ _____    ______ ____
ROOT
ATOM     15  C   UNL     1       0.157   0.007  23.872  0.00  0.00    +0.120 C 
ATOM     16  C   UNL     1       0.358   0.719  24.239  0.00  0.00    +0.154 C 
ATOM     30  O   UNL     1       1.036   1.011  23.874  0.00  0.00    -0.350 OA
ATOM     31  C   UNL     1       1.255   0.481  23.280  0.00  0.00    +0.180 C 
ATOM     34  C   UNL     1       0.712  -0.139  23.279  0.00  0.00    +0.198 C 
ATOM     35  O   UNL     1       0.722  -0.791  22.774  0.00  0.00    -0.219 OA
ENDROOT
BRANCH  15  12
ATOM      9  N   UNL     1      -1.771  -1.434  24.447  0.00  0.00    -0.302 N 
ATOM     10  C   UNL     1      -1.060  -1.513  24.858  0.00  0.00    +0.108 C 
ATOM     11  C   UNL     1      -0.418  -1.033  24.667  0.00  0.00    +0.094 C 
ATOM     12  N   UNL     1      -0.486  -0.473  24.063  0.00  0.00    -0.267 NA
ATOM     13  C   UNL     1      -1.197  -0.395  23.653  0.00  0.00    +0.094 C 
ATOM     14  C   UNL     1      -1.840  -0.875  23.845  0.00  0.00    +0.108 C 
BRANCH   9   8
ATOM      3  C   UNL     1      -3.028  -1.616  25.102  0.00  0.00    +0.152 A 
ATOM      4  C   UNL     1      -3.671  -2.097  25.293  0.00  0.00    +0.038 A 
ATOM      5  C   UNL     1      -3.700  -2.875  25.022  0.00  0.00    +0.003 A 
ATOM      6  C   UNL     1      -3.085  -3.174  24.559  0.00  0.00    +0.001 A 
ATOM      7  C   UNL     1      -2.443  -2.693  24.367  0.00  0.00    +0.018 A 
ATOM      8  C   UNL     1      -2.414  -1.914  24.639  0.00  0.00    +0.082 A 
BRANCH   3   2
ATOM      1  C   UNL     1      -3.642  -0.520  25.782  0.00  0.00    +0.253 C 
ATOM      2  O   UNL     1      -3.000  -0.837  25.373  0.00  0.00    -0.470 OA
ENDBRANCH   3   2
ENDBRANCH   9   8
ENDBRANCH  15  12
BRANCH  31  32
ATOM     32  C   UNL     1       1.904   0.559  22.776  0.00  0.00    +0.214 C 
ATOM     33  O   UNL     1       2.597   0.916  23.049  0.00  0.00    -0.218 OA
ENDBRANCH  31  32
BRANCH  16  17
ATOM     17  C   UNL     1      -0.049   1.074  24.862  0.00  0.00    +0.146 C 
BRANCH  17  18
ATOM     18  N   UNL     1      -0.326   1.847  24.786  0.00  0.00    -0.199 NA
ATOM     19  C   UNL     1      -0.594   2.257  25.451  0.00  0.00    +0.265 C 
ATOM     20  O   UNL     1      -0.584   1.892  26.191  0.00  0.00    -0.268 OA
BRANCH  19  21
ATOM     21  C   UNL     1      -0.871   3.030  25.375  0.00  0.00    +0.055 A 
ATOM     22  C   UNL     1      -1.663   3.202  25.532  0.00  0.00    +0.006 A 
ATOM     23  C   UNL     1      -1.939   3.975  25.456  0.00  0.00    +0.015 A 
ATOM     24  C   UNL     1      -1.425   4.577  25.223  0.00  0.00    +0.048 A 
ATOM     25  C   UNL     1      -0.634   4.405  25.066  0.00  0.00    +0.015 A 
ATOM     26  C   UNL     1      -0.357   3.632  25.142  0.00  0.00    +0.006 A 
BRANCH  24  27
ATOM     27  N   UNL     1      -1.702   5.350  25.147  0.00  0.00    -0.304 N 
ATOM     28  C   UNL     1      -2.447   5.552  25.439  0.00  0.00    +0.112 C 
ATOM     29  C   UNL     1      -1.234   5.922  24.779  0.00  0.00    +0.112 C 
ENDBRANCH  24  27
ENDBRANCH  19  21
ENDBRANCH  17  18
ENDBRANCH  16  17
TORSDOF 8
ENDMDL
MODEL 9
REMARK VINA RESULT:      -7.3      3.511      6.434
REMARK  Name = 
REMARK  8 active torsions:
REMARK  status: ('A' for Active; 'I' for Inactive)
REMARK    1  A    between atoms: O_2  and  C_3
REMARK    2  A    between atoms: C_8  and  N_9
REMARK    3  A    between atoms: N_12  and  C_15
REMARK    4  A    between atoms: C_16  and  C_17
REMARK    5  A    between atoms: C_17  and  N_18
REMARK    6  A    between atoms: C_19  and  C_21
REMARK    7  A    between atoms: C_24  and  N_27
REMARK    8  A    between atoms: C_31  and  C_32
REMARK                            x       y       z     vdW  Elec       q    Type
REMARK                         _______ _______ _______ _____ _____    ______ ____
ROOT
ATOM     15  C   UNL     1      -0.597   1.373  24.457  0.00  0.00    +0.120 C 
ATOM     16  C   UNL     1       0.110   1.460  24.040  0.00  0.00    +0.154 C 
ATOM     30  O   UNL     1       0.363   2.240  24.129  0.00  0.00    -0.350 OA
ATOM     31  C   UNL     1      -0.187   2.635  24.600  0.00  0.00    +0.180 C 
ATOM     34  C   UNL     1      -0.780   2.099  24.804  0.00  0.00    +0.198 C 
ATOM     35  O   UNL     1      -1.441   2.261  25.271  0.00  0.00    -0.219 OA
ENDROOT
BRANCH  15  12
ATOM      9  N   UNL     1      -1.932  -0.703  24.638  0.00  0.00    -0.302 N 
ATOM     10  C   UNL     1      -1.361  -0.530  25.207  0.00  0.00    +0.108 C 
ATOM     11  C   UNL     1      -0.916   0.162  25.147  0.00  0.00    +0.094 C 
ATOM     12  N   UNL     1      -1.042   0.681  24.518  0.00  0.00    -0.267 NA
ATOM     13  C   UNL     1      -1.614   0.507  23.949  0.00  0.00    +0.094 C 
ATOM     14  C   UNL     1      -2.059  -0.185  24.009  0.00  0.00    +0.108 C 
BRANCH   9   8
ATOM      3  C   UNL     1      -3.139  -1.370  25.013  0.00  0.00    +0.152 A 
ATOM      4  C   UNL     1      -3.584  -2.062  25.074  0.00  0.00    +0.038 A 
ATOM      5  C   UNL     1      -3.268  -2.779  24.819  0.00  0.00    +0.003 A 
ATOM      6  C   UNL     1      -2.506  -2.805  24.503  0.00  0.00    +0.001 A 
ATOM      7  C   UNL     1      -2.061  -2.113  24.443  0.00  0.00    +0.018 A 
ATOM      8  C   UNL     1      -2.377  -1.395  24.698  0.00  0.00    +0.082 A 
BRANCH   3   2
ATOM      1  C   UNL     1      -4.228  -0.621  25.557  0.00  0.00    +0.253 C 
ATOM      2  O   UNL     1      -3.456  -0.651  25.269  0.00  0.00    -0.470 OA
ENDBRANCH   3   2
ENDBRANCH   9   8
ENDBRANCH  15  12
BRANCH  31  32
ATOM     32  C   UNL     1      -0.150   3.427  24.829  0.00  0.00    +0.214 C 
ATOM     33  O   UNL     1      -0.171   4.022  24.257  0.00  0.00    -0.218 OA
ENDBRANCH  31  32
BRANCH  16  17
ATOM     17  C   UNL     1       0.495   0.872  23.610  0.00  0.00    +0.146 C 
BRANCH  17  18
ATOM     18  N   UNL     1       1.318   0.823  23.623  0.00  0.00    -0.199 NA
ATOM     19  C   UNL     1       1.715   0.387  23.046  0.00  0.00    +0.265 C 
ATOM     20  O   UNL     1       1.288  -0.001  22.456  0.00  0.00    -0.268 OA
BRANCH  19  21
ATOM     21  C   UNL     1       2.538   0.338  23.058  0.00  0.00    +0.055 A 
ATOM     22  C   UNL     1       2.907  -0.358  23.304  0.00  0.00    +0.006 A 
ATOM     23  C   UNL     1       3.730  -0.406  23.317  0.00  0.00    +0.015 A 
ATOM     24  C   UNL     1       4.185   0.242  23.084  0.00  0.00    +0.048 A 
ATOM     25  C   UNL     1       3.817   0.938  22.839  0.00  0.00    +0.015 A 
ATOM     26  C   UNL     1       2.994   0.986  22.826  0.00  0.00    +0.006 A 
BRANCH  24  27
ATOM     27  N   UNL     1       5.008   0.193  23.097  0.00  0.00    -0.304 N 
ATOM     28  C   UNL     1       5.427   0.452  23.760  0.00  0.00    +0.112 C 
ATOM     29  C   UNL     1       5.414  -0.113  22.448  0.00  0.00    +0.112 C 
ENDBRANCH  24  27
ENDBRANCH  19  21
ENDBRANCH  17  18
ENDBRANCH  16  17
TORSDOF 8
ENDMDL
MODEL 10
REMARK VINA RESULT:      -6.7      1.830      5.221
REMARK  Name = 
REMARK  8 active torsions:
REMARK  status: ('A' for Active; 'I' for Inactive)
REMARK    1  A    between atoms: O_2  and  C_3
REMARK    2  A    between atoms: C_8  and  N_9
REMARK    3  A    between atoms: N_12  and  C_15
REMARK    4  A    between atoms: C_16  and  C_17
REMARK    5  A    between atoms: C_17  and  N_18
REMARK    6  A    between atoms: C_19  and  C_21
REMARK    7  A    between atoms: C_24  and  N_27
REMARK    8  A    between atoms: C_31  and  C_32
REMARK                            x       y       z     vdW  Elec       q    Type
REMARK                         _______ _______ _______ _____ _____    ______ ____
ROOT
ATOM     15  C   UNL     1      -0.832   2.184  24.570  0.00  0.00    +0.120 C 
ATOM     16  C   UNL     1      -1.429   2.659  24.255  0.00  0.00    +0.154 C 
ATOM     30  O   UNL     1      -1.177   3.444  24.295  0.00  0.00    -0.350 OA
ATOM     31  C   UNL     1      -0.425   3.453  24.634  0.00  0.00    +0.180 C 
ATOM     34  C   UNL     1      -0.212   2.675  24.804  0.00  0.00    +0.198 C 
ATOM     35  O   UNL     1       0.498   2.431  25.147  0.00  0.00    -0.219 OA
ENDROOT
BRANCH  15  12
ATOM      9  N   UNL     1      -0.892  -0.282  24.775  0.00  0.00    -0.302 N 
ATOM     10  C   UNL     1      -1.084   0.191  25.423  0.00  0.00    +0.108 C 
ATOM     11  C   UNL     1      -1.064   1.013  25.355  0.00  0.00    +0.094 C 
ATOM     12  N   UNL     1      -0.852   1.362  24.638  0.00  0.00    -0.267 NA
ATOM     13  C   UNL     1      -0.659   0.889  23.990  0.00  0.00    +0.094 C 
ATOM     14  C   UNL     1      -0.679   0.067  24.059  0.00  0.00    +0.108 C 
BRANCH   9   8
ATOM      3  C   UNL     1      -1.610  -1.514  24.689  0.00  0.00    +0.152 A 
ATOM      4  C   UNL     1      -1.630  -2.336  24.757  0.00  0.00    +0.038 A 
ATOM      5  C   UNL     1      -0.952  -2.747  24.980  0.00  0.00    +0.003 A 
ATOM      6  C   UNL     1      -0.252  -2.338  25.134  0.00  0.00    +0.001 A 
ATOM      7  C   UNL     1      -0.232  -1.516  25.066  0.00  0.00    +0.018 A 
ATOM      8  C   UNL     1      -0.912  -1.103  24.843  0.00  0.00    +0.082 A 
BRANCH   3   2
ATOM      1  C   UNL     1      -3.001  -1.506  24.360  0.00  0.00    +0.253 C 
ATOM      2  O   UNL     1      -2.290  -1.101  24.466  0.00  0.00    -0.470 OA
ENDBRANCH   3   2
ENDBRANCH   9   8
ENDBRANCH  15  12
BRANCH  31  32
ATOM     32  C   UNL     1       0.033   4.125  24.778  0.00  0.00    +0.214 C 
ATOM     33  O   UNL     1      -0.313   4.874  24.749  0.00  0.00    -0.218 OA
ENDBRANCH  31  32
BRANCH  16  17
ATOM     17  C   UNL     1      -2.150   2.396  23.954  0.00  0.00    +0.146 C 
BRANCH  17  18
ATOM     18  N   UNL     1      -2.832   2.445  24.416  0.00  0.00    -0.199 NA
ATOM     19  C   UNL     1      -3.574   2.359  24.066  0.00  0.00    +0.265 C 
ATOM     20  O   UNL     1      -3.634   2.223  23.254  0.00  0.00    -0.268 OA
BRANCH  19  21
ATOM     21  C   UNL     1      -4.256   2.408  24.527  0.00  0.00    +0.055 A 
ATOM     22  C   UNL     1      -4.708   1.732  24.670  0.00  0.00    +0.006 A 
ATOM     23  C   UNL     1      -5.390   1.781  25.132  0.00  0.00    +0.015 A 
ATOM     24  C   UNL     1      -5.620   2.507  25.450  0.00  0.00    +0.048 A 
ATOM     25  C   UNL     1      -5.169   3.182  25.308  0.00  0.00    +0.015 A 
ATOM     26  C   UNL     1      -4.487   3.133  24.846  0.00  0.00    +0.006 A 
BRANCH  24  27
ATOM     27  N   UNL     1      -6.302   2.556  25.912  0.00  0.00    -0.304 N 
ATOM     28  C   UNL     1      -6.704   3.274  25.978  0.00  0.00    +0.112 C 
ATOM     29  C   UNL     1      -6.582   1.889  26.307  0.00  0.00    +0.112 C 
ENDBRANCH  24  27
ENDBRANCH  19  21
ENDBRANCH  17  18
ENDBRANCH  16  17
TORSDOF 8
ENDMDL
