MODEL 1
REMARK VINA RESULT:      -8.5      0.000      0.000
REMARK  Name = 
REMARK  9 active torsions:
REMARK  status: ('A' for Active; 'I' for Inactive)
REMARK    1  A    between atoms: O_2  and  C_3
REMARK    2  A    between atoms: C_3  and  C_4
REMARK    3  A    between atoms: C_4  and  N_5
REMARK    4  A    between atoms: N_5  and  C_6
REMARK    5  A    between atoms: C_9  and  C_12
REMARK    6  A    between atoms: C_15  and  C_17
REMARK    7  A    between atoms: N_21  and  C_22
REMARK    8  A    between atoms: C_22  and  C_23
REMARK    9  A    between atoms: C_26  and  O_27
REMARK                            x       y       z     vdW  Elec       q    Type
REMARK                         _______ _______ _______ _____ _____    ______ ____
ROOT
ATOM     12  C   UNL     1      -0.890  -0.366  24.319  0.00  0.00    +0.205 A 
ATOM     13  N   UNL     1      -0.945  -0.577  25.115  0.00  0.00    -0.056 NA
ATOM     14  O   UNL     1      -1.737  -0.742  25.281  0.00  0.00    -0.336 OA
ATOM     15  C   UNL     1      -2.170  -0.632  24.588  0.00  0.00    +0.251 A 
ATOM     16  N   UNL     1      -1.647  -0.400  23.993  0.00  0.00    -0.190 NA
ENDROOT
BRANCH  12   9
ATOM      6  C   UNL     1       1.183   0.258  23.119  0.00  0.00    +0.148 A 
ATOM      7  C   UNL     1       0.722   0.840  23.477  0.00  0.00    +0.036 A 
ATOM      8  C   UNL     1       0.031   0.632  23.877  0.00  0.00    +0.008 A 
ATOM      9  C   UNL     1      -0.199  -0.158  23.919  0.00  0.00    +0.058 A 
ATOM     10  C   UNL     1       0.262  -0.742  23.561  0.00  0.00    +0.103 A 
ATOM     11  N   UNL     1       0.953  -0.534  23.161  0.00  0.00    -0.228 NA
BRANCH   6   5
ATOM      5  N   UNL     1       1.874   0.466  22.720  0.00  0.00    -0.218 NA
BRANCH   5   4
ATOM      4  C   UNL     1       2.599   0.448  23.113  0.00  0.00    +0.146 C 
BRANCH   4   3
ATOM      3  C   UNL     1       3.297   0.596  22.699  0.00  0.00    +0.166 C 
BRANCH   3   2
ATOM      1  C   UNL     1       4.679   0.557  23.061  0.00  0.00    +0.174 C 
ATOM      2  O   UNL     1       3.944   0.931  23.085  0.00  0.00    -0.349 OA
ENDBRANCH   3   2
ENDBRANCH   4   3
ENDBRANCH   5   4
ENDBRANCH   6   5
ENDBRANCH  12   9
BRANCH  15  17
ATOM     17  C   UNL     1      -2.984  -0.736  24.503  0.00  0.00    +0.138 C 
ATOM     18  C   UNL     1      -3.361  -1.421  24.240  0.00  0.00    +0.027 C 
ATOM     19  C   UNL     1      -4.174  -1.282  24.241  0.00  0.00    +0.019 C 
ATOM     20  C   UNL     1      -4.300  -0.511  24.506  0.00  0.00    +0.073 C 
ATOM     21  N   UNL     1      -3.565  -0.173  24.668  0.00  0.00    -0.263 NA
BRANCH  21  22
ATOM     22  C   UNL     1      -3.433   0.592  24.946  0.00  0.00    +0.099 C 
BRANCH  22  23
ATOM     23  C   UNL     1      -4.052   1.137  24.962  0.00  0.00    -0.006 A 
ATOM     24  C   UNL     1      -4.074   1.754  24.415  0.00  0.00    +0.000 A 
ATOM     25  C   UNL     1      -4.693   2.299  24.432  0.00  0.00    +0.037 A 
ATOM     26  C   UNL     1      -5.291   2.227  24.996  0.00  0.00    +0.139 A 
ATOM     29  C   UNL     1      -5.269   1.610  25.543  0.00  0.00    +0.037 A 
ATOM     30  C   UNL     1      -4.650   1.065  25.526  0.00  0.00    +0.000 A 
BRANCH  26  27
ATOM     27  O   UNL     1      -5.910   2.772  25.013  0.00  0.00    -0.471 OA
ATOM     28  C   UNL     1      -5.867   3.430  25.509  0.00  0.00    +0.252 C 
ENDBRANCH  26  27
ENDBRANCH  22  23
ENDBRANCH  21  22
ENDBRANCH  15  17
TORSDOF 9
ENDMDL
MODEL 2
REMARK VINA RESULT:      -8.1      2.499      4.193
REMARK  Name = 
REMARK  9 active torsions:
REMARK  status: ('A' for Active; 'I' for Inactive)
REMARK    1  A    between atoms: O_2  and  C_3
REMARK    2  A    between atoms: C_3  and  C_4
REMARK    3  A    between atoms: C_4  and  N_5
REMARK    4  A    between atoms: N_5  and  C_6
REMARK    5  A    between atoms: C_9  and  C_12
REMARK    6  A    between atoms: C_15  and  C_17
REMARK    7  A    between atoms: N_21  and  C_22
REMARK    8  A    between atoms: C_22  and  C_23
REMARK    9  A    between atoms: C_26  and  O_27
REMARK                            x       y       z     vdW  Elec       q    Type
REMARK                         _______ _______ _______ _____ _____    ______ ____
ROOT
ATOM     12  C   UNL     1      -0.399   1.656  25.217  0.00  0.00    +0.205 A 
ATOM     13  N   UNL     1       0.271   1.976  25.577  0.00  0.00    -0.056 NA
ATOM     14  O   UNL     1       0.181   2.796  25.600  0.00  0.00    -0.336 OA
ATOM     15  C   UNL     1      -0.545   2.983  25.255  0.00  0.00    +0.251 A 
ATOM     16  N   UNL     1      -0.903   2.278  25.018  0.00  0.00    -0.190 NA
ENDROOT
BRANCH  12   9
ATOM      6  C   UNL     1      -0.822  -0.748  24.806  0.00  0.00    +0.148 A 
ATOM      7  C   UNL     1      -1.026  -0.410  25.531  0.00  0.00    +0.036 A 
ATOM      8  C   UNL     1      -0.885   0.391  25.668  0.00  0.00    +0.008 A 
ATOM      9  C   UNL     1      -0.540   0.855  25.080  0.00  0.00    +0.058 A 
ATOM     10  C   UNL     1      -0.335   0.518  24.355  0.00  0.00    +0.103 A 
ATOM     11  N   UNL     1      -0.476  -0.283  24.218  0.00  0.00    -0.228 NA
BRANCH   6   5
ATOM      5  N   UNL     1      -0.963  -1.549  24.669  0.00  0.00    -0.218 NA
BRANCH   5   4
ATOM      4  C   UNL     1      -1.703  -1.797  24.400  0.00  0.00    +0.146 C 
BRANCH   4   3
ATOM      3  C   UNL     1      -1.934  -2.583  24.498  0.00  0.00    +0.166 C 
BRANCH   3   2
ATOM      1  C   UNL     1      -3.316  -2.945  24.501  0.00  0.00    +0.174 C 
ATOM      2  O   UNL     1      -2.598  -2.870  24.102  0.00  0.00    -0.349 OA
ENDBRANCH   3   2
ENDBRANCH   4   3
ENDBRANCH   5   4
ENDBRANCH   6   5
ENDBRANCH  12   9
BRANCH  15  17
ATOM     17  C   UNL     1      -0.857   3.740  25.163  0.00  0.00    +0.138 C 
ATOM     18  C   UNL     1      -0.497   4.368  24.766  0.00  0.00    +0.027 C 
ATOM     19  C   UNL     1      -1.002   5.019  24.809  0.00  0.00    +0.019 C 
ATOM     20  C   UNL     1      -1.674   4.794  25.232  0.00  0.00    +0.073 C 
ATOM     21  N   UNL     1      -1.584   4.003  25.450  0.00  0.00    -0.263 NA
BRANCH  21  22
ATOM     22  C   UNL     1      -2.126   3.555  25.881  0.00  0.00    +0.099 C 
BRANCH  22  23
ATOM     23  C   UNL     1      -2.936   3.667  25.769  0.00  0.00    -0.006 A 
ATOM     24  C   UNL     1      -3.308   3.350  25.105  0.00  0.00    +0.000 A 
ATOM     25  C   UNL     1      -4.118   3.462  24.992  0.00  0.00    +0.037 A 
ATOM     26  C   UNL     1      -4.555   3.891  25.545  0.00  0.00    +0.139 A 
ATOM     29  C   UNL     1      -4.183   4.208  26.209  0.00  0.00    +0.037 A 
ATOM     30  C   UNL     1      -3.374   4.096  26.321  0.00  0.00    +0.000 A 
BRANCH  26  27
ATOM     27  O   UNL     1      -5.365   4.002  25.432  0.00  0.00    -0.471 OA
ATOM     28  C   UNL     1      -5.890   3.381  25.572  0.00  0.00    +0.252 C 
ENDBRANCH  26  27
ENDBRANCH  22  23
ENDBRANCH  21  22
ENDBRANCH  15  17
TORSDOF 9
ENDMDL
MODEL 3
REMARK VINA RESULT:      -7.5      1.579      2.276
REMARK  Name = 
REMARK  9 active torsions:
REMARK  status: ('A' for Active; 'I' for Inactive)
REMARK    1  A    between atoms: O_2  and  C_3
REMARK    2  A    between atoms: C_3  and  C_4
REMARK    3  A    between atoms: C_4  and  N_5
REMARK    4  A    between atoms: N_5  and  C_6
REMARK    5  A    between atoms: C_9  and  C_12
REMARK    6  A    between atoms: C_15  and  C_17
REMARK    7  A    between atoms: N_21  and  C_22
REMARK    8  A    between atoms: C_22  and  C_23
REMARK    9  A    between atoms: C_26  and  O_27
REMARK                            x       y       z     vdW  Elec       q    Type
REMARK                         _______ _______ _______ _____ _____    ______ ____
ROOT
ATOM     12  C   UNL     1      -0.301   1.387  24.655  0.00  0.00    +0.205 A 
ATOM     13  N   UNL     1      -0.612   0.977  25.300  0.00  0.00    -0.056 NA
ATOM     14  O   UNL     1      -1.215   1.436  25.627  0.00  0.00    -0.336 OA
ATOM     15  C   UNL     1      -1.276   2.129  25.184  0.00  0.00    +0.251 A 
ATOM     16  N   UNL     1      -0.711   2.099  24.584  0.00  0.00    -0.190 NA
ENDROOT
BRANCH  12   9
ATOM      6  C   UNL     1       1.542   0.615  23.194  0.00  0.00    +0.148 A 
ATOM      7  C   UNL     1       0.852   0.168  23.260  0.00  0.00    +0.036 A 
ATOM      8  C   UNL     1       0.238   0.425  23.747  0.00  0.00    +0.008 A 
ATOM      9  C   UNL     1       0.314   1.130  24.168  0.00  0.00    +0.058 A 
ATOM     10  C   UNL     1       1.003   1.578  24.103  0.00  0.00    +0.103 A 
ATOM     11  N   UNL     1       1.617   1.321  23.616  0.00  0.00    -0.228 NA
BRANCH   6   5
ATOM      5  N   UNL     1       2.156   0.358  22.707  0.00  0.00    -0.218 NA
BRANCH   5   4
ATOM      4  C   UNL     1       2.928   0.612  22.848  0.00  0.00    +0.146 C 
BRANCH   4   3
ATOM      3  C   UNL     1       3.561   0.233  22.479  0.00  0.00    +0.166 C 
BRANCH   3   2
ATOM      1  C   UNL     1       4.880   0.250  23.029  0.00  0.00    +0.174 C 
ATOM      2  O   UNL     1       4.317   0.562  22.513  0.00  0.00    -0.349 OA
ENDBRANCH   3   2
ENDBRANCH   4   3
ENDBRANCH   5   4
ENDBRANCH   6   5
ENDBRANCH  12   9
BRANCH  15  17
ATOM     17  C   UNL     1      -1.809   2.745  25.317  0.00  0.00    +0.138 C 
ATOM     18  C   UNL     1      -1.651   3.442  25.731  0.00  0.00    +0.027 C 
ATOM     19  C   UNL     1      -2.336   3.900  25.730  0.00  0.00    +0.019 C 
ATOM     20  C   UNL     1      -2.919   3.487  25.316  0.00  0.00    +0.073 C 
ATOM     21  N   UNL     1      -2.592   2.773  25.061  0.00  0.00    -0.263 NA
BRANCH  21  22
ATOM     22  C   UNL     1      -2.982   2.190  24.627  0.00  0.00    +0.099 C 
BRANCH  22  23
ATOM     23  C   UNL     1      -3.800   2.108  24.686  0.00  0.00    -0.006 A 
ATOM     24  C   UNL     1      -4.297   2.616  24.268  0.00  0.00    +0.000 A 
ATOM     25  C   UNL     1      -5.116   2.535  24.327  0.00  0.00    +0.037 A 
ATOM     26  C   UNL     1      -5.437   1.944  24.805  0.00  0.00    +0.139 A 
ATOM     29  C   UNL     1      -4.941   1.436  25.224  0.00  0.00    +0.037 A 
ATOM     30  C   UNL     1      -4.122   1.517  25.164  0.00  0.00    +0.000 A 
BRANCH  26  27
ATOM     27  O   UNL     1      -6.257   1.862  24.865  0.00  0.00    -0.471 OA
ATOM     28  C   UNL     1      -6.625   1.925  25.601  0.00  0.00    +0.252 C 
ENDBRANCH  26  27
ENDBRANCH  22  23
ENDBRANCH  21  22
ENDBRANCH  15  17
TORSDOF 9
ENDMDL
MODEL 4
REMARK VINA RESULT:      -7.5      2.958      4.632
REMARK  Name = 
REMARK  9 active torsions:
REMARK  status: ('A' for Active; 'I' for Inactive)
REMARK    1  A    between atoms: O_2  and  C_3
REMARK    2  A    between atoms: C_3  and  C_4
REMARK    3  A    between atoms: C_4  and  N_5
REMARK    4  A    between atoms: N_5  and  C_6
REMARK    5  A    between atoms: C_9  and  C_12
REMARK    6  A    between atoms: C_15  and  C_17
REMARK    7  A    between atoms: N_21  and  C_22
REMARK    8  A    between atoms: C_22  and  C_23
REMARK    9  A    between atoms: C_26  and  O_27
REMARK                            x       y       z     vdW  Elec       q    Type
REMARK                         _______ _______ _______ _____ _____    ______ ____
ROOT
ATOM     12  C   UNL     1      -4.723   0.559  24.839  0.00  0.00    +0.205 A 
ATOM     13  N   UNL     1      -5.458   0.674  24.481  0.00  0.00    -0.056 NA
ATOM     14  O   UNL     1      -5.690   1.454  24.620  0.00  0.00    -0.336 OA
ATOM     15  C   UNL     1      -5.099   1.821  25.064  0.00  0.00    +0.251 A 
ATOM     16  N   UNL     1      -4.502   1.267  25.199  0.00  0.00    -0.190 NA
ENDROOT
BRANCH  12   9
ATOM      6  C   UNL     1      -3.415  -1.542  24.832  0.00  0.00    +0.148 A 
ATOM      7  C   UNL     1      -3.707  -1.235  24.124  0.00  0.00    +0.036 A 
ATOM      8  C   UNL     1      -4.143  -0.534  24.127  0.00  0.00    +0.008 A 
ATOM      9  C   UNL     1      -4.287  -0.141  24.837  0.00  0.00    +0.058 A 
ATOM     10  C   UNL     1      -3.995  -0.447  25.545  0.00  0.00    +0.103 A 
ATOM     11  N   UNL     1      -3.559  -1.147  25.543  0.00  0.00    -0.228 NA
BRANCH   6   5
ATOM      5  N   UNL     1      -2.979  -2.242  24.830  0.00  0.00    -0.218 NA
BRANCH   5   4
ATOM      4  C   UNL     1      -2.198  -2.240  24.563  0.00  0.00    +0.146 C 
BRANCH   4   3
ATOM      3  C   UNL     1      -1.628  -2.692  24.953  0.00  0.00    +0.166 C 
BRANCH   3   2
ATOM      1  C   UNL     1      -0.292  -2.246  25.194  0.00  0.00    +0.174 C 
ATOM      2  O   UNL     1      -0.837  -2.647  24.723  0.00  0.00    -0.349 OA
ENDBRANCH   3   2
ENDBRANCH   4   3
ENDBRANCH   5   4
ENDBRANCH   6   5
ENDBRANCH  12   9
BRANCH  15  17
ATOM     17  C   UNL     1      -5.104   2.602  25.327  0.00  0.00    +0.138 C 
ATOM     18  C   UNL     1      -5.720   2.973  25.733  0.00  0.00    +0.027 C 
ATOM     19  C   UNL     1      -5.492   3.751  25.887  0.00  0.00    +0.019 C 
ATOM     20  C   UNL     1      -4.735   3.861  25.577  0.00  0.00    +0.073 C 
ATOM     21  N   UNL     1      -4.496   3.151  25.231  0.00  0.00    -0.263 NA
BRANCH  21  22
ATOM     22  C   UNL     1      -3.775   3.014  24.854  0.00  0.00    +0.099 C 
BRANCH  22  23
ATOM     23  C   UNL     1      -3.149   3.540  24.958  0.00  0.00    -0.006 A 
ATOM     24  C   UNL     1      -3.040   4.161  24.426  0.00  0.00    +0.000 A 
ATOM     25  C   UNL     1      -2.413   4.689  24.529  0.00  0.00    +0.037 A 
ATOM     26  C   UNL     1      -1.896   4.594  25.165  0.00  0.00    +0.139 A 
ATOM     29  C   UNL     1      -2.004   3.973  25.696  0.00  0.00    +0.037 A 
ATOM     30  C   UNL     1      -2.630   3.446  25.593  0.00  0.00    +0.000 A 
BRANCH  26  27
ATOM     27  O   UNL     1      -1.269   5.121  25.268  0.00  0.00    -0.471 OA
ATOM     28  C   UNL     1      -0.561   5.004  24.862  0.00  0.00    +0.252 C 
ENDBRANCH  26  27
ENDBRANCH  22  23
ENDBRANCH  21  22
ENDBRANCH  15  17
TORSDOF 9
ENDMDL
MODEL 5
REMARK VINA RESULT:      -7.5      2.963      4.107
REMARK  Name = 
REMARK  9 active torsions:
REMARK  status: ('A' for Active; 'I' for Inactive)
REMARK    1  A    between atoms: O_2  and  C_3
REMARK    2  A    between atoms: C_3  and  C_4
REMARK    3  A    between atoms: C_4  and  N_5
REMARK    4  A    between atoms: N_5  and  C_6
REMARK    5  A    between atoms: C_9  and  C_12
REMARK    6  A    between atoms: C_15  and  C_17
REMARK    7  A    between atoms: N_21  and  C_22
REMARK    8  A    between atoms: C_22  and  C_23
REMARK    9  A    between atoms: C_26  and  O_27
REMARK                            x       y       z     vdW  Elec       q    Type
REMARK                         _______ _______ _______ _____ _____    ______ ____
ROOT
ATOM     12  C   UNL     1      -2.082   2.418  25.066  0.00  0.00    +0.205 A 
ATOM     13  N   UNL     1      -2.282   2.802  24.364  0.00  0.00    -0.056 NA
ATOM     14  O   UNL     1      -3.045   2.568  24.153  0.00  0.00    -0.336 OA
ATOM     15  C   UNL     1      -3.316   2.038  24.725  0.00  0.00    +0.251 A 
ATOM     16  N   UNL     1      -2.721   1.946  25.290  0.00  0.00    -0.190 NA
ENDROOT
BRANCH  12   9
ATOM      6  C   UNL     1       0.059   2.641  26.288  0.00  0.00    +0.148 A 
ATOM      7  C   UNL     1      -0.176   1.906  25.997  0.00  0.00    +0.036 A 
ATOM      8  C   UNL     1      -0.889   1.831  25.590  0.00  0.00    +0.008 A 
ATOM      9  C   UNL     1      -1.368   2.492  25.474  0.00  0.00    +0.058 A 
ATOM     10  C   UNL     1      -1.135   3.228  25.764  0.00  0.00    +0.103 A 
ATOM     11  N   UNL     1      -0.421   3.303  26.171  0.00  0.00    -0.228 NA
BRANCH   6   5
ATOM      5  N   UNL     1       0.773   2.716  26.695  0.00  0.00    -0.218 NA
BRANCH   5   4
ATOM      4  C   UNL     1       0.794   2.608  27.513  0.00  0.00    +0.146 C 
BRANCH   4   3
ATOM      3  C   UNL     1       1.503   2.703  27.923  0.00  0.00    +0.166 C 
BRANCH   3   2
ATOM      1  C   UNL     1       2.240   2.663  29.147  0.00  0.00    +0.174 C 
ATOM      2  O   UNL     1       1.539   2.540  28.731  0.00  0.00    -0.349 OA
ENDBRANCH   3   2
ENDBRANCH   4   3
ENDBRANCH   5   4
ENDBRANCH   6   5
ENDBRANCH  12   9
BRANCH  15  17
ATOM     17  C   UNL     1      -4.052   1.667  24.732  0.00  0.00    +0.138 C 
ATOM     18  C   UNL     1      -4.758   1.995  25.006  0.00  0.00    +0.027 C 
ATOM     19  C   UNL     1      -5.355   1.434  24.910  0.00  0.00    +0.019 C 
ATOM     20  C   UNL     1      -5.018   0.758  24.577  0.00  0.00    +0.073 C 
ATOM     21  N   UNL     1      -4.212   0.902  24.467  0.00  0.00    -0.263 NA
BRANCH  21  22
ATOM     22  C   UNL     1      -3.665   0.375  24.149  0.00  0.00    +0.099 C 
BRANCH  22  23
ATOM     23  C   UNL     1      -3.750  -0.435  24.275  0.00  0.00    -0.006 A 
ATOM     24  C   UNL     1      -4.116  -0.906  23.705  0.00  0.00    +0.000 A 
ATOM     25  C   UNL     1      -4.202  -1.717  23.832  0.00  0.00    +0.037 A 
ATOM     26  C   UNL     1      -3.921  -2.057  24.529  0.00  0.00    +0.139 A 
ATOM     29  C   UNL     1      -3.555  -1.586  25.099  0.00  0.00    +0.037 A 
ATOM     30  C   UNL     1      -3.469  -0.776  24.972  0.00  0.00    +0.000 A 
BRANCH  26  27
ATOM     27  O   UNL     1      -4.007  -2.868  24.656  0.00  0.00    -0.471 OA
ATOM     28  C   UNL     1      -3.377  -3.378  24.500  0.00  0.00    +0.252 C 
ENDBRANCH  26  27
ENDBRANCH  22  23
ENDBRANCH  21  22
ENDBRANCH  15  17
TORSDOF 9
ENDMDL
MODEL 6
REMARK VINA RESULT:      -7.4      1.771      2.881
REMARK  Name = 
REMARK  9 active torsions:
REMARK  status: ('A' for Active; 'I' for Inactive)
REMARK    1  A    between atoms: O_2  and  C_3
REMARK    2  A    between atoms: C_3  and  C_4
REMARK    3  A    between atoms: C_4  and  N_5
REMARK    4  A    between atoms: N_5  and  C_6
REMARK    5  A    between atoms: C_9  and  C_12
REMARK    6  A    between atoms: C_15  and  C_17
REMARK    7  A    between atoms: N_21  and  C_22
REMARK    8  A    between atoms: C_22  and  C_23
REMARK    9  A    between atoms: C_26  and  O_27
REMARK                            x       y       z     vdW  Elec       q    Type
REMARK                         _______ _______ _______ _____ _____    ______ ____
ROOT
ATOM     12  C   UNL     1      -0.020   1.164  23.988  0.00  0.00    +0.205 A 
ATOM     13  N   UNL     1      -0.127   1.619  24.668  0.00  0.00    -0.056 NA
ATOM     14  O   UNL     1      -0.938   1.683  24.807  0.00  0.00    -0.336 OA
ATOM     15  C   UNL     1      -1.332   1.266  24.213  0.00  0.00    +0.251 A 
ATOM     16  N   UNL     1      -0.764   0.946  23.707  0.00  0.00    -0.190 NA
ENDROOT
BRANCH  12   9
ATOM      6  C   UNL     1       2.154   0.559  22.971  0.00  0.00    +0.148 A 
ATOM      7  C   UNL     1       1.508   0.051  22.898  0.00  0.00    +0.036 A 
ATOM      8  C   UNL     1       0.784   0.253  23.237  0.00  0.00    +0.008 A 
ATOM      9  C   UNL     1       0.705   0.962  23.649  0.00  0.00    +0.058 A 
ATOM     10  C   UNL     1       1.350   1.471  23.723  0.00  0.00    +0.103 A 
ATOM     11  N   UNL     1       2.075   1.269  23.384  0.00  0.00    -0.228 NA
BRANCH   6   5
ATOM      5  N   UNL     1       2.879   0.357  22.632  0.00  0.00    -0.218 NA
BRANCH   5   4
ATOM      4  C   UNL     1       3.580   0.651  22.953  0.00  0.00    +0.146 C 
BRANCH   4   3
ATOM      3  C   UNL     1       4.299   0.291  22.771  0.00  0.00    +0.166 C 
BRANCH   3   2
ATOM      1  C   UNL     1       5.538   0.010  23.426  0.00  0.00    +0.174 C 
ATOM      2  O   UNL     1       4.995   0.554  23.127  0.00  0.00    -0.349 OA
ENDBRANCH   3   2
ENDBRANCH   4   3
ENDBRANCH   5   4
ENDBRANCH   6   5
ENDBRANCH  12   9
BRANCH  15  17
ATOM     17  C   UNL     1      -2.149   1.184  24.138  0.00  0.00    +0.138 C 
ATOM     18  C   UNL     1      -2.642   1.653  23.672  0.00  0.00    +0.027 C 
ATOM     19  C   UNL     1      -3.415   1.379  23.761  0.00  0.00    +0.019 C 
ATOM     20  C   UNL     1      -3.399   0.740  24.283  0.00  0.00    +0.073 C 
ATOM     21  N   UNL     1      -2.617   0.620  24.516  0.00  0.00    -0.263 NA
BRANCH  21  22
ATOM     22  C   UNL     1      -2.349   0.037  25.036  0.00  0.00    +0.099 C 
BRANCH  22  23
ATOM     23  C   UNL     1      -2.698  -0.710  25.033  0.00  0.00    -0.006 A 
ATOM     24  C   UNL     1      -3.314  -0.879  25.555  0.00  0.00    +0.000 A 
ATOM     25  C   UNL     1      -3.663  -1.627  25.553  0.00  0.00    +0.037 A 
ATOM     26  C   UNL     1      -3.396  -2.205  25.028  0.00  0.00    +0.139 A 
ATOM     29  C   UNL     1      -2.781  -2.035  24.506  0.00  0.00    +0.037 A 
ATOM     30  C   UNL     1      -2.432  -1.288  24.508  0.00  0.00    +0.000 A 
BRANCH  26  27
ATOM     27  O   UNL     1      -3.746  -2.953  25.025  0.00  0.00    -0.471 OA
ATOM     28  C   UNL     1      -3.868  -3.348  24.311  0.00  0.00    +0.252 C 
ENDBRANCH  26  27
ENDBRANCH  22  23
ENDBRANCH  21  22
ENDBRANCH  15  17
TORSDOF 9
ENDMDL
MODEL 7
REMARK VINA RESULT:      -7.2      2.111      2.449
REMARK  Name = 
REMARK  9 active torsions:
REMARK  status: ('A' for Active; 'I' for Inactive)
REMARK    1  A    between atoms: O_2  and  C_3
REMARK    2  A    between atoms: C_3  and  C_4
REMARK    3  A    between atoms: C_4  and  N_5
REMARK    4  A    between atoms: N_5  and  C_6
REMARK    5  A    between atoms: C_9  and  C_12
REMARK    6  A    between atoms: C_15  and  C_17
REMARK    7  A    between atoms: N_21  and  C_22
REMARK    8  A    between atoms: C_22  and  C_23
REMARK    9  A    between atoms: C_26  and  O_27
REMARK                            x       y       z     vdW  Elec       q    Type
REMARK                         _______ _______ _______ _____ _____    ______ ____
ROOT
ATOM     12  C   UNL     1      -0.303   0.328  23.842  0.00  0.00    +0.205 A 
ATOM     13  N   UNL     1      -0.595  -0.200  24.406  0.00  0.00    -0.056 NA
ATOM     14  O   UNL     1      -1.367   0.026  24.591  0.00  0.00    -0.336 OA
ATOM     15  C   UNL     1      -1.552   0.692  24.141  0.00  0.00    +0.251 A 
ATOM     16  N   UNL     1      -0.895   0.879  23.678  0.00  0.00    -0.190 NA
ENDROOT
BRANCH  12   9
ATOM      6  C   UNL     1       1.950   0.266  22.820  0.00  0.00    +0.148 A 
ATOM      7  C   UNL     1       1.405  -0.330  22.654  0.00  0.00    +0.036 A 
ATOM      8  C   UNL     1       0.654  -0.309  22.994  0.00  0.00    +0.008 A 
ATOM      9  C   UNL     1       0.448   0.307  23.501  0.00  0.00    +0.058 A 
ATOM     10  C   UNL     1       0.993   0.904  23.669  0.00  0.00    +0.103 A 
ATOM     11  N   UNL     1       1.744   0.883  23.328  0.00  0.00    -0.228 NA
BRANCH   6   5
ATOM      5  N   UNL     1       2.701   0.245  22.480  0.00  0.00    -0.218 NA
BRANCH   5   4
ATOM      4  C   UNL     1       3.358   0.493  22.915  0.00  0.00    +0.146 C 
BRANCH   4   3
ATOM      3  C   UNL     1       4.119   0.339  22.636  0.00  0.00    +0.166 C 
BRANCH   3   2
ATOM      1  C   UNL     1       5.331   0.159  23.371  0.00  0.00    +0.174 C 
ATOM      2  O   UNL     1       4.773   0.657  23.023  0.00  0.00    -0.349 OA
ENDBRANCH   3   2
ENDBRANCH   4   3
ENDBRANCH   5   4
ENDBRANCH   6   5
ENDBRANCH  12   9
BRANCH  15  17
ATOM     17  C   UNL     1      -2.269   1.101  24.152  0.00  0.00    +0.138 C 
ATOM     18  C   UNL     1      -2.934   0.926  23.696  0.00  0.00    +0.027 C 
ATOM     19  C   UNL     1      -3.522   1.472  23.882  0.00  0.00    +0.019 C 
ATOM     20  C   UNL     1      -3.221   1.986  24.454  0.00  0.00    +0.073 C 
ATOM     21  N   UNL     1      -2.446   1.756  24.620  0.00  0.00    -0.263 NA
BRANCH  21  22
ATOM     22  C   UNL     1      -1.939   2.119  25.160  0.00  0.00    +0.099 C 
BRANCH  22  23
ATOM     23  C   UNL     1      -1.942   2.939  25.243  0.00  0.00    -0.006 A 
ATOM     24  C   UNL     1      -1.429   3.401  24.792  0.00  0.00    +0.000 A 
ATOM     25  C   UNL     1      -1.432   4.222  24.874  0.00  0.00    +0.037 A 
ATOM     26  C   UNL     1      -1.948   4.581  25.409  0.00  0.00    +0.139 A 
ATOM     29  C   UNL     1      -2.460   4.118  25.861  0.00  0.00    +0.037 A 
ATOM     30  C   UNL     1      -2.458   3.298  25.778  0.00  0.00    +0.000 A 
BRANCH  26  27
ATOM     27  O   UNL     1      -1.951   5.402  25.492  0.00  0.00    -0.471 OA
ATOM     28  C   UNL     1      -1.459   5.865  25.018  0.00  0.00    +0.252 C 
ENDBRANCH  26  27
ENDBRANCH  22  23
ENDBRANCH  21  22
ENDBRANCH  15  17
TORSDOF 9
ENDMDL
MODEL 8
REMARK VINA RESULT:      -7.0      2.018      5.608
REMARK  Name = 
REMARK  9 active torsions:
REMARK  status: ('A' for Active; 'I' for Inactive)
REMARK    1  A    between atoms: O_2  and  C_3
REMARK    2  A    between atoms: C_3  and  C_4
REMARK    3  A    between atoms: C_4  and  N_5
REMARK    4  A    between atoms: N_5  and  C_6
REMARK    5  A    between atoms: C_9  and  C_12
REMARK    6  A    between atoms: C_15  and  C_17
REMARK    7  A    between atoms: N_21  and  C_22
REMARK    8  A    between atoms: C_22  and  C_23
REMARK    9  A    between atoms: C_26  and  O_27
REMARK                            x       y       z     vdW  Elec       q    Type
REMARK                         _______ _______ _______ _____ _____    ______ ____
ROOT
ATOM     12  C   UNL     1      -1.064   2.279  24.848  0.00  0.00    +0.205 A 
ATOM     13  N   UNL     1      -0.304   2.412  25.142  0.00  0.00    -0.056 NA
ATOM     14  O   UNL     1       0.184   1.804  24.873  0.00  0.00    -0.336 OA
ATOM     15  C   UNL     1      -0.274   1.295  24.412  0.00  0.00    +0.251 A 
ATOM     16  N   UNL     1      -1.045   1.588  24.397  0.00  0.00    -0.190 NA
ENDROOT
BRANCH  12   9
ATOM      6  C   UNL     1      -3.050   3.701  25.248  0.00  0.00    +0.148 A 
ATOM      7  C   UNL     1      -2.468   3.631  25.828  0.00  0.00    +0.036 A 
ATOM      8  C   UNL     1      -1.806   3.157  25.695  0.00  0.00    +0.008 A 
ATOM      9  C   UNL     1      -1.726   2.753  24.981  0.00  0.00    +0.058 A 
ATOM     10  C   UNL     1      -2.307   2.822  24.399  0.00  0.00    +0.103 A 
ATOM     11  N   UNL     1      -2.969   3.296  24.533  0.00  0.00    -0.228 NA
BRANCH   6   5
ATOM      5  N   UNL     1      -3.711   4.175  25.381  0.00  0.00    -0.218 NA
BRANCH   5   4
ATOM      4  C   UNL     1      -4.407   3.839  25.672  0.00  0.00    +0.146 C 
BRANCH   4   3
ATOM      3  C   UNL     1      -5.139   4.131  25.427  0.00  0.00    +0.166 C 
BRANCH   3   2
ATOM      1  C   UNL     1      -6.118   3.130  25.713  0.00  0.00    +0.174 C 
ATOM      2  O   UNL     1      -5.828   3.895  25.815  0.00  0.00    -0.349 OA
ENDBRANCH   3   2
ENDBRANCH   4   3
ENDBRANCH   5   4
ENDBRANCH   6   5
ENDBRANCH  12   9
BRANCH  15  17
ATOM     17  C   UNL     1      -0.007   0.612  24.034  0.00  0.00    +0.138 C 
ATOM     18  C   UNL     1       0.500   0.585  23.383  0.00  0.00    +0.027 C 
ATOM     19  C   UNL     1       0.619  -0.207  23.186  0.00  0.00    +0.019 C 
ATOM     20  C   UNL     1       0.186  -0.670  23.715  0.00  0.00    +0.073 C 
ATOM     21  N   UNL     1      -0.201  -0.163  24.239  0.00  0.00    -0.263 NA
BRANCH  21  22
ATOM     22  C   UNL     1      -0.695  -0.392  24.858  0.00  0.00    +0.099 C 
BRANCH  22  23
ATOM     23  C   UNL     1      -1.195  -1.042  24.769  0.00  0.00    -0.006 A 
ATOM     24  C   UNL     1      -0.905  -1.805  24.886  0.00  0.00    +0.000 A 
ATOM     25  C   UNL     1      -1.405  -2.455  24.796  0.00  0.00    +0.037 A 
ATOM     26  C   UNL     1      -2.196  -2.341  24.591  0.00  0.00    +0.139 A 
ATOM     29  C   UNL     1      -2.486  -1.578  24.474  0.00  0.00    +0.037 A 
ATOM     30  C   UNL     1      -1.986  -0.928  24.563  0.00  0.00    +0.000 A 
BRANCH  26  27
ATOM     27  O   UNL     1      -2.696  -2.992  24.501  0.00  0.00    -0.471 OA
ATOM     28  C   UNL     1      -3.514  -2.884  24.496  0.00  0.00    +0.252 C 
ENDBRANCH  26  27
ENDBRANCH  22  23
ENDBRANCH  21  22
ENDBRANCH  15  17
TORSDOF 9
ENDMDL
MODEL 9
REMARK VINA RESULT:      -5.7      1.721      6.822
REMARK  Name = 
REMARK  9 active torsions:
REMARK  status: ('A' for Active; 'I' for Inactive)
REMARK    1  A    between atoms: O_2  and  C_3
REMARK    2  A    between atoms: C_3  and  C_4
REMARK    3  A    between atoms: C_4  and  N_5
REMARK    4  A    between atoms: N_5  and  C_6
REMARK    5  A    between atoms: C_9  and  C_12
REMARK    6  A    between atoms: C_15  and  C_17
REMARK    7  A    between atoms: N_21  and  C_22
REMARK    8  A    between atoms: C_22  and  C_23
REMARK    9  A    between atoms: C_26  and  O_27
REMARK                            x       y       z     vdW  Elec       q    Type
REMARK                         _______ _______ _______ _____ _____    ______ ____
ROOT
ATOM     12  C   UNL     1      -0.343   0.568  24.038  0.00  0.00    +0.205 A 
ATOM     13  N   UNL     1      -0.121  -0.155  24.368  0.00  0.00    -0.056 NA
ATOM     14  O   UNL     1       0.421  -0.512  23.858  0.00  0.00    -0.336 OA
ATOM     15  C   UNL     1       0.534  -0.009  23.213  0.00  0.00    +0.251 A 
ATOM     16  N   UNL     1       0.062   0.658  23.325  0.00  0.00    -0.190 NA
ENDROOT
BRANCH  12   9
ATOM      6  C   UNL     1      -1.943   2.182  25.019  0.00  0.00    +0.148 A 
ATOM      7  C   UNL     1      -1.135   2.346  25.025  0.00  0.00    +0.036 A 
ATOM      8  C   UNL     1      -0.601   1.808  24.698  0.00  0.00    +0.008 A 
ATOM      9  C   UNL     1      -0.876   1.106  24.365  0.00  0.00    +0.058 A 
ATOM     10  C   UNL     1      -1.685   0.941  24.358  0.00  0.00    +0.103 A 
ATOM     11  N   UNL     1      -2.218   1.479  24.685  0.00  0.00    -0.228 NA
BRANCH   6   5
ATOM      5  N   UNL     1      -2.476   2.720  25.345  0.00  0.00    -0.218 NA
BRANCH   5   4
ATOM      4  C   UNL     1      -3.194   2.871  24.966  0.00  0.00    +0.146 C 
BRANCH   4   3
ATOM      3  C   UNL     1      -3.738   3.389  25.306  0.00  0.00    +0.166 C 
BRANCH   3   2
ATOM      1  C   UNL     1      -5.113   3.744  25.471  0.00  0.00    +0.174 C 
ATOM      2  O   UNL     1      -4.504   3.441  25.004  0.00  0.00    -0.349 OA
ENDBRANCH   3   2
ENDBRANCH   4   3
ENDBRANCH   5   4
ENDBRANCH   6   5
ENDBRANCH  12   9
BRANCH  15  17
ATOM     17  C   UNL     1       1.032  -0.148  22.571  0.00  0.00    +0.138 C 
ATOM     18  C   UNL     1       0.809  -0.478  21.848  0.00  0.00    +0.027 C 
ATOM     19  C   UNL     1       1.478  -0.516  21.367  0.00  0.00    +0.019 C 
ATOM     20  C   UNL     1       2.115  -0.209  21.793  0.00  0.00    +0.073 C 
ATOM     21  N   UNL     1       1.839   0.018  22.537  0.00  0.00    -0.263 NA
BRANCH  21  22
ATOM     22  C   UNL     1       2.291   0.353  23.140  0.00  0.00    +0.099 C 
BRANCH  22  23
ATOM     23  C   UNL     1       3.114   0.306  23.114  0.00  0.00    -0.006 A 
ATOM     24  C   UNL     1       3.555   0.949  22.847  0.00  0.00    +0.000 A 
ATOM     25  C   UNL     1       4.379   0.902  22.820  0.00  0.00    +0.037 A 
ATOM     26  C   UNL     1       4.760   0.212  23.062  0.00  0.00    +0.139 A 
ATOM     29  C   UNL     1       4.319  -0.431  23.329  0.00  0.00    +0.037 A 
ATOM     30  C   UNL     1       3.496  -0.385  23.356  0.00  0.00    +0.000 A 
BRANCH  26  27
ATOM     27  O   UNL     1       5.584   0.165  23.036  0.00  0.00    -0.471 OA
ATOM     28  C   UNL     1       6.019   0.174  23.737  0.00  0.00    +0.252 C 
ENDBRANCH  26  27
ENDBRANCH  22  23
ENDBRANCH  21  22
ENDBRANCH  15  17
TORSDOF 9
ENDMDL
MODEL 10
REMARK VINA RESULT:      -5.4      1.447      6.349
REMARK  Name = 
REMARK  9 active torsions:
REMARK  status: ('A' for Active; 'I' for Inactive)
REMARK    1  A    between atoms: O_2  and  C_3
REMARK    2  A    between atoms: C_3  and  C_4
REMARK    3  A    between atoms: C_4  and  N_5
REMARK    4  A    between atoms: N_5  and  C_6
REMARK    5  A    between atoms: C_9  and  C_12
REMARK    6  A    between atoms: C_15  and  C_17
REMARK    7  A    between atoms: N_21  and  C_22
REMARK    8  A    between atoms: C_22  and  C_23
REMARK    9  A    between atoms: C_26  and  O_27
REMARK                            x       y       z     vdW  Elec       q    Type
REMARK                         _______ _______ _______ _____ _____    ______ ____
ROOT
ATOM     12  C   UNL     1      -1.989   1.216  25.080  0.00  0.00    +0.205 A 
ATOM     13  N   UNL     1      -1.360   1.419  25.576  0.00  0.00    -0.056 NA
ATOM     14  O   UNL     1      -0.775   0.843  25.493  0.00  0.00    -0.336 OA
ATOM     15  C   UNL     1      -1.042   0.285  24.947  0.00  0.00    +0.251 A 
ATOM     16  N   UNL     1      -1.792   0.516  24.692  0.00  0.00    -0.190 NA
ENDROOT
BRANCH  12   9
ATOM      6  C   UNL     1      -4.094   2.489  24.808  0.00  0.00    +0.148 A 
ATOM      7  C   UNL     1      -3.369   2.854  24.662  0.00  0.00    +0.036 A 
ATOM      8  C   UNL     1      -2.667   2.430  24.753  0.00  0.00    +0.008 A 
ATOM      9  C   UNL     1      -2.691   1.640  24.989  0.00  0.00    +0.058 A 
ATOM     10  C   UNL     1      -3.415   1.274  25.135  0.00  0.00    +0.103 A 
ATOM     11  N   UNL     1      -4.117   1.698  25.044  0.00  0.00    -0.228 NA
BRANCH   6   5
ATOM      5  N   UNL     1      -4.796   2.913  24.717  0.00  0.00    -0.218 NA
BRANCH   5   4
ATOM      4  C   UNL     1      -5.056   3.413  25.320  0.00  0.00    +0.146 C 
BRANCH   4   3
ATOM      3  C   UNL     1      -5.693   3.920  25.188  0.00  0.00    +0.166 C 
BRANCH   3   2
ATOM      1  C   UNL     1      -6.250   5.155  25.644  0.00  0.00    +0.174 C 
ATOM      2  O   UNL     1      -5.980   4.391  25.801  0.00  0.00    -0.349 OA
ENDBRANCH   3   2
ENDBRANCH   4   3
ENDBRANCH   5   4
ENDBRANCH   6   5
ENDBRANCH  12   9
BRANCH  15  17
ATOM     17  C   UNL     1      -0.631  -0.386  24.699  0.00  0.00    +0.138 C 
ATOM     18  C   UNL     1      -0.680  -1.137  25.038  0.00  0.00    +0.027 C 
ATOM     19  C   UNL     1      -0.179  -1.640  24.618  0.00  0.00    +0.019 C 
ATOM     20  C   UNL     1       0.181  -1.199  24.019  0.00  0.00    +0.073 C 
ATOM     21  N   UNL     1      -0.099  -0.424  24.070  0.00  0.00    -0.263 NA
BRANCH  21  22
ATOM     22  C   UNL     1       0.116   0.201  23.578  0.00  0.00    +0.099 C 
BRANCH  22  23
ATOM     23  C   UNL     1       0.864   0.216  23.231  0.00  0.00    -0.006 A 
ATOM     24  C   UNL     1       1.467   0.666  23.568  0.00  0.00    +0.000 A 
ATOM     25  C   UNL     1       2.216   0.680  23.221  0.00  0.00    +0.037 A 
ATOM     26  C   UNL     1       2.360   0.243  22.536  0.00  0.00    +0.139 A 
ATOM     29  C   UNL     1       1.757  -0.207  22.198  0.00  0.00    +0.037 A 
ATOM     30  C   UNL     1       1.009  -0.221  22.545  0.00  0.00    +0.000 A 
BRANCH  26  27
ATOM     27  O   UNL     1       3.109   0.258  22.189  0.00  0.00    -0.471 OA
ATOM     28  C   UNL     1       3.744   0.596  22.592  0.00  0.00    +0.252 C 
ENDBRANCH  26  27
ENDBRANCH  22  23
ENDBRANCH  21  22
ENDBRANCH  15  17
TORSDOF 9
ENDMDL
