MODEL 1
REMARK VINA RESULT:      -8.5      0.000      0.000
REMARK  Name = 
REMARK  9 active torsions:
REMARK  status: ('A' for Active; 'I' for Inactive)
REMARK    1  A    between atoms: O_2  and  C_3
REMARK    2  A    between atoms: C_6  and  C_11
REMARK    3  A    between atoms: C_8  and  O_9
REMARK    4  A    between atoms: C_15  and  C_17
REMARK    5  A    between atoms: C_24  and  C_25
REMARK    6  A    between atoms: C_25  and  O_26
REMARK    7  A    between atoms: O_26  and  C_27
REMARK    8  A    between atoms: N_29  and  C_30
REMARK    9  A    between atoms: C_33  and  C_36
REMARK                            x       y       z     vdW  Elec       q    Type
REMARK                         _______ _______ _______ _____ _____    ______ ____
ROOT
ATOM     17  C   UNL     1      -1.780   1.700  23.781  0.00  0.00    +0.056 C 
ATOM     18  C   UNL     1      -1.298   2.302  23.679  0.00  0.00    +0.078 C 
ATOM     19  N   UNL     1      -1.078   1.510  23.759  0.00  0.00    -0.270 NA
ATOM     20  C   UNL     1      -1.959   0.955  23.881  0.00  0.00    +0.072 C 
ATOM     21  C   UNL     1      -2.263   0.384  23.968  0.00  0.00    +0.018 C 
ATOM     22  C   UNL     1      -1.557   0.925  23.859  0.00  0.00    +0.010 C 
ATOM     23  C   UNL     1      -0.770   0.537  23.855  0.00  0.00    +0.020 C 
ATOM     24  C   UNL     1      -0.263   1.100  23.756  0.00  0.00    +0.102 C 
ENDROOT
BRANCH  17  15
ATOM     11  C   UNL     1      -3.833   2.031  24.264  0.00  0.00    +0.102 A 
ATOM     12  N   UNL     1      -3.830   2.202  23.458  0.00  0.00    -0.170 NA
ATOM     13  N   UNL     1      -3.061   2.099  23.179  0.00  0.00    -0.253 N 
ATOM     14  C   UNL     1      -2.807   2.211  22.401  0.00  0.00    +0.153 C 
ATOM     15  C   UNL     1      -2.589   1.864  23.813  0.00  0.00    +0.058 A 
ATOM     16  C   UNL     1      -3.066   1.822  24.484  0.00  0.00    +0.035 A 
BRANCH  11   6
ATOM      3  C   UNL     1      -5.800   2.128  25.764  0.00  0.00    +0.172 A 
ATOM      4  C   UNL     1      -5.547   1.403  25.462  0.00  0.00    +0.040 A 
ATOM      5  C   UNL     1      -4.891   1.371  24.962  0.00  0.00    +0.005 A 
ATOM      6  C   UNL     1      -4.489   2.063  24.764  0.00  0.00    +0.023 A 
ATOM      7  C   UNL     1      -4.742   2.788  25.065  0.00  0.00    +0.042 A 
ATOM      8  C   UNL     1      -5.399   2.821  25.566  0.00  0.00    +0.172 A 
BRANCH   3   2
ATOM      1  C   UNL     1      -6.601   1.545  26.793  0.00  0.00    +0.253 C 
ATOM      2  O   UNL     1      -6.456   2.161  26.263  0.00  0.00    -0.468 OA
ENDBRANCH   3   2
BRANCH   8   9
ATOM      9  O   UNL     1      -5.652   3.546  25.867  0.00  0.00    -0.468 OA
ATOM     10  C   UNL     1      -5.393   4.249  25.522  0.00  0.00    +0.253 C 
ENDBRANCH   8   9
ENDBRANCH  11   6
ENDBRANCH  17  15
BRANCH  24  25
ATOM     25  C   UNL     1       0.545   1.248  23.688  0.00  0.00    +0.226 C 
BRANCH  25  26
ATOM     26  O   UNL     1       1.012   0.771  23.203  0.00  0.00    -0.432 OA
BRANCH  26  27
ATOM     27  C   UNL     1       1.826   0.731  23.324  0.00  0.00    +0.425 C 
ATOM     28  O   UNL     1       2.180   1.199  23.905  0.00  0.00    -0.224 OA
ATOM     29  N   UNL     1       2.288   0.224  22.866  0.00  0.00    -0.142 NA
BRANCH  29  30
ATOM     30  C   UNL     1       3.104   0.186  22.987  0.00  0.00    +0.077 A 
ATOM     31  C   UNL     1       3.434  -0.472  23.360  0.00  0.00    +0.016 A 
ATOM     32  C   UNL     1       4.249  -0.511  23.482  0.00  0.00    -0.003 A 
ATOM     33  C   UNL     1       4.734   0.108  23.231  0.00  0.00    -0.022 A 
ATOM     34  C   UNL     1       4.404   0.765  22.858  0.00  0.00    -0.003 A 
ATOM     35  C   UNL     1       3.588   0.804  22.737  0.00  0.00    +0.016 A 
BRANCH  33  36
ATOM     36  C   UNL     1       5.549   0.068  23.353  0.00  0.00    +0.022 C 
ATOM     37  C   UNL     1       6.035  -0.281  22.785  0.00  0.00    +0.005 C 
ATOM     38  C   UNL     1       5.877   0.378  24.044  0.00  0.00    +0.005 C 
ENDBRANCH  33  36
ENDBRANCH  29  30
ENDBRANCH  26  27
ENDBRANCH  25  26
ENDBRANCH  24  25
TORSDOF 9
ENDMDL
MODEL 2
REMARK VINA RESULT:      -6.9      1.384      2.040
REMARK  Name = 
REMARK  9 active torsions:
REMARK  status: ('A' for Active; 'I' for Inactive)
REMARK    1  A    between atoms: O_2  and  C_3
REMARK    2  A    between atoms: C_6  and  C_11
REMARK    3  A    between atoms: C_8  and  O_9
REMARK    4  A    between atoms: C_15  and  C_17
REMARK    5  A    between atoms: C_24  and  C_25
REMARK    6  A    between atoms: C_25  and  O_26
REMARK    7  A    between atoms: O_26  and  C_27
REMARK    8  A    between atoms: N_29  and  C_30
REMARK    9  A    between atoms: C_33  and  C_36
REMARK                            x       y       z     vdW  Elec       q    Type
REMARK                         _______ _______ _______ _____ _____    ______ ____
ROOT
ATOM     17  C   UNL     1      -2.664  -0.108  24.471  0.00  0.00    +0.056 C 
ATOM     18  C   UNL     1      -2.332  -0.084  23.767  0.00  0.00    +0.078 C 
ATOM     19  N   UNL     1      -2.007  -0.417  24.449  0.00  0.00    -0.270 NA
ATOM     20  C   UNL     1      -2.703  -0.284  25.221  0.00  0.00    +0.072 C 
ATOM     21  C   UNL     1      -2.881  -0.361  25.845  0.00  0.00    +0.018 C 
ATOM     22  C   UNL     1      -2.338  -0.436  25.135  0.00  0.00    +0.010 C 
ATOM     23  C   UNL     1      -1.572  -0.840  25.276  0.00  0.00    +0.020 C 
ATOM     24  C   UNL     1      -1.212  -0.838  24.603  0.00  0.00    +0.102 C 
ENDROOT
BRANCH  17  15
ATOM     11  C   UNL     1      -4.395   1.094  24.820  0.00  0.00    +0.102 A 
ATOM     12  N   UNL     1      -4.736   0.411  24.507  0.00  0.00    -0.170 NA
ATOM     13  N   UNL     1      -4.129  -0.122  24.338  0.00  0.00    -0.253 N 
ATOM     14  C   UNL     1      -4.221  -0.876  24.017  0.00  0.00    +0.153 C 
ATOM     15  C   UNL     1      -3.414   0.232  24.547  0.00  0.00    +0.058 A 
ATOM     16  C   UNL     1      -3.577   0.983  24.845  0.00  0.00    +0.035 A 
BRANCH  11   6
ATOM      3  C   UNL     1      -5.611   3.120  25.557  0.00  0.00    +0.172 A 
ATOM      4  C   UNL     1      -5.081   3.164  24.927  0.00  0.00    +0.040 A 
ATOM      5  C   UNL     1      -4.675   2.488  24.681  0.00  0.00    +0.005 A 
ATOM      6  C   UNL     1      -4.800   1.769  25.065  0.00  0.00    +0.023 A 
ATOM      7  C   UNL     1      -5.331   1.725  25.695  0.00  0.00    +0.042 A 
ATOM      8  C   UNL     1      -5.737   2.401  25.941  0.00  0.00    +0.172 A 
BRANCH   3   2
ATOM      1  C   UNL     1      -5.797   4.536  25.512  0.00  0.00    +0.253 C 
ATOM      2  O   UNL     1      -6.017   3.795  25.802  0.00  0.00    -0.468 OA
ENDBRANCH   3   2
BRANCH   8   9
ATOM      9  O   UNL     1      -6.267   2.357  26.572  0.00  0.00    -0.468 OA
ATOM     10  C   UNL     1      -6.613   1.635  26.770  0.00  0.00    +0.253 C 
ENDBRANCH   8   9
ENDBRANCH  11   6
ENDBRANCH  17  15
BRANCH  24  25
ATOM     25  C   UNL     1      -0.515  -1.076  24.233  0.00  0.00    +0.226 C 
BRANCH  25  26
ATOM     26  O   UNL     1      -0.225  -0.651  23.588  0.00  0.00    -0.432 OA
BRANCH  26  27
ATOM     27  C   UNL     1       0.583  -0.495  23.526  0.00  0.00    +0.425 C 
ATOM     28  O   UNL     1       1.117  -0.881  24.022  0.00  0.00    -0.224 OA
ATOM     29  N   UNL     1       0.857   0.048  22.968  0.00  0.00    -0.142 NA
BRANCH  29  30
ATOM     30  C   UNL     1       1.665   0.204  22.906  0.00  0.00    +0.077 A 
ATOM     31  C   UNL     1       2.004   0.804  23.359  0.00  0.00    +0.016 A 
ATOM     32  C   UNL     1       2.812   0.960  23.298  0.00  0.00    -0.003 A 
ATOM     33  C   UNL     1       3.280   0.516  22.783  0.00  0.00    -0.022 A 
ATOM     34  C   UNL     1       2.941  -0.084  22.330  0.00  0.00    -0.003 A 
ATOM     35  C   UNL     1       2.133  -0.240  22.392  0.00  0.00    +0.016 A 
BRANCH  33  36
ATOM     36  C   UNL     1       4.088   0.673  22.722  0.00  0.00    +0.022 C 
ATOM     37  C   UNL     1       4.351   1.320  22.283  0.00  0.00    +0.005 C 
ATOM     38  C   UNL     1       4.632   0.181  23.100  0.00  0.00    +0.005 C 
ENDBRANCH  33  36
ENDBRANCH  29  30
ENDBRANCH  26  27
ENDBRANCH  25  26
ENDBRANCH  24  25
TORSDOF 9
ENDMDL
MODEL 3
REMARK VINA RESULT:      -6.5      1.503      8.144
REMARK  Name = 
REMARK  9 active torsions:
REMARK  status: ('A' for Active; 'I' for Inactive)
REMARK    1  A    between atoms: O_2  and  C_3
REMARK    2  A    between atoms: C_6  and  C_11
REMARK    3  A    between atoms: C_8  and  O_9
REMARK    4  A    between atoms: C_15  and  C_17
REMARK    5  A    between atoms: C_24  and  C_25
REMARK    6  A    between atoms: C_25  and  O_26
REMARK    7  A    between atoms: O_26  and  C_27
REMARK    8  A    between atoms: N_29  and  C_30
REMARK    9  A    between atoms: C_33  and  C_36
REMARK                            x       y       z     vdW  Elec       q    Type
REMARK                         _______ _______ _______ _____ _____    ______ ____
ROOT
ATOM     17  C   UNL     1       0.613   0.103  23.386  0.00  0.00    +0.056 C 
ATOM     18  C   UNL     1       0.158  -0.528  23.371  0.00  0.00    +0.078 C 
ATOM     19  N   UNL     1      -0.036   0.206  23.697  0.00  0.00    -0.270 NA
ATOM     20  C   UNL     1       0.790   0.836  23.554  0.00  0.00    +0.072 C 
ATOM     21  C   UNL     1       1.079   1.417  23.624  0.00  0.00    +0.018 C 
ATOM     22  C   UNL     1       0.416   0.819  23.708  0.00  0.00    +0.010 C 
ATOM     23  C   UNL     1      -0.310   1.103  24.112  0.00  0.00    +0.020 C 
ATOM     24  C   UNL     1      -0.787   0.507  24.118  0.00  0.00    +0.102 C 
ENDROOT
BRANCH  17  15
ATOM     11  C   UNL     1       2.687   0.004  22.886  0.00  0.00    +0.102 A 
ATOM     12  N   UNL     1       2.339  -0.134  22.151  0.00  0.00    -0.170 NA
ATOM     13  N   UNL     1       1.520  -0.113  22.249  0.00  0.00    -0.253 N 
ATOM     14  C   UNL     1       0.958  -0.224  21.655  0.00  0.00    +0.153 C 
ATOM     15  C   UNL     1       1.362   0.037  23.044  0.00  0.00    +0.058 A 
ATOM     16  C   UNL     1       2.083   0.109  23.439  0.00  0.00    +0.035 A 
BRANCH  11   6
ATOM      3  C   UNL     1       5.116   0.084  23.354  0.00  0.00    +0.172 A 
ATOM      4  C   UNL     1       4.747   0.721  22.981  0.00  0.00    +0.040 A 
ATOM      5  C   UNL     1       3.937   0.693  22.825  0.00  0.00    +0.005 A 
ATOM      6  C   UNL     1       3.497   0.031  23.042  0.00  0.00    +0.023 A 
ATOM      7  C   UNL     1       3.866  -0.606  23.415  0.00  0.00    +0.042 A 
ATOM      8  C   UNL     1       4.677  -0.579  23.571  0.00  0.00    +0.172 A 
BRANCH   3   2
ATOM      1  C   UNL     1       6.268   0.807  23.794  0.00  0.00    +0.253 C 
ATOM      2  O   UNL     1       5.926   0.111  23.509  0.00  0.00    -0.468 OA
ENDBRANCH   3   2
BRANCH   8   9
ATOM      9  O   UNL     1       5.046  -1.215  23.944  0.00  0.00    -0.468 OA
ATOM     10  C   UNL     1       4.698  -1.963  23.925  0.00  0.00    +0.253 C 
ENDBRANCH   8   9
ENDBRANCH  11   6
ENDBRANCH  17  15
BRANCH  24  25
ATOM     25  C   UNL     1      -1.539   0.274  24.362  0.00  0.00    +0.226 C 
BRANCH  25  26
ATOM     26  O   UNL     1      -2.206   0.550  23.962  0.00  0.00    -0.432 OA
BRANCH  26  27
ATOM     27  C   UNL     1      -2.852   0.839  24.386  0.00  0.00    +0.425 C 
ATOM     28  O   UNL     1      -3.042   0.514  25.120  0.00  0.00    -0.224 OA
ATOM     29  N   UNL     1      -3.308   1.453  24.076  0.00  0.00    -0.142 NA
BRANCH  29  30
ATOM     30  C   UNL     1      -3.954   1.742  24.501  0.00  0.00    +0.077 A 
ATOM     31  C   UNL     1      -4.657   1.311  24.525  0.00  0.00    +0.016 A 
ATOM     32  C   UNL     1      -5.303   1.600  24.949  0.00  0.00    -0.003 A 
ATOM     33  C   UNL     1      -5.246   2.319  25.350  0.00  0.00    -0.022 A 
ATOM     34  C   UNL     1      -4.543   2.749  25.326  0.00  0.00    -0.003 A 
ATOM     35  C   UNL     1      -3.897   2.461  24.901  0.00  0.00    +0.016 A 
BRANCH  33  36
ATOM     36  C   UNL     1      -5.892   2.607  25.774  0.00  0.00    +0.022 C 
ATOM     37  C   UNL     1      -6.339   2.096  26.243  0.00  0.00    +0.005 C 
ATOM     38  C   UNL     1      -6.091   3.406  25.728  0.00  0.00    +0.005 C 
ENDBRANCH  33  36
ENDBRANCH  29  30
ENDBRANCH  26  27
ENDBRANCH  25  26
ENDBRANCH  24  25
TORSDOF 9
ENDMDL
MODEL 4
REMARK VINA RESULT:      -5.0     16.465     17.308
REMARK  Name = 
REMARK  9 active torsions:
REMARK  status: ('A' for Active; 'I' for Inactive)
REMARK    1  A    between atoms: O_2  and  C_3
REMARK    2  A    between atoms: C_6  and  C_11
REMARK    3  A    between atoms: C_8  and  O_9
REMARK    4  A    between atoms: C_15  and  C_17
REMARK    5  A    between atoms: C_24  and  C_25
REMARK    6  A    between atoms: C_25  and  O_26
REMARK    7  A    between atoms: O_26  and  C_27
REMARK    8  A    between atoms: N_29  and  C_30
REMARK    9  A    between atoms: C_33  and  C_36
REMARK                            x       y       z     vdW  Elec       q    Type
REMARK                         _______ _______ _______ _____ _____    ______ ____
ROOT
ATOM     17  C   UNL     1      -4.173  -9.471   9.789  0.00  0.00    +0.056 C 
ATOM     18  C   UNL     1      -3.616  -9.249   9.293  0.00  0.00    +0.078 C 
ATOM     19  N   UNL     1      -3.509  -9.460  10.084  0.00  0.00    -0.270 NA
ATOM     20  C   UNL     1      -4.452  -9.707  10.469  0.00  0.00    +0.072 C 
ATOM     21  C   UNL     1      -4.830  -9.904  10.965  0.00  0.00    +0.018 C 
ATOM     22  C   UNL     1      -4.060  -9.678  10.564  0.00  0.00    +0.010 C 
ATOM     23  C   UNL     1      -3.339  -9.717  11.063  0.00  0.00    +0.020 C 
ATOM     24  C   UNL     1      -2.764  -9.503  10.609  0.00  0.00    +0.102 C 
ENDROOT
BRANCH  17  15
ATOM     11  C   UNL     1      -6.228  -9.205   9.270  0.00  0.00    +0.102 A 
ATOM     12  N   UNL     1      -6.042  -9.886   8.842  0.00  0.00    -0.170 NA
ATOM     13  N   UNL     1      -5.250 -10.068   8.985  0.00  0.00    -0.253 N 
ATOM     14  C   UNL     1      -4.835 -10.706   8.667  0.00  0.00    +0.153 C 
ATOM     15  C   UNL     1      -4.947  -9.500   9.500  0.00  0.00    +0.058 A 
ATOM     16  C   UNL     1      -5.550  -8.967   9.677  0.00  0.00    +0.035 A 
BRANCH  11   6
ATOM      3  C   UNL     1      -8.430  -8.077   9.325  0.00  0.00    +0.172 A 
ATOM      4  C   UNL     1      -7.829  -7.784   8.842  0.00  0.00    +0.040 A 
ATOM      5  C   UNL     1      -7.095  -8.161   8.824  0.00  0.00    +0.005 A 
ATOM      6  C   UNL     1      -6.961  -8.829   9.288  0.00  0.00    +0.023 A 
ATOM      7  C   UNL     1      -7.563  -9.121   9.772  0.00  0.00    +0.042 A 
ATOM      8  C   UNL     1      -8.298  -8.745   9.790  0.00  0.00    +0.172 A 
BRANCH   3   2
ATOM      1  C   UNL     1      -9.289  -7.020   8.893  0.00  0.00    +0.253 C 
ATOM      2  O   UNL     1      -9.164  -7.701   9.343  0.00  0.00    -0.468 OA
ENDBRANCH   3   2
BRANCH   8   9
ATOM      9  O   UNL     1      -8.899  -9.037  10.273  0.00  0.00    -0.468 OA
ATOM     10  C   UNL     1      -8.734  -9.627  10.825  0.00  0.00    +0.253 C 
ENDBRANCH   8   9
ENDBRANCH  11   6
ENDBRANCH  17  15
BRANCH  24  25
ATOM     25  C   UNL     1      -1.948  -9.382  10.599  0.00  0.00    +0.226 C 
BRANCH  25  26
ATOM     26  O   UNL     1      -1.540  -9.267  11.307  0.00  0.00    -0.432 OA
BRANCH  26  27
ATOM     27  C   UNL     1      -0.851  -8.814  11.317  0.00  0.00    +0.425 C 
ATOM     28  O   UNL     1      -0.449  -8.660  10.614  0.00  0.00    -0.224 OA
ATOM     29  N   UNL     1      -0.563  -8.516  12.030  0.00  0.00    -0.142 NA
BRANCH  29  30
ATOM     30  C   UNL     1       0.127  -8.063  12.040  0.00  0.00    +0.077 A 
ATOM     31  C   UNL     1       0.760  -8.266  11.552  0.00  0.00    +0.016 A 
ATOM     32  C   UNL     1       1.450  -7.813  11.561  0.00  0.00    -0.003 A 
ATOM     33  C   UNL     1       1.506  -7.158  12.059  0.00  0.00    -0.022 A 
ATOM     34  C   UNL     1       0.873  -6.955  12.547  0.00  0.00    -0.003 A 
ATOM     35  C   UNL     1       0.183  -7.407  12.538  0.00  0.00    +0.016 A 
BRANCH  33  36
ATOM     36  C   UNL     1       2.196  -6.706  12.068  0.00  0.00    +0.022 C 
ATOM     37  C   UNL     1       2.929  -7.069  11.964  0.00  0.00    +0.005 C 
ATOM     38  C   UNL     1       2.151  -5.890  12.182  0.00  0.00    +0.005 C 
ENDBRANCH  33  36
ENDBRANCH  29  30
ENDBRANCH  26  27
ENDBRANCH  25  26
ENDBRANCH  24  25
TORSDOF 9
ENDMDL
