MODEL 1
REMARK VINA RESULT:     -10.7      0.000      0.000
REMARK  Name = 
REMARK  8 active torsions:
REMARK  status: ('A' for Active; 'I' for Inactive)
REMARK    1  A    between atoms: O_2  and  C_3
REMARK    2  A    between atoms: C_6  and  C_7
REMARK    3  A    between atoms: C_7  and  N_8
REMARK    4  A    between atoms: C_9  and  C_11
REMARK    5  A    between atoms: C_11  and  C_12
REMARK    6  A    between atoms: C_12  and  C_13
REMARK    7  A    between atoms: C_20  and  N_23
REMARK    8  A    between atoms: N_26  and  C_27
REMARK                            x       y       z     vdW  Elec       q    Type
REMARK                         _______ _______ _______ _____ _____    ______ ____
ROOT
ATOM     13  C   UNL     1      -1.064   2.916  24.603  0.00  0.00    +0.080 C 
ATOM     14  C   UNL     1      -0.456   3.404  24.870  0.00  0.00    +0.131 C 
ATOM     15  N   UNL     1      -0.625   4.164  25.143  0.00  0.00    -0.203 NA
ATOM     16  C   UNL     1      -1.405   4.435  25.150  0.00  0.00    +0.256 C 
ATOM     17  O   UNL     1      -1.575   5.194  25.423  0.00  0.00    -0.272 OA
ATOM     18  C   UNL     1      -2.014   3.946  24.883  0.00  0.00    +0.138 C 
ATOM     19  C   UNL     1      -2.829   4.061  24.824  0.00  0.00    +0.049 C 
ATOM     20  C   UNL     1      -3.162   3.372  24.514  0.00  0.00    +0.115 C 
ATOM     21  C   UNL     1      -2.553   2.832  24.382  0.00  0.00    +0.094 C 
ATOM     22  N   UNL     1      -1.843   3.186  24.609  0.00  0.00    -0.265 NA
ENDROOT
BRANCH  20  23
ATOM     23  N   UNL     1      -3.963   3.247  24.364  0.00  0.00    -0.187 NA
ATOM     24  C   UNL     1      -4.397   2.734  24.843  0.00  0.00    +0.339 C 
ATOM     25  O   UNL     1      -4.029   2.346  25.472  0.00  0.00    -0.249 OA
ATOM     26  N   UNL     1      -5.198   2.608  24.693  0.00  0.00    -0.189 NA
BRANCH  26  27
ATOM     27  C   UNL     1      -5.632   2.095  25.172  0.00  0.00    +0.097 C 
ATOM     28  C   UNL     1      -6.002   2.380  25.852  0.00  0.00    +0.023 C 
ATOM     29  C   UNL     1      -5.696   1.297  24.971  0.00  0.00    +0.023 C 
ENDBRANCH  26  27
ENDBRANCH  20  23
BRANCH  13  12
ATOM     12  C   UNL     1      -0.893   2.156  24.330  0.00  0.00    +0.027 C 
BRANCH  12  11
ATOM     11  C   UNL     1      -0.481   1.627  24.810  0.00  0.00    +0.088 C 
BRANCH  11   9
ATOM      8  N   UNL     1      -0.905   0.265  24.889  0.00  0.00    -0.201 NA
ATOM      9  C   UNL     1      -0.399   0.840  24.581  0.00  0.00    +0.242 C 
ATOM     10  O   UNL     1       0.189   0.626  24.044  0.00  0.00    -0.273 OA
BRANCH   8   7
ATOM      7  C   UNL     1      -0.824  -0.524  24.660  0.00  0.00    +0.141 C 
BRANCH   7   6
ATOM      3  C   UNL     1      -2.712  -2.098  24.942  0.00  0.00    +0.139 A 
ATOM      4  C   UNL     1      -2.724  -1.366  25.324  0.00  0.00    +0.037 A 
ATOM      5  C   UNL     1      -2.094  -0.841  25.229  0.00  0.00    +0.001 A 
ATOM      6  C   UNL     1      -1.453  -1.048  24.754  0.00  0.00    -0.000 A 
ATOM     30  C   UNL     1      -1.441  -1.779  24.373  0.00  0.00    +0.001 A 
ATOM     31  C   UNL     1      -2.070  -2.304  24.466  0.00  0.00    +0.037 A 
BRANCH   3   2
ATOM      1  C   UNL     1      -3.823  -2.808  24.392  0.00  0.00    +0.252 C 
ATOM      2  O   UNL     1      -3.342  -2.622  25.036  0.00  0.00    -0.471 OA
ENDBRANCH   3   2
ENDBRANCH   7   6
ENDBRANCH   8   7
ENDBRANCH  11   9
ENDBRANCH  12  11
ENDBRANCH  13  12
TORSDOF 8
ENDMDL
MODEL 2
REMARK VINA RESULT:     -10.6      1.195      4.449
REMARK  Name = 
REMARK  8 active torsions:
REMARK  status: ('A' for Active; 'I' for Inactive)
REMARK    1  A    between atoms: O_2  and  C_3
REMARK    2  A    between atoms: C_6  and  C_7
REMARK    3  A    between atoms: C_7  and  N_8
REMARK    4  A    between atoms: C_9  and  C_11
REMARK    5  A    between atoms: C_11  and  C_12
REMARK    6  A    between atoms: C_12  and  C_13
REMARK    7  A    between atoms: C_20  and  N_23
REMARK    8  A    between atoms: N_26  and  C_27
REMARK                            x       y       z     vdW  Elec       q    Type
REMARK                         _______ _______ _______ _____ _____    ______ ____
ROOT
ATOM     13  C   UNL     1      -0.132   1.441  24.459  0.00  0.00    +0.080 C 
ATOM     14  C   UNL     1       0.467   1.660  23.936  0.00  0.00    +0.131 C 
ATOM     15  N   UNL     1       0.841   1.088  23.473  0.00  0.00    -0.203 NA
ATOM     16  C   UNL     1       0.614   0.296  23.534  0.00  0.00    +0.256 C 
ATOM     17  O   UNL     1       0.988  -0.276  23.072  0.00  0.00    -0.272 OA
ATOM     18  C   UNL     1       0.015   0.078  24.058  0.00  0.00    +0.138 C 
ATOM     19  C   UNL     1      -0.323  -0.654  24.235  0.00  0.00    +0.049 C 
ATOM     20  C   UNL     1      -0.906  -0.533  24.808  0.00  0.00    +0.115 C 
ATOM     21  C   UNL     1      -0.926   0.273  24.983  0.00  0.00    +0.094 C 
ATOM     22  N   UNL     1      -0.358   0.651  24.520  0.00  0.00    -0.265 NA
ENDROOT
BRANCH  20  23
ATOM     23  N   UNL     1      -1.382  -1.116  25.145  0.00  0.00    -0.187 NA
ATOM     24  C   UNL     1      -2.142  -1.247  24.851  0.00  0.00    +0.339 C 
ATOM     25  O   UNL     1      -2.426  -0.795  24.222  0.00  0.00    -0.249 OA
ATOM     26  N   UNL     1      -2.619  -1.830  25.188  0.00  0.00    -0.189 NA
BRANCH  26  27
ATOM     27  C   UNL     1      -3.379  -1.961  24.894  0.00  0.00    +0.097 C 
ATOM     28  C   UNL     1      -3.541  -2.643  24.459  0.00  0.00    +0.023 C 
ATOM     29  C   UNL     1      -3.977  -1.410  25.036  0.00  0.00    +0.023 C 
ENDBRANCH  26  27
ENDBRANCH  20  23
BRANCH  13  12
ATOM     12  C   UNL     1      -0.505   2.014  24.921  0.00  0.00    +0.027 C 
BRANCH  12  11
ATOM     11  C   UNL     1      -0.681   2.753  24.600  0.00  0.00    +0.088 C 
BRANCH  11   9
ATOM      8  N   UNL     1      -2.033   3.174  24.786  0.00  0.00    -0.201 NA
ATOM      9  C   UNL     1      -1.232   3.242  24.970  0.00  0.00    +0.242 C 
ATOM     10  O   UNL     1      -0.982   3.801  25.523  0.00  0.00    -0.273 OA
BRANCH   8   7
ATOM      7  C   UNL     1      -2.586   3.664  25.156  0.00  0.00    +0.141 C 
BRANCH   7   6
ATOM      3  C   UNL     1      -4.981   3.046  25.164  0.00  0.00    +0.139 A 
ATOM      4  C   UNL     1      -4.645   3.402  25.829  0.00  0.00    +0.037 A 
ATOM      5  C   UNL     1      -3.846   3.608  25.825  0.00  0.00    +0.001 A 
ATOM      6  C   UNL     1      -3.384   3.458  25.158  0.00  0.00    -0.000 A 
ATOM     30  C   UNL     1      -3.720   3.102  24.495  0.00  0.00    +0.001 A 
ATOM     31  C   UNL     1      -4.519   2.895  24.498  0.00  0.00    +0.037 A 
BRANCH   3   2
ATOM      1  C   UNL     1      -6.001   2.045  25.208  0.00  0.00    +0.252 C 
ATOM      2  O   UNL     1      -5.780   2.840  25.168  0.00  0.00    -0.471 OA
ENDBRANCH   3   2
ENDBRANCH   7   6
ENDBRANCH   8   7
ENDBRANCH  11   9
ENDBRANCH  12  11
ENDBRANCH  13  12
TORSDOF 8
ENDMDL
MODEL 3
REMARK VINA RESULT:     -10.6      1.214      3.504
REMARK  Name = 
REMARK  8 active torsions:
REMARK  status: ('A' for Active; 'I' for Inactive)
REMARK    1  A    between atoms: O_2  and  C_3
REMARK    2  A    between atoms: C_6  and  C_7
REMARK    3  A    between atoms: C_7  and  N_8
REMARK    4  A    between atoms: C_9  and  C_11
REMARK    5  A    between atoms: C_11  and  C_12
REMARK    6  A    between atoms: C_12  and  C_13
REMARK    7  A    between atoms: C_20  and  N_23
REMARK    8  A    between atoms: N_26  and  C_27
REMARK                            x       y       z     vdW  Elec       q    Type
REMARK                         _______ _______ _______ _____ _____    ______ ____
ROOT
ATOM     13  C   UNL     1      -2.527   3.437  25.427  0.00  0.00    +0.080 C 
ATOM     14  C   UNL     1      -2.680   4.246  25.381  0.00  0.00    +0.131 C 
ATOM     15  N   UNL     1      -2.070   4.771  25.199  0.00  0.00    -0.203 NA
ATOM     16  C   UNL     1      -1.307   4.486  25.063  0.00  0.00    +0.256 C 
ATOM     17  O   UNL     1      -0.698   5.011  24.881  0.00  0.00    -0.272 OA
ATOM     18  C   UNL     1      -1.155   3.677  25.108  0.00  0.00    +0.138 C 
ATOM     19  C   UNL     1      -0.465   3.238  25.002  0.00  0.00    +0.049 C 
ATOM     20  C   UNL     1      -0.648   2.442  25.118  0.00  0.00    +0.115 C 
ATOM     21  C   UNL     1      -1.452   2.389  25.297  0.00  0.00    +0.094 C 
ATOM     22  N   UNL     1      -1.766   3.152  25.290  0.00  0.00    -0.265 NA
ENDROOT
BRANCH  20  23
ATOM     23  N   UNL     1      -0.120   1.810  25.066  0.00  0.00    -0.187 NA
ATOM     24  C   UNL     1      -0.226   1.232  24.486  0.00  0.00    +0.339 C 
ATOM     25  O   UNL     1      -0.859   1.286  23.960  0.00  0.00    -0.249 OA
ATOM     26  N   UNL     1       0.303   0.601  24.433  0.00  0.00    -0.189 NA
BRANCH  26  27
ATOM     27  C   UNL     1       0.197   0.022  23.853  0.00  0.00    +0.097 C 
ATOM     28  C   UNL     1       0.551   0.112  23.114  0.00  0.00    +0.023 C 
ATOM     29  C   UNL     1      -0.262  -0.644  24.014  0.00  0.00    +0.023 C 
ENDBRANCH  26  27
ENDBRANCH  20  23
BRANCH  13  12
ATOM     12  C   UNL     1      -3.138   2.912  25.609  0.00  0.00    +0.027 C 
BRANCH  12  11
ATOM     11  C   UNL     1      -3.792   2.851  25.111  0.00  0.00    +0.088 C 
BRANCH  11   9
ATOM      8  N   UNL     1      -4.081   1.464  24.925  0.00  0.00    -0.201 NA
ATOM      9  C   UNL     1      -4.309   2.213  25.186  0.00  0.00    +0.242 C 
ATOM     10  O   UNL     1      -5.054   2.324  25.521  0.00  0.00    -0.273 OA
BRANCH   8   7
ATOM      7  C   UNL     1      -4.599   0.825  25.000  0.00  0.00    +0.141 C 
BRANCH   7   6
ATOM      3  C   UNL     1      -3.821  -1.467  24.487  0.00  0.00    +0.139 A 
ATOM      4  C   UNL     1      -4.170  -1.008  23.896  0.00  0.00    +0.037 A 
ATOM      5  C   UNL     1      -4.429  -0.244  24.068  0.00  0.00    +0.001 A 
ATOM      6  C   UNL     1      -4.339   0.061  24.829  0.00  0.00    -0.000 A 
ATOM     30  C   UNL     1      -3.991  -0.397  25.419  0.00  0.00    +0.001 A 
ATOM     31  C   UNL     1      -3.731  -1.162  25.248  0.00  0.00    +0.037 A 
BRANCH   3   2
ATOM      1  C   UNL     1      -3.396  -2.758  24.929  0.00  0.00    +0.252 C 
ATOM      2  O   UNL     1      -3.561  -2.231  24.315  0.00  0.00    -0.471 OA
ENDBRANCH   3   2
ENDBRANCH   7   6
ENDBRANCH   8   7
ENDBRANCH  11   9
ENDBRANCH  12  11
ENDBRANCH  13  12
TORSDOF 8
ENDMDL
MODEL 4
REMARK VINA RESULT:     -10.5      1.181      4.506
REMARK  Name = 
REMARK  8 active torsions:
REMARK  status: ('A' for Active; 'I' for Inactive)
REMARK    1  A    between atoms: O_2  and  C_3
REMARK    2  A    between atoms: C_6  and  C_7
REMARK    3  A    between atoms: C_7  and  N_8
REMARK    4  A    between atoms: C_9  and  C_11
REMARK    5  A    between atoms: C_11  and  C_12
REMARK    6  A    between atoms: C_12  and  C_13
REMARK    7  A    between atoms: C_20  and  N_23
REMARK    8  A    between atoms: N_26  and  C_27
REMARK                            x       y       z     vdW  Elec       q    Type
REMARK                         _______ _______ _______ _____ _____    ______ ____
ROOT
ATOM     13  C   UNL     1      -1.942  -1.122  24.450  0.00  0.00    +0.080 C 
ATOM     14  C   UNL     1      -1.691  -1.874  24.679  0.00  0.00    +0.131 C 
ATOM     15  N   UNL     1      -2.242  -2.435  24.931  0.00  0.00    -0.203 NA
ATOM     16  C   UNL     1      -3.044  -2.242  24.954  0.00  0.00    +0.256 C 
ATOM     17  O   UNL     1      -3.595  -2.802  25.206  0.00  0.00    -0.272 OA
ATOM     18  C   UNL     1      -3.295  -1.490  24.726  0.00  0.00    +0.138 C 
ATOM     19  C   UNL     1      -4.044  -1.145  24.691  0.00  0.00    +0.049 C 
ATOM     20  C   UNL     1      -3.955  -0.371  24.417  0.00  0.00    +0.115 C 
ATOM     21  C   UNL     1      -3.152  -0.239  24.283  0.00  0.00    +0.094 C 
ATOM     22  N   UNL     1      -2.744  -0.931  24.474  0.00  0.00    -0.265 NA
ENDROOT
BRANCH  20  23
ATOM     23  N   UNL     1      -4.563   0.173  24.299  0.00  0.00    -0.187 NA
ATOM     24  C   UNL     1      -4.612   0.846  24.775  0.00  0.00    +0.339 C 
ATOM     25  O   UNL     1      -4.053   0.974  25.368  0.00  0.00    -0.249 OA
ATOM     26  N   UNL     1      -5.220   1.391  24.657  0.00  0.00    -0.189 NA
BRANCH  26  27
ATOM     27  C   UNL     1      -5.269   2.064  25.132  0.00  0.00    +0.097 C 
ATOM     28  C   UNL     1      -4.838   2.739  24.936  0.00  0.00    +0.023 C 
ATOM     29  C   UNL     1      -5.748   2.061  25.804  0.00  0.00    +0.023 C 
ENDBRANCH  26  27
ENDBRANCH  20  23
BRANCH  13  12
ATOM     12  C   UNL     1      -1.390  -0.563  24.198  0.00  0.00    +0.027 C 
BRANCH  12  11
ATOM     11  C   UNL     1      -0.756  -0.361  24.684  0.00  0.00    +0.088 C 
BRANCH  11   9
ATOM      8  N   UNL     1      -0.576   1.032  24.947  0.00  0.00    -0.201 NA
ATOM      9  C   UNL     1      -0.346   0.343  24.556  0.00  0.00    +0.242 C 
ATOM     10  O   UNL     1       0.295   0.358  24.037  0.00  0.00    -0.273 OA
BRANCH   8   7
ATOM      7  C   UNL     1      -0.167   1.737  24.820  0.00  0.00    +0.141 C 
BRANCH   7   6
ATOM      3  C   UNL     1      -1.246   3.906  25.321  0.00  0.00    +0.139 A 
ATOM      4  C   UNL     1      -1.155   3.343  25.917  0.00  0.00    +0.037 A 
ATOM      5  C   UNL     1      -0.795   2.620  25.750  0.00  0.00    +0.001 A 
ATOM      6  C   UNL     1      -0.526   2.459  24.987  0.00  0.00    -0.000 A 
ATOM     30  C   UNL     1      -0.617   3.022  24.391  0.00  0.00    +0.001 A 
ATOM     31  C   UNL     1      -0.977   3.746  24.557  0.00  0.00    +0.037 A 
BRANCH   3   2
ATOM      1  C   UNL     1      -1.359   5.313  25.098  0.00  0.00    +0.252 C 
ATOM      2  O   UNL     1      -1.606   4.629  25.488  0.00  0.00    -0.471 OA
ENDBRANCH   3   2
ENDBRANCH   7   6
ENDBRANCH   8   7
ENDBRANCH  11   9
ENDBRANCH  12  11
ENDBRANCH  13  12
TORSDOF 8
ENDMDL
MODEL 5
REMARK VINA RESULT:     -10.4      1.415      4.399
REMARK  Name = 
REMARK  8 active torsions:
REMARK  status: ('A' for Active; 'I' for Inactive)
REMARK    1  A    between atoms: O_2  and  C_3
REMARK    2  A    between atoms: C_6  and  C_7
REMARK    3  A    between atoms: C_7  and  N_8
REMARK    4  A    between atoms: C_9  and  C_11
REMARK    5  A    between atoms: C_11  and  C_12
REMARK    6  A    between atoms: C_12  and  C_13
REMARK    7  A    between atoms: C_20  and  N_23
REMARK    8  A    between atoms: N_26  and  C_27
REMARK                            x       y       z     vdW  Elec       q    Type
REMARK                         _______ _______ _______ _____ _____    ______ ____
ROOT
ATOM     13  C   UNL     1      -1.191  -0.277  24.689  0.00  0.00    +0.080 C 
ATOM     14  C   UNL     1      -0.898  -0.848  24.169  0.00  0.00    +0.131 C 
ATOM     15  N   UNL     1      -0.214  -0.698  23.735  0.00  0.00    -0.203 NA
ATOM     16  C   UNL     1       0.179   0.023  23.819  0.00  0.00    +0.256 C 
ATOM     17  O   UNL     1       0.864   0.173  23.385  0.00  0.00    -0.272 OA
ATOM     18  C   UNL     1      -0.114   0.594  24.339  0.00  0.00    +0.138 C 
ATOM     19  C   UNL     1       0.153   1.349  24.536  0.00  0.00    +0.049 C 
ATOM     20  C   UNL     1      -0.368   1.666  25.093  0.00  0.00    +0.115 C 
ATOM     21  C   UNL     1      -0.955   1.106  25.239  0.00  0.00    +0.094 C 
ATOM     22  N   UNL     1      -0.799   0.443  24.773  0.00  0.00    -0.265 NA
ENDROOT
BRANCH  20  23
ATOM     23  N   UNL     1      -0.309   2.411  25.441  0.00  0.00    -0.187 NA
ATOM     24  C   UNL     1      -0.767   3.036  25.156  0.00  0.00    +0.339 C 
ATOM     25  O   UNL     1      -1.281   2.915  24.522  0.00  0.00    -0.249 OA
ATOM     26  N   UNL     1      -0.708   3.782  25.504  0.00  0.00    -0.189 NA
BRANCH  26  27
ATOM     27  C   UNL     1      -1.166   4.407  25.218  0.00  0.00    +0.097 C 
ATOM     28  C   UNL     1      -1.949   4.490  25.464  0.00  0.00    +0.023 C 
ATOM     29  C   UNL     1      -0.839   4.948  24.688  0.00  0.00    +0.023 C 
ENDBRANCH  26  27
ENDBRANCH  20  23
BRANCH  13  12
ATOM     12  C   UNL     1      -1.876  -0.428  25.123  0.00  0.00    +0.027 C 
BRANCH  12  11
ATOM     11  C   UNL     1      -2.537  -0.753  24.752  0.00  0.00    +0.088 C 
BRANCH  11   9
ATOM      8  N   UNL     1      -3.717   0.049  24.832  0.00  0.00    -0.201 NA
ATOM      9  C   UNL     1      -3.290  -0.619  25.060  0.00  0.00    +0.242 C 
ATOM     10  O   UNL     1      -3.617  -1.153  25.598  0.00  0.00    -0.273 OA
BRANCH   8   7
ATOM      7  C   UNL     1      -4.471   0.184  25.140  0.00  0.00    +0.141 C 
BRANCH   7   6
ATOM      3  C   UNL     1      -5.433   2.463  25.114  0.00  0.00    +0.139 A 
ATOM      4  C   UNL     1      -5.691   1.913  25.672  0.00  0.00    +0.037 A 
ATOM      5  C   UNL     1      -5.370   1.153  25.681  0.00  0.00    +0.001 A 
ATOM      6  C   UNL     1      -4.791   0.943  25.131  0.00  0.00    -0.000 A 
ATOM     30  C   UNL     1      -4.534   1.493  24.574  0.00  0.00    +0.001 A 
ATOM     31  C   UNL     1      -4.854   2.253  24.565  0.00  0.00    +0.037 A 
BRANCH   3   2
ATOM      1  C   UNL     1      -5.429   3.813  25.583  0.00  0.00    +0.252 C 
ATOM      2  O   UNL     1      -5.754   3.223  25.106  0.00  0.00    -0.471 OA
ENDBRANCH   3   2
ENDBRANCH   7   6
ENDBRANCH   8   7
ENDBRANCH  11   9
ENDBRANCH  12  11
ENDBRANCH  13  12
TORSDOF 8
ENDMDL
MODEL 6
REMARK VINA RESULT:     -10.1      1.350      4.353
REMARK  Name = 
REMARK  8 active torsions:
REMARK  status: ('A' for Active; 'I' for Inactive)
REMARK    1  A    between atoms: O_2  and  C_3
REMARK    2  A    between atoms: C_6  and  C_7
REMARK    3  A    between atoms: C_7  and  N_8
REMARK    4  A    between atoms: C_9  and  C_11
REMARK    5  A    between atoms: C_11  and  C_12
REMARK    6  A    between atoms: C_12  and  C_13
REMARK    7  A    between atoms: C_20  and  N_23
REMARK    8  A    between atoms: N_26  and  C_27
REMARK                            x       y       z     vdW  Elec       q    Type
REMARK                         _______ _______ _______ _____ _____    ______ ____
ROOT
ATOM     13  C   UNL     1      -4.472   3.006  25.437  0.00  0.00    +0.080 C 
ATOM     14  C   UNL     1      -5.044   3.390  25.889  0.00  0.00    +0.131 C 
ATOM     15  N   UNL     1      -5.748   3.004  26.080  0.00  0.00    -0.203 NA
ATOM     16  C   UNL     1      -5.878   2.232  25.818  0.00  0.00    +0.256 C 
ATOM     17  O   UNL     1      -6.582   1.846  26.009  0.00  0.00    -0.272 OA
ATOM     18  C   UNL     1      -5.305   1.848  25.365  0.00  0.00    +0.138 C 
ATOM     19  C   UNL     1      -5.280   1.093  25.032  0.00  0.00    +0.049 C 
ATOM     20  C   UNL     1      -4.560   1.014  24.635  0.00  0.00    +0.115 C 
ATOM     21  C   UNL     1      -4.142   1.720  24.724  0.00  0.00    +0.094 C 
ATOM     22  N   UNL     1      -4.602   2.235  25.175  0.00  0.00    -0.265 NA
ENDROOT
BRANCH  20  23
ATOM     23  N   UNL     1      -4.305   0.347  24.223  0.00  0.00    -0.187 NA
ATOM     24  C   UNL     1      -3.882  -0.244  24.616  0.00  0.00    +0.339 C 
ATOM     25  O   UNL     1      -3.715  -0.165  25.420  0.00  0.00    -0.249 OA
ATOM     26  N   UNL     1      -3.627  -0.911  24.204  0.00  0.00    -0.189 NA
BRANCH  26  27
ATOM     27  C   UNL     1      -3.204  -1.501  24.597  0.00  0.00    +0.097 C 
ATOM     28  C   UNL     1      -3.594  -2.175  24.871  0.00  0.00    +0.023 C 
ATOM     29  C   UNL     1      -2.392  -1.418  24.716  0.00  0.00    +0.023 C 
ENDBRANCH  26  27
ENDBRANCH  20  23
BRANCH  13  12
ATOM     12  C   UNL     1      -3.768   3.394  25.246  0.00  0.00    +0.027 C 
BRANCH  12  11
ATOM     11  C   UNL     1      -3.359   3.814  25.825  0.00  0.00    +0.088 C 
BRANCH  11   9
ATOM      8  N   UNL     1      -1.988   3.480  25.596  0.00  0.00    -0.201 NA
ATOM      9  C   UNL     1      -2.580   4.048  25.692  0.00  0.00    +0.242 C 
ATOM     10  O   UNL     1      -2.391   4.850  25.653  0.00  0.00    -0.273 OA
BRANCH   8   7
ATOM      7  C   UNL     1      -1.208   3.714  25.463  0.00  0.00    +0.141 C 
BRANCH   7   6
ATOM      3  C   UNL     1       0.434   2.095  24.564  0.00  0.00    +0.139 A 
ATOM      4  C   UNL     1       0.240   2.084  25.367  0.00  0.00    +0.037 A 
ATOM      5  C   UNL     1      -0.308   2.624  25.666  0.00  0.00    +0.001 A 
ATOM      6  C   UNL     1      -0.661   3.174  25.163  0.00  0.00    -0.000 A 
ATOM     30  C   UNL     1      -0.468   3.185  24.362  0.00  0.00    +0.001 A 
ATOM     31  C   UNL     1       0.080   2.645  24.062  0.00  0.00    +0.037 A 
BRANCH   3   2
ATOM      1  C   UNL     1       0.726   0.932  23.787  0.00  0.00    +0.252 C 
ATOM      2  O   UNL     1       0.981   1.555  24.265  0.00  0.00    -0.471 OA
ENDBRANCH   3   2
ENDBRANCH   7   6
ENDBRANCH   8   7
ENDBRANCH  11   9
ENDBRANCH  12  11
ENDBRANCH  13  12
TORSDOF 8
ENDMDL
MODEL 7
REMARK VINA RESULT:     -10.1      1.222      3.654
REMARK  Name = 
REMARK  8 active torsions:
REMARK  status: ('A' for Active; 'I' for Inactive)
REMARK    1  A    between atoms: O_2  and  C_3
REMARK    2  A    between atoms: C_6  and  C_7
REMARK    3  A    between atoms: C_7  and  N_8
REMARK    4  A    between atoms: C_9  and  C_11
REMARK    5  A    between atoms: C_11  and  C_12
REMARK    6  A    between atoms: C_12  and  C_13
REMARK    7  A    between atoms: C_20  and  N_23
REMARK    8  A    between atoms: N_26  and  C_27
REMARK                            x       y       z     vdW  Elec       q    Type
REMARK                         _______ _______ _______ _____ _____    ______ ____
ROOT
ATOM     13  C   UNL     1      -5.012   1.535  25.086  0.00  0.00    +0.080 C 
ATOM     14  C   UNL     1      -5.703   1.471  25.531  0.00  0.00    +0.131 C 
ATOM     15  N   UNL     1      -6.039   2.143  25.871  0.00  0.00    -0.203 NA
ATOM     16  C   UNL     1      -5.684   2.881  25.764  0.00  0.00    +0.256 C 
ATOM     17  O   UNL     1      -6.020   3.553  26.103  0.00  0.00    -0.272 OA
ATOM     18  C   UNL     1      -4.992   2.945  25.318  0.00  0.00    +0.138 C 
ATOM     19  C   UNL     1      -4.521   3.592  25.120  0.00  0.00    +0.049 C 
ATOM     20  C   UNL     1      -3.894   3.319  24.658  0.00  0.00    +0.115 C 
ATOM     21  C   UNL     1      -3.978   2.503  24.572  0.00  0.00    +0.094 C 
ATOM     22  N   UNL     1      -4.657   2.271  24.979  0.00  0.00    -0.265 NA
ENDROOT
BRANCH  20  23
ATOM     23  N   UNL     1      -3.290   3.782  24.339  0.00  0.00    -0.187 NA
ATOM     24  C   UNL     1      -2.606   3.926  24.779  0.00  0.00    +0.339 C 
ATOM     25  O   UNL     1      -2.527   3.608  25.536  0.00  0.00    -0.249 OA
ATOM     26  N   UNL     1      -2.002   4.389  24.460  0.00  0.00    -0.189 NA
BRANCH  26  27
ATOM     27  C   UNL     1      -1.318   4.534  24.900  0.00  0.00    +0.097 C 
ATOM     28  C   UNL     1      -0.776   3.926  25.029  0.00  0.00    +0.023 C 
ATOM     29  C   UNL     1      -1.177   5.285  25.209  0.00  0.00    +0.023 C 
ENDBRANCH  26  27
ENDBRANCH  20  23
BRANCH  13  12
ATOM     12  C   UNL     1      -4.676   0.861  24.747  0.00  0.00    +0.027 C 
BRANCH  12  11
ATOM     11  C   UNL     1      -4.523   0.198  25.212  0.00  0.00    +0.088 C 
BRANCH  11   9
ATOM      8  N   UNL     1      -3.266  -0.450  25.006  0.00  0.00    -0.201 NA
ATOM      9  C   UNL     1      -4.085  -0.429  24.904  0.00  0.00    +0.242 C 
ATOM     10  O   UNL     1      -4.465  -1.036  24.494  0.00  0.00    -0.273 OA
BRANCH   8   7
ATOM      7  C   UNL     1      -2.827  -1.078  24.698  0.00  0.00    +0.141 C 
BRANCH   7   6
ATOM      3  C   UNL     1      -0.391  -0.829  24.344  0.00  0.00    +0.139 A 
ATOM      4  C   UNL     1      -0.882  -0.165  24.316  0.00  0.00    +0.037 A 
ATOM      5  C   UNL     1      -1.694  -0.249  24.435  0.00  0.00    +0.001 A 
ATOM      6  C   UNL     1      -2.016  -0.995  24.580  0.00  0.00    -0.000 A 
ATOM     30  C   UNL     1      -1.525  -1.657  24.607  0.00  0.00    +0.001 A 
ATOM     31  C   UNL     1      -0.713  -1.574  24.489  0.00  0.00    +0.037 A 
BRANCH   3   2
ATOM      1  C   UNL     1       0.702  -0.355  23.554  0.00  0.00    +0.252 C 
ATOM      2  O   UNL     1       0.421  -0.745  24.225  0.00  0.00    -0.471 OA
ENDBRANCH   3   2
ENDBRANCH   7   6
ENDBRANCH   8   7
ENDBRANCH  11   9
ENDBRANCH  12  11
ENDBRANCH  13  12
TORSDOF 8
ENDMDL
MODEL 8
REMARK VINA RESULT:     -10.0      1.402      5.762
REMARK  Name = 
REMARK  8 active torsions:
REMARK  status: ('A' for Active; 'I' for Inactive)
REMARK    1  A    between atoms: O_2  and  C_3
REMARK    2  A    between atoms: C_6  and  C_7
REMARK    3  A    between atoms: C_7  and  N_8
REMARK    4  A    between atoms: C_9  and  C_11
REMARK    5  A    between atoms: C_11  and  C_12
REMARK    6  A    between atoms: C_12  and  C_13
REMARK    7  A    between atoms: C_20  and  N_23
REMARK    8  A    between atoms: N_26  and  C_27
REMARK                            x       y       z     vdW  Elec       q    Type
REMARK                         _______ _______ _______ _____ _____    ______ ____
ROOT
ATOM     13  C   UNL     1      -3.899  -0.538  24.831  0.00  0.00    +0.080 C 
ATOM     14  C   UNL     1      -4.520  -1.041  24.628  0.00  0.00    +0.131 C 
ATOM     15  N   UNL     1      -4.362  -1.794  24.333  0.00  0.00    -0.203 NA
ATOM     16  C   UNL     1      -3.581  -2.046  24.241  0.00  0.00    +0.256 C 
ATOM     17  O   UNL     1      -3.423  -2.799  23.946  0.00  0.00    -0.272 OA
ATOM     18  C   UNL     1      -2.959  -1.543  24.445  0.00  0.00    +0.138 C 
ATOM     19  C   UNL     1      -2.140  -1.637  24.415  0.00  0.00    +0.049 C 
ATOM     20  C   UNL     1      -1.793  -0.942  24.692  0.00  0.00    +0.115 C 
ATOM     21  C   UNL     1      -2.398  -0.418  24.892  0.00  0.00    +0.094 C 
ATOM     22  N   UNL     1      -3.119  -0.789  24.740  0.00  0.00    -0.265 NA
ENDROOT
BRANCH  20  23
ATOM     23  N   UNL     1      -0.984  -0.797  24.756  0.00  0.00    -0.187 NA
ATOM     24  C   UNL     1      -0.613  -0.286  24.224  0.00  0.00    +0.339 C 
ATOM     25  O   UNL     1      -1.051   0.079  23.628  0.00  0.00    -0.249 OA
ATOM     26  N   UNL     1       0.197  -0.142  24.289  0.00  0.00    -0.189 NA
BRANCH  26  27
ATOM     27  C   UNL     1       0.568   0.369  23.756  0.00  0.00    +0.097 C 
ATOM     28  C   UNL     1       0.567   1.182  23.897  0.00  0.00    +0.023 C 
ATOM     29  C   UNL     1       0.939   0.066  23.085  0.00  0.00    +0.023 C 
ENDBRANCH  26  27
ENDBRANCH  20  23
BRANCH  13  12
ATOM     12  C   UNL     1      -4.058   0.216  25.126  0.00  0.00    +0.027 C 
BRANCH  12  11
ATOM     11  C   UNL     1      -4.554   0.726  24.710  0.00  0.00    +0.088 C 
BRANCH  11   9
ATOM      8  N   UNL     1      -4.093   2.063  24.916  0.00  0.00    -0.201 NA
ATOM      9  C   UNL     1      -4.684   1.492  24.986  0.00  0.00    +0.242 C 
ATOM     10  O   UNL     1      -5.407   1.687  25.334  0.00  0.00    -0.273 OA
BRANCH   8   7
ATOM      7  C   UNL     1      -4.223   2.830  25.192  0.00  0.00    +0.141 C 
BRANCH   7   6
ATOM      3  C   UNL     1      -2.341   4.429  25.345  0.00  0.00    +0.139 A 
ATOM      4  C   UNL     1      -2.566   4.125  24.611  0.00  0.00    +0.037 A 
ATOM      5  C   UNL     1      -3.193   3.592  24.561  0.00  0.00    +0.001 A 
ATOM      6  C   UNL     1      -3.596   3.363  25.243  0.00  0.00    -0.000 A 
ATOM     30  C   UNL     1      -3.372   3.666  25.976  0.00  0.00    +0.001 A 
ATOM     31  C   UNL     1      -2.744   4.200  26.028  0.00  0.00    +0.037 A 
BRANCH   3   2
ATOM      1  C   UNL     1      -1.001   4.796  25.013  0.00  0.00    +0.252 C 
ATOM      2  O   UNL     1      -1.714   4.962  25.396  0.00  0.00    -0.471 OA
ENDBRANCH   3   2
ENDBRANCH   7   6
ENDBRANCH   8   7
ENDBRANCH  11   9
ENDBRANCH  12  11
ENDBRANCH  13  12
TORSDOF 8
ENDMDL
MODEL 9
REMARK VINA RESULT:      -7.3     14.142     15.749
REMARK  Name = 
REMARK  8 active torsions:
REMARK  status: ('A' for Active; 'I' for Inactive)
REMARK    1  A    between atoms: O_2  and  C_3
REMARK    2  A    between atoms: C_6  and  C_7
REMARK    3  A    between atoms: C_7  and  N_8
REMARK    4  A    between atoms: C_9  and  C_11
REMARK    5  A    between atoms: C_11  and  C_12
REMARK    6  A    between atoms: C_12  and  C_13
REMARK    7  A    between atoms: C_20  and  N_23
REMARK    8  A    between atoms: N_26  and  C_27
REMARK                            x       y       z     vdW  Elec       q    Type
REMARK                         _______ _______ _______ _____ _____    ______ ____
ROOT
ATOM     13  C   UNL     1      -5.259 -10.432  16.253  0.00  0.00    +0.080 C 
ATOM     14  C   UNL     1      -4.554 -10.529  16.670  0.00  0.00    +0.131 C 
ATOM     15  N   UNL     1      -4.563 -10.560  17.494  0.00  0.00    -0.203 NA
ATOM     16  C   UNL     1      -5.278 -10.494  17.902  0.00  0.00    +0.256 C 
ATOM     17  O   UNL     1      -5.286 -10.525  18.726  0.00  0.00    -0.272 OA
ATOM     18  C   UNL     1      -5.983 -10.397  17.485  0.00  0.00    +0.138 C 
ATOM     19  C   UNL     1      -6.765 -10.316  17.734  0.00  0.00    +0.049 C 
ATOM     20  C   UNL     1      -7.239 -10.236  17.063  0.00  0.00    +0.115 C 
ATOM     21  C   UNL     1      -6.750 -10.266  16.400  0.00  0.00    +0.094 C 
ATOM     22  N   UNL     1      -5.973 -10.365  16.660  0.00  0.00    -0.265 NA
ENDROOT
BRANCH  20  23
ATOM     23  N   UNL     1      -8.059 -10.141  17.058  0.00  0.00    -0.187 NA
ATOM     24  C   UNL     1      -8.386  -9.390  16.955  0.00  0.00    +0.339 C 
ATOM     25  O   UNL     1      -7.895  -8.735  16.857  0.00  0.00    -0.249 OA
ATOM     26  N   UNL     1      -9.206  -9.296  16.950  0.00  0.00    -0.189 NA
BRANCH  26  27
ATOM     27  C   UNL     1      -9.534  -8.545  16.847  0.00  0.00    +0.097 C 
ATOM     28  C   UNL     1      -9.761  -8.101  17.504  0.00  0.00    +0.023 C 
ATOM     29  C   UNL     1      -9.634  -8.239  16.087  0.00  0.00    +0.023 C 
ENDBRANCH  26  27
ENDBRANCH  20  23
BRANCH  13  12
ATOM     12  C   UNL     1      -5.249 -10.401  15.429  0.00  0.00    +0.027 C 
BRANCH  12  11
ATOM     11  C   UNL     1      -4.598 -10.687  15.012  0.00  0.00    +0.088 C 
BRANCH  11   9
ATOM      8  N   UNL     1      -3.900 -10.616  13.767  0.00  0.00    -0.201 NA
ATOM      9  C   UNL     1      -4.606 -10.695  14.188  0.00  0.00    +0.242 C 
ATOM     10  O   UNL     1      -5.319 -10.781  13.783  0.00  0.00    -0.273 OA
BRANCH   8   7
ATOM      7  C   UNL     1      -3.908 -10.623  12.942  0.00  0.00    +0.141 C 
BRANCH   7   6
ATOM      3  C   UNL     1      -1.854 -10.067  11.679  0.00  0.00    +0.139 A 
ATOM      4  C   UNL     1      -1.798 -10.416  12.426  0.00  0.00    +0.037 A 
ATOM      5  C   UNL     1      -2.483 -10.601  12.846  0.00  0.00    +0.001 A 
ATOM      6  C   UNL     1      -3.224 -10.438  12.521  0.00  0.00    -0.000 A 
ATOM     30  C   UNL     1      -3.279 -10.090  11.776  0.00  0.00    +0.001 A 
ATOM     31  C   UNL     1      -2.595  -9.905  11.354  0.00  0.00    +0.037 A 
BRANCH   3   2
ATOM      1  C   UNL     1      -0.932  -9.095  11.183  0.00  0.00    +0.252 C 
ATOM      2  O   UNL     1      -1.169  -9.882  11.259  0.00  0.00    -0.471 OA
ENDBRANCH   3   2
ENDBRANCH   7   6
ENDBRANCH   8   7
ENDBRANCH  11   9
ENDBRANCH  12  11
ENDBRANCH  13  12
TORSDOF 8
ENDMDL
MODEL 10
REMARK VINA RESULT:      -6.9     16.244     18.720
REMARK  Name = 
REMARK  8 active torsions:
REMARK  status: ('A' for Active; 'I' for Inactive)
REMARK    1  A    between atoms: O_2  and  C_3
REMARK    2  A    between atoms: C_6  and  C_7
REMARK    3  A    between atoms: C_7  and  N_8
REMARK    4  A    between atoms: C_9  and  C_11
REMARK    5  A    between atoms: C_11  and  C_12
REMARK    6  A    between atoms: C_12  and  C_13
REMARK    7  A    between atoms: C_20  and  N_23
REMARK    8  A    between atoms: N_26  and  C_27
REMARK                            x       y       z     vdW  Elec       q    Type
REMARK                         _______ _______ _______ _____ _____    ______ ____
ROOT
ATOM     13  C   UNL     1      -4.886  -9.266   9.819  0.00  0.00    +0.080 C 
ATOM     14  C   UNL     1      -4.283  -8.911   9.381  0.00  0.00    +0.131 C 
ATOM     15  N   UNL     1      -3.505  -8.937   9.653  0.00  0.00    -0.203 NA
ATOM     16  C   UNL     1      -3.329  -9.318  10.364  0.00  0.00    +0.256 C 
ATOM     17  O   UNL     1      -2.551  -9.344  10.636  0.00  0.00    -0.272 OA
ATOM     18  C   UNL     1      -3.932  -9.673  10.802  0.00  0.00    +0.138 C 
ATOM     19  C   UNL     1      -3.925 -10.085  11.517  0.00  0.00    +0.049 C 
ATOM     20  C   UNL     1      -4.700 -10.314  11.686  0.00  0.00    +0.115 C 
ATOM     21  C   UNL     1      -5.184 -10.043  11.075  0.00  0.00    +0.094 C 
ATOM     22  N   UNL     1      -4.710  -9.647  10.529  0.00  0.00    -0.265 NA
ENDROOT
BRANCH  20  23
ATOM     23  N   UNL     1      -4.946 -10.738  12.349  0.00  0.00    -0.187 NA
ATOM     24  C   UNL     1      -5.239 -10.339  13.009  0.00  0.00    +0.339 C 
ATOM     25  O   UNL     1      -5.287  -9.515  13.005  0.00  0.00    -0.249 OA
ATOM     26  N   UNL     1      -5.485 -10.763  13.672  0.00  0.00    -0.189 NA
BRANCH  26  27
ATOM     27  C   UNL     1      -5.779 -10.363  14.332  0.00  0.00    +0.097 C 
ATOM     28  C   UNL     1      -6.572 -10.141  14.359  0.00  0.00    +0.023 C 
ATOM     29  C   UNL     1      -5.278 -10.187  14.963  0.00  0.00    +0.023 C 
ENDBRANCH  26  27
ENDBRANCH  20  23
BRANCH  13  12
ATOM     12  C   UNL     1      -5.664  -9.240   9.546  0.00  0.00    +0.027 C 
BRANCH  12  11
ATOM     11  C   UNL     1      -5.904  -8.633   9.042  0.00  0.00    +0.088 C 
BRANCH  11   9
ATOM      8  N   UNL     1      -7.126  -7.951   8.750  0.00  0.00    -0.201 NA
ATOM      9  C   UNL     1      -6.666  -8.636   8.727  0.00  0.00    +0.242 C 
ATOM     10  O   UNL     1      -6.969  -9.324   8.388  0.00  0.00    -0.273 OA
BRANCH   8   7
ATOM      7  C   UNL     1      -7.888  -7.953   8.435  0.00  0.00    +0.141 C 
BRANCH   7   6
ATOM      3  C   UNL     1      -9.276  -5.907   8.529  0.00  0.00    +0.139 A 
ATOM      4  C   UNL     1      -9.549  -6.607   8.872  0.00  0.00    +0.037 A 
ATOM      5  C   UNL     1      -9.086  -7.289   8.840  0.00  0.00    +0.001 A 
ATOM      6  C   UNL     1      -8.350  -7.272   8.466  0.00  0.00    -0.000 A 
ATOM     30  C   UNL     1      -8.078  -6.573   8.124  0.00  0.00    +0.001 A 
ATOM     31  C   UNL     1      -8.540  -5.890   8.155  0.00  0.00    +0.037 A 
BRANCH   3   2
ATOM      1  C   UNL     1     -10.534  -5.257   8.342  0.00  0.00    +0.252 C 
ATOM      2  O   UNL     1      -9.739  -5.225   8.561  0.00  0.00    -0.471 OA
ENDBRANCH   3   2
ENDBRANCH   7   6
ENDBRANCH   8   7
ENDBRANCH  11   9
ENDBRANCH  12  11
ENDBRANCH  13  12
TORSDOF 8
ENDMDL
