MODEL 1
REMARK VINA RESULT:     -11.4      0.000      0.000
REMARK  Name = 
REMARK  9 active torsions:
REMARK  status: ('A' for Active; 'I' for Inactive)
REMARK    1  A    between atoms: O_2  and  C_3
REMARK    2  A    between atoms: C_8  and  O_9
REMARK    3  A    between atoms: C_11  and  C_12
REMARK    4  A    between atoms: C_12  and  C_13
REMARK    5  A    between atoms: N_15  and  S_23
REMARK    6  A    between atoms: C_18  and  C_19
REMARK    7  A    between atoms: C_19  and  C_20
REMARK    8  A    between atoms: S_23  and  C_26
REMARK    9  A    between atoms: C_30  and  C_32
REMARK                            x       y       z     vdW  Elec       q    Type
REMARK                         _______ _______ _______ _____ _____    ______ ____
ROOT
ATOM     13  C   UNL     1      -3.855   1.696  24.822  0.00  0.00    +0.024 C 
ATOM     14  C   UNL     1      -3.674   0.907  24.667  0.00  0.00    +0.096 C 
ATOM     15  N   UNL     1      -4.250   0.324  24.764  0.00  0.00    -0.156 NA
ATOM     16  C   UNL     1      -5.007   0.532  25.017  0.00  0.00    +0.096 C 
ATOM     17  C   UNL     1      -5.189   1.320  25.172  0.00  0.00    +0.020 C 
ATOM     18  C   UNL     1      -4.613   1.903  25.075  0.00  0.00    +0.014 C 
ENDROOT
BRANCH  15  23
ATOM     23  S   UNL     1      -4.069  -0.466  24.609  0.00  0.00    +0.063 S 
ATOM     24  O   UNL     1      -3.820  -0.562  25.390  0.00  0.00    -0.153 OA
ATOM     25  O   UNL     1      -4.317  -0.369  23.828  0.00  0.00    -0.153 OA
BRANCH  23  26
ATOM     26  C   UNL     1      -3.887  -1.255  24.454  0.00  0.00    +0.123 A 
ATOM     27  C   UNL     1      -4.472  -1.765  24.173  0.00  0.00    +0.020 A 
ATOM     28  C   UNL     1      -4.291  -2.555  24.018  0.00  0.00    +0.002 A 
ATOM     29  C   UNL     1      -3.524  -2.835  24.143  0.00  0.00    +0.010 A 
ATOM     30  C   UNL     1      -2.940  -2.324  24.424  0.00  0.00    +0.070 A 
ATOM     31  C   UNL     1      -3.122  -1.534  24.579  0.00  0.00    +0.030 A 
BRANCH  30  32
ATOM     32  C   UNL     1      -2.173  -2.604  24.549  0.00  0.00    +0.100 C 
ATOM     33  N   UNL     1      -1.407  -2.883  24.674  0.00  0.00    -0.191 NA
ENDBRANCH  30  32
ENDBRANCH  23  26
ENDBRANCH  15  23
BRANCH  13  12
ATOM     12  C   UNL     1      -3.280   2.279  24.724  0.00  0.00    +0.047 C 
BRANCH  12  11
ATOM      3  C   UNL     1      -0.324   2.170  24.401  0.00  0.00    +0.172 A 
ATOM      4  C   UNL     1      -0.638   2.177  23.638  0.00  0.00    +0.036 A 
ATOM      5  C   UNL     1      -1.456   2.206  23.527  0.00  0.00    -0.016 A 
ATOM      6  C   UNL     1      -1.960   2.228  24.181  0.00  0.00    +0.012 A 
ATOM      7  C   UNL     1      -1.645   2.221  24.944  0.00  0.00    +0.041 A 
ATOM      8  C   UNL     1      -0.828   2.192  25.055  0.00  0.00    +0.172 A 
ATOM     11  C   UNL     1      -2.776   2.257  24.071  0.00  0.00    +0.053 C 
ATOM     34  N   UNL     1      -3.090   2.264  23.309  0.00  0.00    -0.274 NA
ATOM     35  C   UNL     1      -2.586   2.243  22.655  0.00  0.00    +0.130 C 
ATOM     36  C   UNL     1      -1.769   2.214  22.765  0.00  0.00    +0.053 C 
BRANCH   3   2
ATOM      1  C   UNL     1       0.962   1.695  24.001  0.00  0.00    +0.253 C 
ATOM      2  O   UNL     1       0.492   2.141  24.511  0.00  0.00    -0.468 OA
ENDBRANCH   3   2
BRANCH   8   9
ATOM      9  O   UNL     1      -0.515   2.184  25.817  0.00  0.00    -0.468 OA
ATOM     10  C   UNL     1      -0.700   2.789  26.345  0.00  0.00    +0.253 C 
ENDBRANCH   8   9
ENDBRANCH  12  11
ENDBRANCH  13  12
BRANCH  18  19
ATOM     19  C   UNL     1      -4.795   2.693  25.230  0.00  0.00    +0.114 C 
BRANCH  19  20
ATOM     20  C   UNL     1      -5.488   2.885  25.632  0.00  0.00    +0.365 C 
ATOM     21  O   UNL     1      -6.189   3.004  25.213  0.00  0.00    -0.246 OA
ATOM     22  O   UNL     1      -5.482   2.958  26.455  0.00  0.00    -0.246 OA
ENDBRANCH  19  20
ENDBRANCH  18  19
TORSDOF 9
ENDMDL
MODEL 2
REMARK VINA RESULT:     -11.1      1.441      3.558
REMARK  Name = 
REMARK  9 active torsions:
REMARK  status: ('A' for Active; 'I' for Inactive)
REMARK    1  A    between atoms: O_2  and  C_3
REMARK    2  A    between atoms: C_8  and  O_9
REMARK    3  A    between atoms: C_11  and  C_12
REMARK    4  A    between atoms: C_12  and  C_13
REMARK    5  A    between atoms: N_15  and  S_23
REMARK    6  A    between atoms: C_18  and  C_19
REMARK    7  A    between atoms: C_19  and  C_20
REMARK    8  A    between atoms: S_23  and  C_26
REMARK    9  A    between atoms: C_30  and  C_32
REMARK                            x       y       z     vdW  Elec       q    Type
REMARK                         _______ _______ _______ _____ _____    ______ ____
ROOT
ATOM     13  C   UNL     1      -1.493   1.483  24.549  0.00  0.00    +0.024 C 
ATOM     14  C   UNL     1      -1.965   0.817  24.661  0.00  0.00    +0.096 C 
ATOM     15  N   UNL     1      -1.622   0.067  24.686  0.00  0.00    -0.156 NA
ATOM     16  C   UNL     1      -0.805  -0.016  24.600  0.00  0.00    +0.096 C 
ATOM     17  C   UNL     1      -0.333   0.650  24.488  0.00  0.00    +0.020 C 
ATOM     18  C   UNL     1      -0.676   1.400  24.463  0.00  0.00    +0.014 C 
ENDROOT
BRANCH  15  23
ATOM     23  S   UNL     1      -2.095  -0.600  24.798  0.00  0.00    +0.063 S 
ATOM     24  O   UNL     1      -1.875  -0.881  24.054  0.00  0.00    -0.153 OA
ATOM     25  O   UNL     1      -2.315  -0.319  25.542  0.00  0.00    -0.153 OA
BRANCH  23  26
ATOM     26  C   UNL     1      -2.568  -1.266  24.910  0.00  0.00    +0.123 A 
ATOM     27  C   UNL     1      -2.458  -1.743  25.575  0.00  0.00    +0.020 A 
ATOM     28  C   UNL     1      -2.931  -2.409  25.687  0.00  0.00    +0.002 A 
ATOM     29  C   UNL     1      -3.514  -2.600  25.134  0.00  0.00    +0.010 A 
ATOM     30  C   UNL     1      -3.622  -2.123  24.469  0.00  0.00    +0.070 A 
ATOM     31  C   UNL     1      -3.149  -1.456  24.358  0.00  0.00    +0.030 A 
BRANCH  30  32
ATOM     32  C   UNL     1      -4.205  -2.314  23.916  0.00  0.00    +0.100 C 
ATOM     33  N   UNL     1      -4.787  -2.504  23.364  0.00  0.00    -0.191 NA
ENDBRANCH  30  32
ENDBRANCH  23  26
ENDBRANCH  15  23
BRANCH  13  12
ATOM     12  C   UNL     1      -1.835   2.233  24.523  0.00  0.00    +0.047 C 
BRANCH  12  11
ATOM      3  C   UNL     1      -4.392   3.639  25.104  0.00  0.00    +0.172 A 
ATOM      4  C   UNL     1      -4.467   3.332  24.342  0.00  0.00    +0.036 A 
ATOM      5  C   UNL     1      -3.847   2.904  24.005  0.00  0.00    -0.016 A 
ATOM      6  C   UNL     1      -3.151   2.782  24.432  0.00  0.00    +0.012 A 
ATOM      7  C   UNL     1      -3.076   3.089  25.195  0.00  0.00    +0.041 A 
ATOM      8  C   UNL     1      -3.696   3.516  25.532  0.00  0.00    +0.172 A 
ATOM     11  C   UNL     1      -2.531   2.355  24.096  0.00  0.00    +0.053 C 
ATOM     34  N   UNL     1      -2.606   2.049  23.335  0.00  0.00    -0.274 NA
ATOM     35  C   UNL     1      -3.302   2.171  22.908  0.00  0.00    +0.130 C 
ATOM     36  C   UNL     1      -3.922   2.599  23.243  0.00  0.00    +0.053 C 
BRANCH   3   2
ATOM      1  C   UNL     1      -5.776   3.755  25.439  0.00  0.00    +0.253 C 
ATOM      2  O   UNL     1      -5.012   4.066  25.440  0.00  0.00    -0.468 OA
ENDBRANCH   3   2
BRANCH   8   9
ATOM      9  O   UNL     1      -3.621   3.822  26.293  0.00  0.00    -0.468 OA
ATOM     10  C   UNL     1      -2.928   4.209  26.516  0.00  0.00    +0.253 C 
ENDBRANCH   8   9
ENDBRANCH  12  11
ENDBRANCH  13  12
BRANCH  18  19
ATOM     19  C   UNL     1      -0.203   2.067  24.351  0.00  0.00    +0.114 C 
BRANCH  19  20
ATOM     20  C   UNL     1       0.587   2.056  24.587  0.00  0.00    +0.365 C 
ATOM     21  O   UNL     1       0.787   2.234  25.368  0.00  0.00    -0.246 OA
ATOM     22  O   UNL     1       1.178   1.868  24.042  0.00  0.00    -0.246 OA
ENDBRANCH  19  20
ENDBRANCH  18  19
TORSDOF 9
ENDMDL
MODEL 3
REMARK VINA RESULT:     -10.0      1.672      4.228
REMARK  Name = 
REMARK  9 active torsions:
REMARK  status: ('A' for Active; 'I' for Inactive)
REMARK    1  A    between atoms: O_2  and  C_3
REMARK    2  A    between atoms: C_8  and  O_9
REMARK    3  A    between atoms: C_11  and  C_12
REMARK    4  A    between atoms: C_12  and  C_13
REMARK    5  A    between atoms: N_15  and  S_23
REMARK    6  A    between atoms: C_18  and  C_19
REMARK    7  A    between atoms: C_19  and  C_20
REMARK    8  A    between atoms: S_23  and  C_26
REMARK    9  A    between atoms: C_30  and  C_32
REMARK                            x       y       z     vdW  Elec       q    Type
REMARK                         _______ _______ _______ _____ _____    ______ ____
ROOT
ATOM     13  C   UNL     1      -4.208   1.774  25.254  0.00  0.00    +0.024 C 
ATOM     14  C   UNL     1      -3.445   2.067  25.152  0.00  0.00    +0.096 C 
ATOM     15  N   UNL     1      -3.302   2.878  25.211  0.00  0.00    -0.156 NA
ATOM     16  C   UNL     1      -3.925   3.395  25.373  0.00  0.00    +0.096 C 
ATOM     17  C   UNL     1      -4.688   3.102  25.476  0.00  0.00    +0.020 C 
ATOM     18  C   UNL     1      -4.831   2.291  25.417  0.00  0.00    +0.014 C 
ENDROOT
BRANCH  15  23
ATOM     23  S   UNL     1      -2.538   3.172  25.108  0.00  0.00    +0.063 S 
ATOM     24  O   UNL     1      -2.761   3.498  24.384  0.00  0.00    -0.153 OA
ATOM     25  O   UNL     1      -2.315   2.846  25.832  0.00  0.00    -0.153 OA
BRANCH  23  26
ATOM     26  C   UNL     1      -1.774   3.465  25.005  0.00  0.00    +0.123 A 
ATOM     27  C   UNL     1      -1.623   4.269  25.116  0.00  0.00    +0.020 A 
ATOM     28  C   UNL     1      -0.859   4.562  25.013  0.00  0.00    +0.002 A 
ATOM     29  C   UNL     1      -0.246   4.052  24.800  0.00  0.00    +0.010 A 
ATOM     30  C   UNL     1      -0.398   3.249  24.689  0.00  0.00    +0.070 A 
ATOM     31  C   UNL     1      -1.162   2.956  24.792  0.00  0.00    +0.030 A 
BRANCH  30  32
ATOM     32  C   UNL     1       0.215   2.739  24.476  0.00  0.00    +0.100 C 
ATOM     33  N   UNL     1       0.827   2.229  24.262  0.00  0.00    -0.191 NA
ENDBRANCH  30  32
ENDBRANCH  23  26
ENDBRANCH  15  23
BRANCH  13  12
ATOM     12  C   UNL     1      -4.351   0.964  25.195  0.00  0.00    +0.047 C 
BRANCH  12  11
ATOM      3  C   UNL     1      -3.263  -1.785  24.852  0.00  0.00    +0.172 A 
ATOM      4  C   UNL     1      -3.240  -1.434  24.106  0.00  0.00    +0.036 A 
ATOM      5  C   UNL     1      -3.506  -0.659  24.004  0.00  0.00    -0.016 A 
ATOM      6  C   UNL     1      -3.796  -0.234  24.650  0.00  0.00    +0.012 A 
ATOM      7  C   UNL     1      -3.819  -0.585  25.397  0.00  0.00    +0.041 A 
ATOM      8  C   UNL     1      -3.553  -1.360  25.499  0.00  0.00    +0.172 A 
ATOM     11  C   UNL     1      -4.061   0.539  24.549  0.00  0.00    +0.053 C 
ATOM     34  N   UNL     1      -4.038   0.890  23.803  0.00  0.00    -0.274 NA
ATOM     35  C   UNL     1      -3.748   0.465  23.157  0.00  0.00    +0.130 C 
ATOM     36  C   UNL     1      -3.482  -0.309  23.258  0.00  0.00    +0.053 C 
BRANCH   3   2
ATOM      1  C   UNL     1      -2.657  -2.963  24.321  0.00  0.00    +0.253 C 
ATOM      2  O   UNL     1      -2.998  -2.558  24.953  0.00  0.00    -0.468 OA
ENDBRANCH   3   2
BRANCH   8   9
ATOM      9  O   UNL     1      -3.577  -1.710  26.245  0.00  0.00    -0.468 OA
ATOM     10  C   UNL     1      -3.143  -1.386  26.866  0.00  0.00    +0.253 C 
ENDBRANCH   8   9
ENDBRANCH  12  11
ENDBRANCH  13  12
BRANCH  18  19
ATOM     19  C   UNL     1      -5.595   1.998  25.519  0.00  0.00    +0.114 C 
BRANCH  19  20
ATOM     20  C   UNL     1      -6.159   2.449  25.916  0.00  0.00    +0.365 C 
ATOM     21  O   UNL     1      -6.611   3.003  25.503  0.00  0.00    -0.246 OA
ATOM     22  O   UNL     1      -6.274   2.346  26.728  0.00  0.00    -0.246 OA
ENDBRANCH  19  20
ENDBRANCH  18  19
TORSDOF 9
ENDMDL
MODEL 4
REMARK VINA RESULT:      -9.8      2.034      4.021
REMARK  Name = 
REMARK  9 active torsions:
REMARK  status: ('A' for Active; 'I' for Inactive)
REMARK    1  A    between atoms: O_2  and  C_3
REMARK    2  A    between atoms: C_8  and  O_9
REMARK    3  A    between atoms: C_11  and  C_12
REMARK    4  A    between atoms: C_12  and  C_13
REMARK    5  A    between atoms: N_15  and  S_23
REMARK    6  A    between atoms: C_18  and  C_19
REMARK    7  A    between atoms: C_19  and  C_20
REMARK    8  A    between atoms: S_23  and  C_26
REMARK    9  A    between atoms: C_30  and  C_32
REMARK                            x       y       z     vdW  Elec       q    Type
REMARK                         _______ _______ _______ _____ _____    ______ ____
ROOT
ATOM     13  C   UNL     1      -0.341   0.782  24.066  0.00  0.00    +0.024 C 
ATOM     14  C   UNL     1      -0.979   0.379  24.398  0.00  0.00    +0.096 C 
ATOM     15  N   UNL     1      -1.003  -0.446  24.373  0.00  0.00    -0.156 NA
ATOM     16  C   UNL     1      -0.389  -0.866  24.016  0.00  0.00    +0.096 C 
ATOM     17  C   UNL     1       0.248  -0.463  23.685  0.00  0.00    +0.020 C 
ATOM     18  C   UNL     1       0.273   0.362  23.709  0.00  0.00    +0.014 C 
ENDROOT
BRANCH  15  23
ATOM     23  S   UNL     1      -1.641  -0.850  24.705  0.00  0.00    +0.063 S 
ATOM     24  O   UNL     1      -2.141  -0.533  24.131  0.00  0.00    -0.153 OA
ATOM     25  O   UNL     1      -1.142  -1.167  25.280  0.00  0.00    -0.153 OA
BRANCH  23  26
ATOM     26  C   UNL     1      -2.280  -1.254  25.037  0.00  0.00    +0.123 A 
ATOM     27  C   UNL     1      -2.527  -1.074  25.804  0.00  0.00    +0.020 A 
ATOM     28  C   UNL     1      -3.165  -1.478  26.136  0.00  0.00    +0.002 A 
ATOM     29  C   UNL     1      -3.556  -2.062  25.702  0.00  0.00    +0.010 A 
ATOM     30  C   UNL     1      -3.307  -2.241  24.936  0.00  0.00    +0.070 A 
ATOM     31  C   UNL     1      -2.669  -1.837  24.604  0.00  0.00    +0.030 A 
BRANCH  30  32
ATOM     32  C   UNL     1      -3.698  -2.825  24.502  0.00  0.00    +0.100 C 
ATOM     33  N   UNL     1      -4.087  -3.408  24.068  0.00  0.00    -0.191 NA
ENDBRANCH  30  32
ENDBRANCH  23  26
ENDBRANCH  15  23
BRANCH  13  12
ATOM     12  C   UNL     1      -0.316   1.606  24.090  0.00  0.00    +0.047 C 
BRANCH  12  11
ATOM      3  C   UNL     1      -2.194   3.650  25.162  0.00  0.00    +0.172 A 
ATOM      4  C   UNL     1      -1.655   3.494  25.767  0.00  0.00    +0.036 A 
ATOM      5  C   UNL     1      -1.051   2.944  25.651  0.00  0.00    -0.016 A 
ATOM      6  C   UNL     1      -0.985   2.550  24.928  0.00  0.00    +0.012 A 
ATOM      7  C   UNL     1      -1.525   2.705  24.324  0.00  0.00    +0.041 A 
ATOM      8  C   UNL     1      -2.129   3.255  24.440  0.00  0.00    +0.172 A 
ATOM     11  C   UNL     1      -0.382   2.000  24.812  0.00  0.00    +0.053 C 
ATOM     34  N   UNL     1       0.157   1.845  25.417  0.00  0.00    -0.274 NA
ATOM     35  C   UNL     1       0.091   2.240  26.139  0.00  0.00    +0.130 C 
ATOM     36  C   UNL     1      -0.512   2.789  26.256  0.00  0.00    +0.053 C 
BRANCH   3   2
ATOM      1  C   UNL     1      -2.985   4.451  26.041  0.00  0.00    +0.253 C 
ATOM      2  O   UNL     1      -2.798   4.199  25.279  0.00  0.00    -0.468 OA
ENDBRANCH   3   2
BRANCH   8   9
ATOM      9  O   UNL     1      -2.667   3.411  23.835  0.00  0.00    -0.468 OA
ATOM     10  C   UNL     1      -3.147   2.806  23.544  0.00  0.00    +0.253 C 
ENDBRANCH   8   9
ENDBRANCH  12  11
ENDBRANCH  13  12
BRANCH  18  19
ATOM     19  C   UNL     1       0.911   0.765  23.377  0.00  0.00    +0.114 C 
BRANCH  19  20
ATOM     20  C   UNL     1       1.461   0.359  22.916  0.00  0.00    +0.365 C 
ATOM     21  O   UNL     1       1.243   0.061  22.178  0.00  0.00    -0.246 OA
ATOM     22  O   UNL     1       2.232   0.250  23.193  0.00  0.00    -0.246 OA
ENDBRANCH  19  20
ENDBRANCH  18  19
TORSDOF 9
ENDMDL
MODEL 5
REMARK VINA RESULT:      -9.6      1.521      4.444
REMARK  Name = 
REMARK  9 active torsions:
REMARK  status: ('A' for Active; 'I' for Inactive)
REMARK    1  A    between atoms: O_2  and  C_3
REMARK    2  A    between atoms: C_8  and  O_9
REMARK    3  A    between atoms: C_11  and  C_12
REMARK    4  A    between atoms: C_12  and  C_13
REMARK    5  A    between atoms: N_15  and  S_23
REMARK    6  A    between atoms: C_18  and  C_19
REMARK    7  A    between atoms: C_19  and  C_20
REMARK    8  A    between atoms: S_23  and  C_26
REMARK    9  A    between atoms: C_30  and  C_32
REMARK                            x       y       z     vdW  Elec       q    Type
REMARK                         _______ _______ _______ _____ _____    ______ ____
ROOT
ATOM     13  C   UNL     1      -3.464   0.294  24.479  0.00  0.00    +0.024 C 
ATOM     14  C   UNL     1      -2.761   0.717  24.557  0.00  0.00    +0.096 C 
ATOM     15  N   UNL     1      -2.040   0.316  24.593  0.00  0.00    -0.156 NA
ATOM     16  C   UNL     1      -2.024  -0.508  24.552  0.00  0.00    +0.096 C 
ATOM     17  C   UNL     1      -2.727  -0.930  24.475  0.00  0.00    +0.020 C 
ATOM     18  C   UNL     1      -3.448  -0.530  24.438  0.00  0.00    +0.014 C 
ENDROOT
BRANCH  15  23
ATOM     23  S   UNL     1      -1.336   0.739  24.671  0.00  0.00    +0.063 S 
ATOM     24  O   UNL     1      -1.177   0.621  23.870  0.00  0.00    -0.153 OA
ATOM     25  O   UNL     1      -1.495   0.857  25.472  0.00  0.00    -0.153 OA
BRANCH  23  26
ATOM     26  C   UNL     1      -0.632   1.162  24.748  0.00  0.00    +0.123 A 
ATOM     27  C   UNL     1      -0.083   1.165  24.132  0.00  0.00    +0.020 A 
ATOM     28  C   UNL     1       0.621   1.588  24.210  0.00  0.00    +0.002 A 
ATOM     29  C   UNL     1       0.776   2.008  24.903  0.00  0.00    +0.010 A 
ATOM     30  C   UNL     1       0.227   2.005  25.518  0.00  0.00    +0.070 A 
ATOM     31  C   UNL     1      -0.477   1.582  25.441  0.00  0.00    +0.030 A 
BRANCH  30  32
ATOM     32  C   UNL     1       0.382   2.425  26.212  0.00  0.00    +0.100 C 
ATOM     33  N   UNL     1       0.536   2.845  26.905  0.00  0.00    -0.191 NA
ENDBRANCH  30  32
ENDBRANCH  23  26
ENDBRANCH  15  23
BRANCH  13  12
ATOM     12  C   UNL     1      -4.184   0.695  24.443  0.00  0.00    +0.047 C 
BRANCH  12  11
ATOM      3  C   UNL     1      -5.479   3.174  25.457  0.00  0.00    +0.172 A 
ATOM      4  C   UNL     1      -5.082   3.389  24.766  0.00  0.00    +0.036 A 
ATOM      5  C   UNL     1      -4.659   2.823  24.339  0.00  0.00    -0.016 A 
ATOM      6  C   UNL     1      -4.633   2.041  24.604  0.00  0.00    +0.012 A 
ATOM      7  C   UNL     1      -5.030   1.827  25.295  0.00  0.00    +0.041 A 
ATOM      8  C   UNL     1      -5.453   2.392  25.722  0.00  0.00    +0.172 A 
ATOM     11  C   UNL     1      -4.210   1.475  24.178  0.00  0.00    +0.053 C 
ATOM     34  N   UNL     1      -3.814   1.690  23.488  0.00  0.00    -0.274 NA
ATOM     35  C   UNL     1      -3.840   2.472  23.223  0.00  0.00    +0.130 C 
ATOM     36  C   UNL     1      -4.262   3.037  23.649  0.00  0.00    +0.053 C 
BRANCH   3   2
ATOM      1  C   UNL     1      -5.852   4.536  25.673  0.00  0.00    +0.253 C 
ATOM      2  O   UNL     1      -5.901   3.740  25.882  0.00  0.00    -0.468 OA
ENDBRANCH   3   2
BRANCH   8   9
ATOM      9  O   UNL     1      -5.849   2.178  26.412  0.00  0.00    -0.468 OA
ATOM     10  C   UNL     1      -6.363   1.533  26.409  0.00  0.00    +0.253 C 
ENDBRANCH   8   9
ENDBRANCH  12  11
ENDBRANCH  13  12
BRANCH  18  19
ATOM     19  C   UNL     1      -4.152  -0.953  24.361  0.00  0.00    +0.114 C 
BRANCH  19  20
ATOM     20  C   UNL     1      -4.131  -1.767  24.233  0.00  0.00    +0.365 C 
ATOM     21  O   UNL     1      -4.266  -2.071  23.478  0.00  0.00    -0.246 OA
ATOM     22  O   UNL     1      -3.976  -2.280  24.862  0.00  0.00    -0.246 OA
ENDBRANCH  19  20
ENDBRANCH  18  19
TORSDOF 9
ENDMDL
MODEL 6
REMARK VINA RESULT:      -9.5      2.451      4.340
REMARK  Name = 
REMARK  9 active torsions:
REMARK  status: ('A' for Active; 'I' for Inactive)
REMARK    1  A    between atoms: O_2  and  C_3
REMARK    2  A    between atoms: C_8  and  O_9
REMARK    3  A    between atoms: C_11  and  C_12
REMARK    4  A    between atoms: C_12  and  C_13
REMARK    5  A    between atoms: N_15  and  S_23
REMARK    6  A    between atoms: C_18  and  C_19
REMARK    7  A    between atoms: C_19  and  C_20
REMARK    8  A    between atoms: S_23  and  C_26
REMARK    9  A    between atoms: C_30  and  C_32
REMARK                            x       y       z     vdW  Elec       q    Type
REMARK                         _______ _______ _______ _____ _____    ______ ____
ROOT
ATOM     13  C   UNL     1      -1.334   0.441  24.810  0.00  0.00    +0.024 C 
ATOM     14  C   UNL     1      -0.691   0.481  24.297  0.00  0.00    +0.096 C 
ATOM     15  N   UNL     1      -0.351  -0.212  24.004  0.00  0.00    -0.156 NA
ATOM     16  C   UNL     1      -0.656  -0.945  24.226  0.00  0.00    +0.096 C 
ATOM     17  C   UNL     1      -1.300  -0.986  24.739  0.00  0.00    +0.020 C 
ATOM     18  C   UNL     1      -1.639  -0.294  25.032  0.00  0.00    +0.014 C 
ENDROOT
BRANCH  15  23
ATOM     23  S   UNL     1       0.294  -0.171  23.491  0.00  0.00    +0.063 S 
ATOM     24  O   UNL     1       0.702  -0.714  23.960  0.00  0.00    -0.153 OA
ATOM     25  O   UNL     1      -0.115   0.371  23.022  0.00  0.00    -0.153 OA
BRANCH  23  26
ATOM     26  C   UNL     1       0.938  -0.131  22.977  0.00  0.00    +0.123 A 
ATOM     27  C   UNL     1       0.892  -0.479  22.231  0.00  0.00    +0.020 A 
ATOM     28  C   UNL     1       1.537  -0.438  21.717  0.00  0.00    +0.002 A 
ATOM     29  C   UNL     1       2.227  -0.049  21.950  0.00  0.00    +0.010 A 
ATOM     30  C   UNL     1       2.271   0.299  22.697  0.00  0.00    +0.070 A 
ATOM     31  C   UNL     1       1.627   0.258  23.210  0.00  0.00    +0.030 A 
BRANCH  30  32
ATOM     32  C   UNL     1       2.961   0.688  22.930  0.00  0.00    +0.100 C 
ATOM     33  N   UNL     1       3.650   1.077  23.162  0.00  0.00    -0.191 NA
ENDBRANCH  30  32
ENDBRANCH  23  26
ENDBRANCH  15  23
BRANCH  13  12
ATOM     12  C   UNL     1      -1.674   1.133  25.102  0.00  0.00    +0.047 C 
BRANCH  12  11
ATOM      3  C   UNL     1      -1.811   4.105  25.136  0.00  0.00    +0.172 A 
ATOM      4  C   UNL     1      -1.128   3.902  25.552  0.00  0.00    +0.036 A 
ATOM      5  C   UNL     1      -0.923   3.109  25.648  0.00  0.00    -0.016 A 
ATOM      6  C   UNL     1      -1.401   2.517  25.327  0.00  0.00    +0.012 A 
ATOM      7  C   UNL     1      -2.084   2.720  24.911  0.00  0.00    +0.041 A 
ATOM      8  C   UNL     1      -2.290   3.513  24.815  0.00  0.00    +0.172 A 
ATOM     11  C   UNL     1      -1.196   1.724  25.423  0.00  0.00    +0.053 C 
ATOM     34  N   UNL     1      -0.514   1.522  25.839  0.00  0.00    -0.274 NA
ATOM     35  C   UNL     1      -0.035   2.114  26.160  0.00  0.00    +0.130 C 
ATOM     36  C   UNL     1      -0.240   2.906  26.064  0.00  0.00    +0.053 C 
BRANCH   3   2
ATOM      1  C   UNL     1      -1.433   5.480  25.061  0.00  0.00    +0.253 C 
ATOM      2  O   UNL     1      -2.016   4.898  25.040  0.00  0.00    -0.468 OA
ENDBRANCH   3   2
BRANCH   8   9
ATOM      9  O   UNL     1      -2.972   3.716  24.399  0.00  0.00    -0.468 OA
ATOM     10  C   UNL     1      -3.669   3.292  24.519  0.00  0.00    +0.253 C 
ENDBRANCH   8   9
ENDBRANCH  12  11
ENDBRANCH  13  12
BRANCH  18  19
ATOM     19  C   UNL     1      -2.284  -0.335  25.545  0.00  0.00    +0.114 C 
BRANCH  19  20
ATOM     20  C   UNL     1      -2.785  -0.989  25.526  0.00  0.00    +0.365 C 
ATOM     21  O   UNL     1      -3.396  -1.025  24.973  0.00  0.00    -0.246 OA
ATOM     22  O   UNL     1      -2.676  -1.608  26.061  0.00  0.00    -0.246 OA
ENDBRANCH  19  20
ENDBRANCH  18  19
TORSDOF 9
ENDMDL
MODEL 7
REMARK VINA RESULT:      -9.4      1.497      3.940
REMARK  Name = 
REMARK  9 active torsions:
REMARK  status: ('A' for Active; 'I' for Inactive)
REMARK    1  A    between atoms: O_2  and  C_3
REMARK    2  A    between atoms: C_8  and  O_9
REMARK    3  A    between atoms: C_11  and  C_12
REMARK    4  A    between atoms: C_12  and  C_13
REMARK    5  A    between atoms: N_15  and  S_23
REMARK    6  A    between atoms: C_18  and  C_19
REMARK    7  A    between atoms: C_19  and  C_20
REMARK    8  A    between atoms: S_23  and  C_26
REMARK    9  A    between atoms: C_30  and  C_32
REMARK                            x       y       z     vdW  Elec       q    Type
REMARK                         _______ _______ _______ _____ _____    ______ ____
ROOT
ATOM     13  C   UNL     1      -3.230  -0.598  24.389  0.00  0.00    +0.024 C 
ATOM     14  C   UNL     1      -3.549   0.129  24.611  0.00  0.00    +0.096 C 
ATOM     15  N   UNL     1      -4.364   0.207  24.716  0.00  0.00    -0.156 NA
ATOM     16  C   UNL     1      -4.858  -0.443  24.601  0.00  0.00    +0.096 C 
ATOM     17  C   UNL     1      -4.540  -1.170  24.380  0.00  0.00    +0.020 C 
ATOM     18  C   UNL     1      -3.725  -1.248  24.274  0.00  0.00    +0.014 C 
ENDROOT
BRANCH  15  23
ATOM     23  S   UNL     1      -4.683   0.935  24.938  0.00  0.00    +0.063 S 
ATOM     24  O   UNL     1      -4.583   1.213  24.168  0.00  0.00    -0.153 OA
ATOM     25  O   UNL     1      -4.783   0.657  25.708  0.00  0.00    -0.153 OA
BRANCH  23  26
ATOM     26  C   UNL     1      -5.002   1.663  25.159  0.00  0.00    +0.123 A 
ATOM     27  C   UNL     1      -5.821   1.753  25.217  0.00  0.00    +0.020 A 
ATOM     28  C   UNL     1      -6.140   2.481  25.439  0.00  0.00    +0.002 A 
ATOM     29  C   UNL     1      -5.641   3.119  25.602  0.00  0.00    +0.010 A 
ATOM     30  C   UNL     1      -4.823   3.027  25.543  0.00  0.00    +0.070 A 
ATOM     31  C   UNL     1      -4.504   2.299  25.322  0.00  0.00    +0.030 A 
BRANCH  30  32
ATOM     32  C   UNL     1      -4.324   3.664  25.706  0.00  0.00    +0.100 C 
ATOM     33  N   UNL     1      -3.826   4.301  25.869  0.00  0.00    -0.191 NA
ENDBRANCH  30  32
ENDBRANCH  23  26
ENDBRANCH  15  23
BRANCH  13  12
ATOM     12  C   UNL     1      -2.416  -0.677  24.284  0.00  0.00    +0.047 C 
BRANCH  12  11
ATOM      3  C   UNL     1      -0.276   1.387  24.403  0.00  0.00    +0.172 A 
ATOM      4  C   UNL     1      -0.297   1.035  25.149  0.00  0.00    +0.036 A 
ATOM      5  C   UNL     1      -0.837   0.431  25.306  0.00  0.00    -0.016 A 
ATOM      6  C   UNL     1      -1.357   0.178  24.716  0.00  0.00    +0.012 A 
ATOM      7  C   UNL     1      -1.336   0.531  23.970  0.00  0.00    +0.041 A 
ATOM      8  C   UNL     1      -0.796   1.135  23.813  0.00  0.00    +0.172 A 
ATOM     11  C   UNL     1      -1.896  -0.425  24.873  0.00  0.00    +0.053 C 
ATOM     34  N   UNL     1      -1.917  -0.777  25.618  0.00  0.00    -0.274 NA
ATOM     35  C   UNL     1      -1.397  -0.525  26.208  0.00  0.00    +0.130 C 
ATOM     36  C   UNL     1      -0.857   0.079  26.051  0.00  0.00    +0.053 C 
BRANCH   3   2
ATOM      1  C   UNL     1       0.529   2.476  24.858  0.00  0.00    +0.253 C 
ATOM      2  O   UNL     1       0.264   1.990  24.246  0.00  0.00    -0.468 OA
ENDBRANCH   3   2
BRANCH   8   9
ATOM      9  O   UNL     1      -0.775   1.487  23.068  0.00  0.00    -0.468 OA
ATOM     10  C   UNL     1      -1.450   1.851  22.765  0.00  0.00    +0.253 C 
ENDBRANCH   8   9
ENDBRANCH  12  11
ENDBRANCH  13  12
BRANCH  18  19
ATOM     19  C   UNL     1      -3.406  -1.976  24.053  0.00  0.00    +0.114 C 
BRANCH  19  20
ATOM     20  C   UNL     1      -3.887  -2.645  24.022  0.00  0.00    +0.365 C 
ATOM     21  O   UNL     1      -3.866  -3.198  24.634  0.00  0.00    -0.246 OA
ATOM     22  O   UNL     1      -4.391  -2.762  23.378  0.00  0.00    -0.246 OA
ENDBRANCH  19  20
ENDBRANCH  18  19
TORSDOF 9
ENDMDL
MODEL 8
REMARK VINA RESULT:      -9.3      1.492      3.587
REMARK  Name = 
REMARK  9 active torsions:
REMARK  status: ('A' for Active; 'I' for Inactive)
REMARK    1  A    between atoms: O_2  and  C_3
REMARK    2  A    between atoms: C_8  and  O_9
REMARK    3  A    between atoms: C_11  and  C_12
REMARK    4  A    between atoms: C_12  and  C_13
REMARK    5  A    between atoms: N_15  and  S_23
REMARK    6  A    between atoms: C_18  and  C_19
REMARK    7  A    between atoms: C_19  and  C_20
REMARK    8  A    between atoms: S_23  and  C_26
REMARK    9  A    between atoms: C_30  and  C_32
REMARK                            x       y       z     vdW  Elec       q    Type
REMARK                         _______ _______ _______ _____ _____    ______ ____
ROOT
ATOM     13  C   UNL     1      -2.200   0.215  24.738  0.00  0.00    +0.024 C 
ATOM     14  C   UNL     1      -2.889   0.660  24.809  0.00  0.00    +0.096 C 
ATOM     15  N   UNL     1      -3.617   0.282  24.904  0.00  0.00    -0.156 NA
ATOM     16  C   UNL     1      -3.654  -0.542  24.926  0.00  0.00    +0.096 C 
ATOM     17  C   UNL     1      -2.964  -0.987  24.854  0.00  0.00    +0.020 C 
ATOM     18  C   UNL     1      -2.237  -0.610  24.760  0.00  0.00    +0.014 C 
ENDROOT
BRANCH  15  23
ATOM     23  S   UNL     1      -4.308   0.728  24.975  0.00  0.00    +0.063 S 
ATOM     24  O   UNL     1      -4.180   0.795  25.788  0.00  0.00    -0.153 OA
ATOM     25  O   UNL     1      -4.436   0.661  24.163  0.00  0.00    -0.153 OA
BRANCH  23  26
ATOM     26  C   UNL     1      -4.998   1.174  25.047  0.00  0.00    +0.123 A 
ATOM     27  C   UNL     1      -5.731   0.824  24.903  0.00  0.00    +0.020 A 
ATOM     28  C   UNL     1      -6.422   1.270  24.975  0.00  0.00    +0.002 A 
ATOM     29  C   UNL     1      -6.379   2.066  25.191  0.00  0.00    +0.010 A 
ATOM     30  C   UNL     1      -5.645   2.415  25.334  0.00  0.00    +0.070 A 
ATOM     31  C   UNL     1      -4.955   1.969  25.262  0.00  0.00    +0.030 A 
BRANCH  30  32
ATOM     32  C   UNL     1      -5.602   3.211  25.550  0.00  0.00    +0.100 C 
ATOM     33  N   UNL     1      -5.559   4.006  25.765  0.00  0.00    -0.191 NA
ENDBRANCH  30  32
ENDBRANCH  23  26
ENDBRANCH  15  23
BRANCH  13  12
ATOM     12  C   UNL     1      -1.472   0.592  24.643  0.00  0.00    +0.047 C 
BRANCH  12  11
ATOM      3  C   UNL     1      -0.609   3.414  25.020  0.00  0.00    +0.172 A 
ATOM      4  C   UNL     1      -0.809   3.340  24.223  0.00  0.00    +0.036 A 
ATOM      5  C   UNL     1      -1.075   2.616  23.929  0.00  0.00    -0.016 A 
ATOM      6  C   UNL     1      -1.141   1.965  24.433  0.00  0.00    +0.012 A 
ATOM      7  C   UNL     1      -0.941   2.040  25.230  0.00  0.00    +0.041 A 
ATOM      8  C   UNL     1      -0.675   2.763  25.524  0.00  0.00    +0.172 A 
ATOM     11  C   UNL     1      -1.406   1.242  24.140  0.00  0.00    +0.053 C 
ATOM     34  N   UNL     1      -1.606   1.168  23.343  0.00  0.00    -0.274 NA
ATOM     35  C   UNL     1      -1.540   1.819  22.839  0.00  0.00    +0.130 C 
ATOM     36  C   UNL     1      -1.274   2.542  23.132  0.00  0.00    +0.053 C 
BRANCH   3   2
ATOM      1  C   UNL     1      -0.605   4.841  24.974  0.00  0.00    +0.253 C 
ATOM      2  O   UNL     1      -0.344   4.137  25.313  0.00  0.00    -0.468 OA
ENDBRANCH   3   2
BRANCH   8   9
ATOM      9  O   UNL     1      -0.476   2.837  26.321  0.00  0.00    -0.468 OA
ATOM     10  C   UNL     1       0.090   2.338  26.652  0.00  0.00    +0.253 C 
ENDBRANCH   8   9
ENDBRANCH  12  11
ENDBRANCH  13  12
BRANCH  18  19
ATOM     19  C   UNL     1      -1.546  -1.056  24.688  0.00  0.00    +0.114 C 
BRANCH  19  20
ATOM     20  C   UNL     1      -1.577  -1.877  24.759  0.00  0.00    +0.365 C 
ATOM     21  O   UNL     1      -1.762  -2.342  24.103  0.00  0.00    -0.246 OA
ATOM     22  O   UNL     1      -1.422  -2.234  25.488  0.00  0.00    -0.246 OA
ENDBRANCH  19  20
ENDBRANCH  18  19
TORSDOF 9
ENDMDL
