MODEL 1
REMARK VINA RESULT:     -13.8      0.000      0.000
REMARK  Name = 
REMARK  2 active torsions:
REMARK  status: ('A' for Active; 'I' for Inactive)
REMARK    1  A    between atoms: O_2  and  C_3
REMARK    2  A    between atoms: C_9  and  C_10
REMARK                            x       y       z     vdW  Elec       q    Type
REMARK                         _______ _______ _______ _____ _____    ______ ____
ROOT
ATOM     10  C   UNL     1      -3.563  -0.044  24.279  0.00  0.00    +0.003 A 
ATOM     11  C   UNL     1      -4.098   0.416  24.707  0.00  0.00    +0.006 A 
ATOM     12  C   UNL     1      -4.112   1.235  24.603  0.00  0.00    +0.069 A 
ATOM     13  C   UNL     1      -3.593   1.593  24.072  0.00  0.00    +0.078 A 
ATOM     14  N   UNL     1      -3.517   2.393  23.887  0.00  0.00    -0.178 NA
ATOM     15  C   UNL     1      -3.942   3.033  24.188  0.00  0.00    +0.264 C 
ATOM     16  O   UNL     1      -3.734   3.774  23.889  0.00  0.00    -0.271 OA
ATOM     17  C   UNL     1      -4.548   3.030  24.748  0.00  0.00    +0.157 C 
ATOM     18  C   UNL     1      -4.933   3.714  25.004  0.00  0.00    +0.064 C 
ATOM     19  C   UNL     1      -5.501   3.494  25.561  0.00  0.00    +0.174 C 
ATOM     20  O   UNL     1      -6.012   4.003  25.960  0.00  0.00    -0.221 OA
ATOM     21  C   UNL     1      -5.467   2.674  25.647  0.00  0.00    +0.127 C 
ATOM     22  N   UNL     1      -4.879   2.388  25.145  0.00  0.00    -0.267 N 
ATOM     23  C   UNL     1      -4.685   1.588  25.081  0.00  0.00    +0.251 C 
ATOM     24  O   UNL     1      -5.121   1.074  25.557  0.00  0.00    -0.270 OA
ATOM     25  C   UNL     1      -3.058   1.132  23.644  0.00  0.00    +0.017 A 
ATOM     26  C   UNL     1      -3.043   0.314  23.747  0.00  0.00    +0.001 A 
ENDROOT
BRANCH  10   9
ATOM      3  C   UNL     1      -3.006  -1.203  24.904  0.00  0.00    +0.139 A 
ATOM      4  C   UNL     1      -2.991  -2.021  25.008  0.00  0.00    +0.038 A 
ATOM      5  C   UNL     1      -3.517  -2.499  24.590  0.00  0.00    +0.015 A 
ATOM      6  C   UNL     1      -4.059  -2.160  24.069  0.00  0.00    +0.058 A 
ATOM      7 CL   UNL     1      -4.585  -2.638  23.651  0.00  0.00    -0.082 Cl
ATOM      8  C   UNL     1      -4.075  -1.341  23.965  0.00  0.00    +0.014 A 
ATOM      9  C   UNL     1      -3.548  -0.862  24.383  0.00  0.00    +0.035 A 
BRANCH   3   2
ATOM      1  C   UNL     1      -1.923  -1.064  25.826  0.00  0.00    +0.252 C 
ATOM      2  O   UNL     1      -2.481  -0.723  25.322  0.00  0.00    -0.471 OA
ENDBRANCH   3   2
ENDBRANCH  10   9
TORSDOF 2
ENDMDL
MODEL 2
REMARK VINA RESULT:     -12.5      1.214      1.980
REMARK  Name = 
REMARK  2 active torsions:
REMARK  status: ('A' for Active; 'I' for Inactive)
REMARK    1  A    between atoms: O_2  and  C_3
REMARK    2  A    between atoms: C_9  and  C_10
REMARK                            x       y       z     vdW  Elec       q    Type
REMARK                         _______ _______ _______ _____ _____    ______ ____
ROOT
ATOM     10  C   UNL     1      -4.008  -0.025  24.835  0.00  0.00    +0.003 A 
ATOM     11  C   UNL     1      -3.363   0.478  24.739  0.00  0.00    +0.006 A 
ATOM     12  C   UNL     1      -3.453   1.291  24.854  0.00  0.00    +0.069 A 
ATOM     13  C   UNL     1      -4.189   1.599  25.064  0.00  0.00    +0.078 A 
ATOM     14  N   UNL     1      -4.397   2.384  25.204  0.00  0.00    -0.178 NA
ATOM     15  C   UNL     1      -3.920   3.057  25.168  0.00  0.00    +0.264 C 
ATOM     16  O   UNL     1      -4.295   3.772  25.340  0.00  0.00    -0.271 OA
ATOM     17  C   UNL     1      -3.118   3.109  24.983  0.00  0.00    +0.157 C 
ATOM     18  C   UNL     1      -2.701   3.821  24.966  0.00  0.00    +0.064 C 
ATOM     19  C   UNL     1      -1.919   3.654  24.761  0.00  0.00    +0.174 C 
ATOM     20  O   UNL     1      -1.311   4.205  24.679  0.00  0.00    -0.221 OA
ATOM     21  C   UNL     1      -1.853   2.839  24.651  0.00  0.00    +0.127 C 
ATOM     22  N   UNL     1      -2.594   2.502  24.789  0.00  0.00    -0.267 N 
ATOM     23  C   UNL     1      -2.742   1.693  24.731  0.00  0.00    +0.251 C 
ATOM     24  O   UNL     1      -2.097   1.223  24.523  0.00  0.00    -0.270 OA
ATOM     25  C   UNL     1      -4.835   1.094  25.160  0.00  0.00    +0.017 A 
ATOM     26  C   UNL     1      -4.745   0.282  25.045  0.00  0.00    +0.001 A 
ENDROOT
BRANCH  10   9
ATOM      3  C   UNL     1      -3.606  -1.308  25.322  0.00  0.00    +0.139 A 
ATOM      4  C   UNL     1      -3.516  -2.119  25.207  0.00  0.00    +0.038 A 
ATOM      5  C   UNL     1      -3.739  -2.462  24.491  0.00  0.00    +0.015 A 
ATOM      6  C   UNL     1      -4.051  -1.993  23.889  0.00  0.00    +0.058 A 
ATOM      7 CL   UNL     1      -4.273  -2.335  23.172  0.00  0.00    -0.082 Cl
ATOM      8  C   UNL     1      -4.141  -1.180  24.003  0.00  0.00    +0.014 A 
ATOM      9  C   UNL     1      -3.918  -0.837  24.720  0.00  0.00    +0.035 A 
BRANCH   3   2
ATOM      1  C   UNL     1      -3.054  -1.431  26.634  0.00  0.00    +0.252 C 
ATOM      2  O   UNL     1      -3.384  -0.964  26.038  0.00  0.00    -0.471 OA
ENDBRANCH   3   2
ENDBRANCH  10   9
TORSDOF 2
ENDMDL
MODEL 3
REMARK VINA RESULT:     -12.2      2.115      4.406
REMARK  Name = 
REMARK  2 active torsions:
REMARK  status: ('A' for Active; 'I' for Inactive)
REMARK    1  A    between atoms: O_2  and  C_3
REMARK    2  A    between atoms: C_9  and  C_10
REMARK                            x       y       z     vdW  Elec       q    Type
REMARK                         _______ _______ _______ _____ _____    ______ ____
ROOT
ATOM     10  C   UNL     1      -3.379   1.975  24.560  0.00  0.00    +0.003 A 
ATOM     11  C   UNL     1      -3.061   1.293  24.897  0.00  0.00    +0.006 A 
ATOM     12  C   UNL     1      -2.350   0.985  24.611  0.00  0.00    +0.069 A 
ATOM     13  C   UNL     1      -1.958   1.359  23.990  0.00  0.00    +0.078 A 
ATOM     14  N   UNL     1      -1.250   1.145  23.626  0.00  0.00    -0.178 NA
ATOM     15  C   UNL     1      -0.758   0.505  23.793  0.00  0.00    +0.264 C 
ATOM     16  O   UNL     1      -0.081   0.440  23.326  0.00  0.00    -0.271 OA
ATOM     17  C   UNL     1      -0.854  -0.081  24.367  0.00  0.00    +0.157 C 
ATOM     18  C   UNL     1      -0.317  -0.698  24.480  0.00  0.00    +0.064 C 
ATOM     19  C   UNL     1      -0.597  -1.168  25.098  0.00  0.00    +0.174 C 
ATOM     20  O   UNL     1      -0.232  -1.846  25.395  0.00  0.00    -0.221 OA
ATOM     21  C   UNL     1      -1.306  -0.842  25.366  0.00  0.00    +0.127 C 
ATOM     22  N   UNL     1      -1.464  -0.170  24.914  0.00  0.00    -0.267 N 
ATOM     23  C   UNL     1      -2.130   0.304  25.024  0.00  0.00    +0.251 C 
ATOM     24  O   UNL     1      -2.645   0.067  25.623  0.00  0.00    -0.270 OA
ATOM     25  C   UNL     1      -2.276   2.042  23.653  0.00  0.00    +0.017 A 
ATOM     26  C   UNL     1      -2.987   2.350  23.937  0.00  0.00    +0.001 A 
ENDROOT
BRANCH  10   9
ATOM      3  C   UNL     1      -4.086   2.962  25.315  0.00  0.00    +0.139 A 
ATOM      4  C   UNL     1      -4.796   3.270  25.599  0.00  0.00    +0.038 A 
ATOM      5  C   UNL     1      -5.509   2.901  25.414  0.00  0.00    +0.015 A 
ATOM      6  C   UNL     1      -5.513   2.223  24.945  0.00  0.00    +0.058 A 
ATOM      7 CL   UNL     1      -6.227   1.853  24.760  0.00  0.00    -0.082 Cl
ATOM      8  C   UNL     1      -4.803   1.914  24.659  0.00  0.00    +0.014 A 
ATOM      9  C   UNL     1      -4.089   2.283  24.844  0.00  0.00    +0.035 A 
BRANCH   3   2
ATOM      1  C   UNL     1      -3.361   3.974  26.017  0.00  0.00    +0.252 C 
ATOM      2  O   UNL     1      -3.371   3.331  25.499  0.00  0.00    -0.471 OA
ENDBRANCH   3   2
ENDBRANCH  10   9
TORSDOF 2
ENDMDL
MODEL 4
REMARK VINA RESULT:     -12.2      2.050      4.655
REMARK  Name = 
REMARK  2 active torsions:
REMARK  status: ('A' for Active; 'I' for Inactive)
REMARK    1  A    between atoms: O_2  and  C_3
REMARK    2  A    between atoms: C_9  and  C_10
REMARK                            x       y       z     vdW  Elec       q    Type
REMARK                         _______ _______ _______ _____ _____    ______ ____
ROOT
ATOM     10  C   UNL     1      -4.093   0.849  24.647  0.00  0.00    +0.003 A 
ATOM     11  C   UNL     1      -3.334   0.640  24.894  0.00  0.00    +0.006 A 
ATOM     12  C   UNL     1      -3.067  -0.134  24.793  0.00  0.00    +0.069 A 
ATOM     13  C   UNL     1      -3.558  -0.699  24.446  0.00  0.00    +0.078 A 
ATOM     14  N   UNL     1      -3.401  -1.494  24.295  0.00  0.00    -0.178 NA
ATOM     15  C   UNL     1      -2.714  -1.922  24.454  0.00  0.00    +0.264 C 
ATOM     16  O   UNL     1      -2.728  -2.718  24.235  0.00  0.00    -0.271 OA
ATOM     17  C   UNL     1      -2.014  -1.660  24.804  0.00  0.00    +0.157 C 
ATOM     18  C   UNL     1      -1.361  -2.147  24.934  0.00  0.00    +0.064 C 
ATOM     19  C   UNL     1      -0.771  -1.693  25.290  0.00  0.00    +0.174 C 
ATOM     20  O   UNL     1      -0.024  -1.960  25.517  0.00  0.00    -0.221 OA
ATOM     21  C   UNL     1      -1.061  -0.925  25.381  0.00  0.00    +0.127 C 
ATOM     22  N   UNL     1      -1.828  -0.905  25.080  0.00  0.00    -0.267 N 
ATOM     23  C   UNL     1      -2.296  -0.226  25.075  0.00  0.00    +0.251 C 
ATOM     24  O   UNL     1      -1.950   0.451  25.395  0.00  0.00    -0.270 OA
ATOM     25  C   UNL     1      -4.317  -0.489  24.199  0.00  0.00    +0.017 A 
ATOM     26  C   UNL     1      -4.585   0.285  24.300  0.00  0.00    +0.001 A 
ENDROOT
BRANCH  10   9
ATOM      3  C   UNL     1      -4.154   2.206  24.201  0.00  0.00    +0.139 A 
ATOM      4  C   UNL     1      -4.422   2.980  24.302  0.00  0.00    +0.038 A 
ATOM      5  C   UNL     1      -4.895   3.171  24.949  0.00  0.00    +0.015 A 
ATOM      6  C   UNL     1      -5.102   2.589  25.496  0.00  0.00    +0.058 A 
ATOM      7 CL   UNL     1      -5.576   2.781  26.142  0.00  0.00    -0.082 Cl
ATOM      8  C   UNL     1      -4.835   1.815  25.395  0.00  0.00    +0.014 A 
ATOM      9  C   UNL     1      -4.360   1.623  24.748  0.00  0.00    +0.035 A 
BRANCH   3   2
ATOM      1  C   UNL     1      -3.454   2.600  23.019  0.00  0.00    +0.252 C 
ATOM      2  O   UNL     1      -3.680   2.013  23.554  0.00  0.00    -0.471 OA
ENDBRANCH   3   2
ENDBRANCH  10   9
TORSDOF 2
ENDMDL
MODEL 5
REMARK VINA RESULT:     -11.8      2.094      4.588
REMARK  Name = 
REMARK  2 active torsions:
REMARK  status: ('A' for Active; 'I' for Inactive)
REMARK    1  A    between atoms: O_2  and  C_3
REMARK    2  A    between atoms: C_9  and  C_10
REMARK                            x       y       z     vdW  Elec       q    Type
REMARK                         _______ _______ _______ _____ _____    ______ ____
ROOT
ATOM     10  C   UNL     1      -3.118   1.476  24.642  0.00  0.00    +0.003 A 
ATOM     11  C   UNL     1      -3.498   0.758  24.501  0.00  0.00    +0.006 A 
ATOM     12  C   UNL     1      -3.090   0.048  24.604  0.00  0.00    +0.069 A 
ATOM     13  C   UNL     1      -2.303   0.056  24.849  0.00  0.00    +0.078 A 
ATOM     14  N   UNL     1      -1.800  -0.583  24.984  0.00  0.00    -0.178 NA
ATOM     15  C   UNL     1      -1.960  -1.389  24.909  0.00  0.00    +0.264 C 
ATOM     16  O   UNL     1      -1.334  -1.897  25.086  0.00  0.00    -0.271 OA
ATOM     17  C   UNL     1      -2.663  -1.754  24.679  0.00  0.00    +0.157 C 
ATOM     18  C   UNL     1      -2.753  -2.573  24.624  0.00  0.00    +0.064 C 
ATOM     19  C   UNL     1      -3.525  -2.729  24.379  0.00  0.00    +0.174 C 
ATOM     20  O   UNL     1      -3.854  -3.475  24.253  0.00  0.00    -0.221 OA
ATOM     21  C   UNL     1      -3.912  -2.006  24.283  0.00  0.00    +0.127 C 
ATOM     22  N   UNL     1      -3.379  -1.404  24.468  0.00  0.00    -0.267 N 
ATOM     23  C   UNL     1      -3.570  -0.603  24.435  0.00  0.00    +0.251 C 
ATOM     24  O   UNL     1      -4.342  -0.426  24.201  0.00  0.00    -0.270 OA
ATOM     25  C   UNL     1      -1.922   0.774  24.990  0.00  0.00    +0.017 A 
ATOM     26  C   UNL     1      -2.329   1.484  24.887  0.00  0.00    +0.001 A 
ENDROOT
BRANCH  10   9
ATOM      3  C   UNL     1      -3.463   2.598  23.826  0.00  0.00    +0.139 A 
ATOM      4  C   UNL     1      -3.870   3.307  23.723  0.00  0.00    +0.038 A 
ATOM      5  C   UNL     1      -4.339   3.606  24.332  0.00  0.00    +0.015 A 
ATOM      6  C   UNL     1      -4.402   3.195  25.044  0.00  0.00    +0.058 A 
ATOM      7 CL   UNL     1      -4.871   3.493  25.653  0.00  0.00    -0.082 Cl
ATOM      8  C   UNL     1      -3.995   2.484  25.148  0.00  0.00    +0.014 A 
ATOM      9  C   UNL     1      -3.525   2.185  24.539  0.00  0.00    +0.035 A 
BRANCH   3   2
ATOM      1  C   UNL     1      -2.976   2.678  22.485  0.00  0.00    +0.252 C 
ATOM      2  O   UNL     1      -2.993   2.298  23.218  0.00  0.00    -0.471 OA
ENDBRANCH   3   2
ENDBRANCH  10   9
TORSDOF 2
ENDMDL
MODEL 6
REMARK VINA RESULT:     -11.4      2.373      4.773
REMARK  Name = 
REMARK  2 active torsions:
REMARK  status: ('A' for Active; 'I' for Inactive)
REMARK    1  A    between atoms: O_2  and  C_3
REMARK    2  A    between atoms: C_9  and  C_10
REMARK                            x       y       z     vdW  Elec       q    Type
REMARK                         _______ _______ _______ _____ _____    ______ ____
ROOT
ATOM     10  C   UNL     1      -2.656   2.450  24.680  0.00  0.00    +0.003 A 
ATOM     11  C   UNL     1      -2.329   1.730  24.914  0.00  0.00    +0.006 A 
ATOM     12  C   UNL     1      -2.679   1.021  24.675  0.00  0.00    +0.069 A 
ATOM     13  C   UNL     1      -3.355   1.032  24.204  0.00  0.00    +0.078 A 
ATOM     14  N   UNL     1      -3.786   0.396  23.907  0.00  0.00    -0.178 NA
ATOM     15  C   UNL     1      -3.648  -0.411  24.010  0.00  0.00    +0.264 C 
ATOM     16  O   UNL     1      -4.185  -0.917  23.640  0.00  0.00    -0.271 OA
ATOM     17  C   UNL     1      -3.044  -0.780  24.435  0.00  0.00    +0.157 C 
ATOM     18  C   UNL     1      -2.966  -1.599  24.496  0.00  0.00    +0.064 C 
ATOM     19  C   UNL     1      -2.303  -1.759  24.960  0.00  0.00    +0.174 C 
ATOM     20  O   UNL     1      -2.021  -2.507  25.162  0.00  0.00    -0.221 OA
ATOM     21  C   UNL     1      -1.971  -1.037  25.185  0.00  0.00    +0.127 C 
ATOM     22  N   UNL     1      -2.429  -0.433  24.861  0.00  0.00    -0.267 N 
ATOM     23  C   UNL     1      -2.266   0.368  24.968  0.00  0.00    +0.251 C 
ATOM     24  O   UNL     1      -1.604   0.541  25.429  0.00  0.00    -0.270 OA
ATOM     25  C   UNL     1      -3.682   1.753  23.970  0.00  0.00    +0.017 A 
ATOM     26  C   UNL     1      -3.333   2.462  24.207  0.00  0.00    +0.001 A 
ENDROOT
BRANCH  10   9
ATOM      3  C   UNL     1      -2.690   3.644  25.465  0.00  0.00    +0.139 A 
ATOM      4  C   UNL     1      -2.341   4.352  25.703  0.00  0.00    +0.038 A 
ATOM      5  C   UNL     1      -1.609   4.575  25.394  0.00  0.00    +0.015 A 
ATOM      6  C   UNL     1      -1.226   4.091  24.848  0.00  0.00    +0.058 A 
ATOM      7 CL   UNL     1      -0.495   4.314  24.539  0.00  0.00    -0.082 Cl
ATOM      8  C   UNL     1      -1.575   3.382  24.609  0.00  0.00    +0.014 A 
ATOM      9  C   UNL     1      -2.307   3.158  24.918  0.00  0.00    +0.035 A 
BRANCH   3   2
ATOM      1  C   UNL     1      -3.809   3.909  26.313  0.00  0.00    +0.252 C 
ATOM      2  O   UNL     1      -3.421   3.419  25.773  0.00  0.00    -0.471 OA
ENDBRANCH   3   2
ENDBRANCH  10   9
TORSDOF 2
ENDMDL
MODEL 7
REMARK VINA RESULT:     -11.1      2.085      2.544
REMARK  Name = 
REMARK  2 active torsions:
REMARK  status: ('A' for Active; 'I' for Inactive)
REMARK    1  A    between atoms: O_2  and  C_3
REMARK    2  A    between atoms: C_9  and  C_10
REMARK                            x       y       z     vdW  Elec       q    Type
REMARK                         _______ _______ _______ _____ _____    ______ ____
ROOT
ATOM     10  C   UNL     1      -2.183   0.453  24.591  0.00  0.00    +0.003 A 
ATOM     11  C   UNL     1      -2.377   1.201  24.878  0.00  0.00    +0.006 A 
ATOM     12  C   UNL     1      -1.876   1.841  24.732  0.00  0.00    +0.069 A 
ATOM     13  C   UNL     1      -1.183   1.732  24.299  0.00  0.00    +0.078 A 
ATOM     14  N   UNL     1      -0.612   2.291  24.093  0.00  0.00    -0.178 NA
ATOM     15  C   UNL     1      -0.594   3.097  24.268  0.00  0.00    +0.264 C 
ATOM     16  O   UNL     1       0.058   3.512  23.981  0.00  0.00    -0.271 OA
ATOM     17  C   UNL     1      -1.143   3.543  24.694  0.00  0.00    +0.157 C 
ATOM     18  C   UNL     1      -1.061   4.352  24.833  0.00  0.00    +0.064 C 
ATOM     19  C   UNL     1      -1.711   4.603  25.273  0.00  0.00    +0.174 C 
ATOM     20  O   UNL     1      -1.854   5.372  25.534  0.00  0.00    -0.221 OA
ATOM     21  C   UNL     1      -2.196   3.948  25.406  0.00  0.00    +0.127 C 
ATOM     22  N   UNL     1      -1.844   3.293  25.049  0.00  0.00    -0.267 N 
ATOM     23  C   UNL     1      -2.171   2.536  25.066  0.00  0.00    +0.251 C 
ATOM     24  O   UNL     1      -2.887   2.463  25.470  0.00  0.00    -0.270 OA
ATOM     25  C   UNL     1      -0.989   0.983  24.012  0.00  0.00    +0.017 A 
ATOM     26  C   UNL     1      -1.488   0.343  24.158  0.00  0.00    +0.001 A 
ENDROOT
BRANCH  10   9
ATOM      3  C   UNL     1      -2.508  -0.717  25.345  0.00  0.00    +0.139 A 
ATOM      4  C   UNL     1      -3.008  -1.357  25.491  0.00  0.00    +0.038 A 
ATOM      5  C   UNL     1      -3.682  -1.467  25.030  0.00  0.00    +0.015 A 
ATOM      6  C   UNL     1      -3.857  -0.938  24.421  0.00  0.00    +0.058 A 
ATOM      7 CL   UNL     1      -4.531  -1.049  23.960  0.00  0.00    -0.082 Cl
ATOM      8  C   UNL     1      -3.357  -0.298  24.275  0.00  0.00    +0.014 A 
ATOM      9  C   UNL     1      -2.682  -0.187  24.737  0.00  0.00    +0.035 A 
BRANCH   3   2
ATOM      1  C   UNL     1      -1.646  -1.147  26.402  0.00  0.00    +0.252 C 
ATOM      2  O   UNL     1      -1.833  -0.606  25.807  0.00  0.00    -0.471 OA
ENDBRANCH   3   2
ENDBRANCH  10   9
TORSDOF 2
ENDMDL
MODEL 8
REMARK VINA RESULT:     -10.9      1.644      2.315
REMARK  Name = 
REMARK  2 active torsions:
REMARK  status: ('A' for Active; 'I' for Inactive)
REMARK    1  A    between atoms: O_2  and  C_3
REMARK    2  A    between atoms: C_9  and  C_10
REMARK                            x       y       z     vdW  Elec       q    Type
REMARK                         _______ _______ _______ _____ _____    ______ ____
ROOT
ATOM     10  C   UNL     1      -2.612   0.543  24.537  0.00  0.00    +0.003 A 
ATOM     11  C   UNL     1      -2.840   1.290  24.800  0.00  0.00    +0.006 A 
ATOM     12  C   UNL     1      -3.641   1.483  24.851  0.00  0.00    +0.069 A 
ATOM     13  C   UNL     1      -4.213   0.929  24.639  0.00  0.00    +0.078 A 
ATOM     14  N   UNL     1      -5.034   1.007  24.649  0.00  0.00    -0.178 NA
ATOM     15  C   UNL     1      -5.486   1.660  24.873  0.00  0.00    +0.264 C 
ATOM     16  O   UNL     1      -6.304   1.566  24.820  0.00  0.00    -0.271 OA
ATOM     17  C   UNL     1      -5.227   2.396  25.143  0.00  0.00    +0.157 C 
ATOM     18  C   UNL     1      -5.739   3.009  25.351  0.00  0.00    +0.064 C 
ATOM     19  C   UNL     1      -5.282   3.652  25.592  0.00  0.00    +0.174 C 
ATOM     20  O   UNL     1      -5.568   4.382  25.848  0.00  0.00    -0.221 OA
ATOM     21  C   UNL     1      -4.488   3.436  25.533  0.00  0.00    +0.127 C 
ATOM     22  N   UNL     1      -4.454   2.660  25.255  0.00  0.00    -0.267 N 
ATOM     23  C   UNL     1      -3.748   2.254  25.126  0.00  0.00    +0.251 C 
ATOM     24  O   UNL     1      -3.057   2.674  25.292  0.00  0.00    -0.270 OA
ATOM     25  C   UNL     1      -3.985   0.180  24.376  0.00  0.00    +0.017 A 
ATOM     26  C   UNL     1      -3.185  -0.013  24.325  0.00  0.00    +0.001 A 
ENDROOT
BRANCH  10   9
ATOM      3  C   UNL     1      -1.474  -0.161  25.040  0.00  0.00    +0.139 A 
ATOM      4  C   UNL     1      -0.674  -0.355  24.989  0.00  0.00    +0.038 A 
ATOM      5  C   UNL     1      -0.211  -0.038  24.385  0.00  0.00    +0.015 A 
ATOM      6  C   UNL     1      -0.548   0.473  23.831  0.00  0.00    +0.058 A 
ATOM      7 CL   UNL     1      -0.085   0.789  23.227  0.00  0.00    -0.082 Cl
ATOM      8  C   UNL     1      -1.348   0.666  23.882  0.00  0.00    +0.014 A 
ATOM      9  C   UNL     1      -1.812   0.349  24.486  0.00  0.00    +0.035 A 
BRANCH   3   2
ATOM      1  C   UNL     1      -1.598  -0.976  26.208  0.00  0.00    +0.252 C 
ATOM      2  O   UNL     1      -1.938  -0.478  25.644  0.00  0.00    -0.471 OA
ENDBRANCH   3   2
ENDBRANCH  10   9
TORSDOF 2
ENDMDL
MODEL 9
REMARK VINA RESULT:     -10.9      2.304      3.263
REMARK  Name = 
REMARK  2 active torsions:
REMARK  status: ('A' for Active; 'I' for Inactive)
REMARK    1  A    between atoms: O_2  and  C_3
REMARK    2  A    between atoms: C_9  and  C_10
REMARK                            x       y       z     vdW  Elec       q    Type
REMARK                         _______ _______ _______ _____ _____    ______ ____
ROOT
ATOM     10  C   UNL     1      -3.033   0.766  24.139  0.00  0.00    +0.003 A 
ATOM     11  C   UNL     1      -2.468   0.870  24.730  0.00  0.00    +0.006 A 
ATOM     12  C   UNL     1      -1.918   1.483  24.671  0.00  0.00    +0.069 A 
ATOM     13  C   UNL     1      -1.934   1.991  24.021  0.00  0.00    +0.078 A 
ATOM     14  N   UNL     1      -1.441   2.631  23.856  0.00  0.00    -0.178 NA
ATOM     15  C   UNL     1      -0.809   2.922  24.300  0.00  0.00    +0.264 C 
ATOM     16  O   UNL     1      -0.420   3.577  23.984  0.00  0.00    -0.271 OA
ATOM     17  C   UNL     1      -0.515   2.643  25.019  0.00  0.00    +0.157 C 
ATOM     18  C   UNL     1       0.126   2.986  25.411  0.00  0.00    +0.064 C 
ATOM     19  C   UNL     1       0.257   2.560  26.105  0.00  0.00    +0.174 C 
ATOM     20  O   UNL     1       0.845   2.712  26.664  0.00  0.00    -0.221 OA
ATOM     21  C   UNL     1      -0.303   1.955  26.142  0.00  0.00    +0.127 C 
ATOM     22  N   UNL     1      -0.779   2.007  25.471  0.00  0.00    -0.267 N 
ATOM     23  C   UNL     1      -1.404   1.490  25.317  0.00  0.00    +0.251 C 
ATOM     24  O   UNL     1      -1.531   0.902  25.882  0.00  0.00    -0.270 OA
ATOM     25  C   UNL     1      -2.500   1.886  23.430  0.00  0.00    +0.017 A 
ATOM     26  C   UNL     1      -3.050   1.274  23.489  0.00  0.00    +0.001 A 
ENDROOT
BRANCH  10   9
ATOM      3  C   UNL     1      -4.335   0.302  24.503  0.00  0.00    +0.139 A 
ATOM      4  C   UNL     1      -4.885  -0.310  24.562  0.00  0.00    +0.038 A 
ATOM      5  C   UNL     1      -4.683  -1.071  24.316  0.00  0.00    +0.015 A 
ATOM      6  C   UNL     1      -3.931  -1.220  24.011  0.00  0.00    +0.058 A 
ATOM      7 CL   UNL     1      -3.729  -1.981  23.765  0.00  0.00    -0.082 Cl
ATOM      8  C   UNL     1      -3.381  -0.608  23.952  0.00  0.00    +0.014 A 
ATOM      9  C   UNL     1      -3.583   0.154  24.198  0.00  0.00    +0.035 A 
BRANCH   3   2
ATOM      1  C   UNL     1      -5.288   1.212  25.058  0.00  0.00    +0.252 C 
ATOM      2  O   UNL     1      -4.537   1.063  24.749  0.00  0.00    -0.471 OA
ENDBRANCH   3   2
ENDBRANCH  10   9
TORSDOF 2
ENDMDL
MODEL 10
REMARK VINA RESULT:     -10.6      2.409      2.844
REMARK  Name = 
REMARK  2 active torsions:
REMARK  status: ('A' for Active; 'I' for Inactive)
REMARK    1  A    between atoms: O_2  and  C_3
REMARK    2  A    between atoms: C_9  and  C_10
REMARK                            x       y       z     vdW  Elec       q    Type
REMARK                         _______ _______ _______ _____ _____    ______ ____
ROOT
ATOM     10  C   UNL     1      -0.958   1.319  24.916  0.00  0.00    +0.003 A 
ATOM     11  C   UNL     1      -1.755   1.486  24.790  0.00  0.00    +0.006 A 
ATOM     12  C   UNL     1      -2.084   2.179  25.097  0.00  0.00    +0.069 A 
ATOM     13  C   UNL     1      -1.616   2.702  25.529  0.00  0.00    +0.078 A 
ATOM     14  N   UNL     1      -1.832   3.416  25.880  0.00  0.00    -0.178 NA
ATOM     15  C   UNL     1      -2.571   3.784  25.885  0.00  0.00    +0.264 C 
ATOM     16  O   UNL     1      -2.611   4.503  26.288  0.00  0.00    -0.271 OA
ATOM     17  C   UNL     1      -3.276   3.527  25.541  0.00  0.00    +0.157 C 
ATOM     18  C   UNL     1      -3.984   3.949  25.586  0.00  0.00    +0.064 C 
ATOM     19  C   UNL     1      -4.561   3.523  25.179  0.00  0.00    +0.174 C 
ATOM     20  O   UNL     1      -5.351   3.743  25.085  0.00  0.00    -0.221 OA
ATOM     21  C   UNL     1      -4.210   2.837  24.883  0.00  0.00    +0.127 C 
ATOM     22  N   UNL     1      -3.416   2.841  25.106  0.00  0.00    -0.267 N 
ATOM     23  C   UNL     1      -2.886   2.240  24.908  0.00  0.00    +0.251 C 
ATOM     24  O   UNL     1      -3.197   1.619  24.463  0.00  0.00    -0.270 OA
ATOM     25  C   UNL     1      -0.818   2.534  25.655  0.00  0.00    +0.017 A 
ATOM     26  C   UNL     1      -0.489   1.842  25.349  0.00  0.00    +0.001 A 
ENDROOT
BRANCH  10   9
ATOM      3  C   UNL     1      -0.726  -0.089  25.009  0.00  0.00    +0.139 A 
ATOM      4  C   UNL     1      -0.396  -0.780  24.703  0.00  0.00    +0.038 A 
ATOM      5  C   UNL     1       0.030  -0.756  23.998  0.00  0.00    +0.015 A 
ATOM      6  C   UNL     1       0.127  -0.042  23.598  0.00  0.00    +0.058 A 
ATOM      7 CL   UNL     1       0.554  -0.018  22.893  0.00  0.00    -0.082 Cl
ATOM      8  C   UNL     1      -0.202   0.651  23.904  0.00  0.00    +0.014 A 
ATOM      9  C   UNL     1      -0.629   0.627  24.610  0.00  0.00    +0.035 A 
BRANCH   3   2
ATOM      1  C   UNL     1      -1.276  -0.831  26.100  0.00  0.00    +0.252 C 
ATOM      2  O   UNL     1      -1.152  -0.111  25.715  0.00  0.00    -0.471 OA
ENDBRANCH   3   2
ENDBRANCH  10   9
TORSDOF 2
ENDMDL
