MODEL 1
REMARK VINA RESULT:      -9.9      0.000      0.000
REMARK  Name = 
REMARK  6 active torsions:
REMARK  status: ('A' for Active; 'I' for Inactive)
REMARK    1  A    between atoms: C_3  and  N_18
REMARK    2  A    between atoms: C_6  and  C_7
REMARK    3  A    between atoms: C_7  and  N_8
REMARK    4  A    between atoms: C_9  and  C_11
REMARK    5  A    between atoms: N_18  and  C_19
REMARK    6  A    between atoms: C_19  and  C_20
REMARK                            x       y       z     vdW  Elec       q    Type
REMARK                         _______ _______ _______ _____ _____    ______ ____
ROOT
ATOM      1  O   UNL     1      -4.152   0.989  25.591  0.00  0.00    -0.219 OA
ATOM      2  C   UNL     1      -3.889   1.126  24.822  0.00  0.00    +0.199 C 
ATOM      3  C   UNL     1      -3.843   0.567  24.217  0.00  0.00    +0.135 C 
ATOM      4  C   UNL     1      -3.551   0.942  23.544  0.00  0.00    +0.162 C 
ATOM      5  O   UNL     1      -3.416   1.734  23.732  0.00  0.00    -0.350 OA
ATOM      6  C   UNL     1      -3.625   1.849  24.521  0.00  0.00    +0.169 C 
ENDROOT
BRANCH   6   7
ATOM      7  C   UNL     1      -3.579   2.559  24.937  0.00  0.00    +0.148 C 
BRANCH   7   8
ATOM      8  N   UNL     1      -2.931   3.058  24.830  0.00  0.00    -0.199 NA
ATOM      9  C   UNL     1      -2.817   3.700  25.335  0.00  0.00    +0.265 C 
ATOM     10  O   UNL     1      -3.351   3.843  25.947  0.00  0.00    -0.268 OA
BRANCH   9  11
ATOM     11  C   UNL     1      -2.169   4.200  25.228  0.00  0.00    +0.055 A 
ATOM     12  C   UNL     1      -1.406   3.885  25.199  0.00  0.00    +0.007 A 
ATOM     13  C   UNL     1      -0.758   4.384  25.091  0.00  0.00    +0.030 A 
ATOM     14  C   UNL     1      -0.873   5.198  25.013  0.00  0.00    +0.140 A 
ATOM     15  F   UNL     1      -0.225   5.697  24.906  0.00  0.00    -0.204 F 
ATOM     16  C   UNL     1      -1.635   5.512  25.042  0.00  0.00    +0.030 A 
ATOM     17  C   UNL     1      -2.283   5.013  25.149  0.00  0.00    +0.007 A 
ENDBRANCH   9  11
ENDBRANCH   7   8
ENDBRANCH   6   7
BRANCH   3  18
ATOM     18  N   UNL     1      -4.052  -0.229  24.277  0.00  0.00    -0.208 NA
BRANCH  18  19
ATOM     19  C   UNL     1      -3.684  -0.790  23.796  0.00  0.00    +0.134 C 
BRANCH  19  20
ATOM     20  C   UNL     1      -3.659  -1.581  24.029  0.00  0.00    +0.077 A 
ATOM     21  N   UNL     1      -3.041  -1.852  24.503  0.00  0.00    -0.247 NA
ATOM     22  C   UNL     1      -3.015  -2.642  24.736  0.00  0.00    +0.098 A 
ATOM     23  C   UNL     1      -3.608  -3.162  24.494  0.00  0.00    +0.021 A 
ATOM     24  C   UNL     1      -4.227  -2.892  24.020  0.00  0.00    +0.003 A 
ATOM     25  C   UNL     1      -4.252  -2.101  23.787  0.00  0.00    +0.016 A 
ENDBRANCH  19  20
ENDBRANCH  18  19
ENDBRANCH   3  18
TORSDOF 6
ENDMDL
MODEL 2
REMARK VINA RESULT:      -9.8      1.869      2.228
REMARK  Name = 
REMARK  6 active torsions:
REMARK  status: ('A' for Active; 'I' for Inactive)
REMARK    1  A    between atoms: C_3  and  N_18
REMARK    2  A    between atoms: C_6  and  C_7
REMARK    3  A    between atoms: C_7  and  N_8
REMARK    4  A    between atoms: C_9  and  C_11
REMARK    5  A    between atoms: N_18  and  C_19
REMARK    6  A    between atoms: C_19  and  C_20
REMARK                            x       y       z     vdW  Elec       q    Type
REMARK                         _______ _______ _______ _____ _____    ______ ____
ROOT
ATOM      1  O   UNL     1      -1.249   0.444  23.902  0.00  0.00    -0.219 OA
ATOM      2  C   UNL     1      -1.265   0.304  24.715  0.00  0.00    +0.199 C 
ATOM      3  C   UNL     1      -1.649  -0.321  25.092  0.00  0.00    +0.135 C 
ATOM      4  C   UNL     1      -1.521  -0.247  25.903  0.00  0.00    +0.162 C 
ATOM      5  O   UNL     1      -1.058   0.425  26.028  0.00  0.00    -0.350 OA
ATOM      6  C   UNL     1      -0.900   0.765  25.294  0.00  0.00    +0.169 C 
ENDROOT
BRANCH   6   7
ATOM      7  C   UNL     1      -0.455   1.447  25.161  0.00  0.00    +0.148 C 
BRANCH   7   8
ATOM      8  N   UNL     1      -0.826   2.183  25.140  0.00  0.00    -0.199 NA
ATOM      9  C   UNL     1      -0.382   2.872  25.239  0.00  0.00    +0.265 C 
ATOM     10  O   UNL     1       0.433   2.823  25.359  0.00  0.00    -0.268 OA
BRANCH   9  11
ATOM     11  C   UNL     1      -0.753   3.609  25.218  0.00  0.00    +0.055 A 
ATOM     12  C   UNL     1      -0.418   4.226  24.785  0.00  0.00    +0.007 A 
ATOM     13  C   UNL     1      -0.789   4.963  24.764  0.00  0.00    +0.030 A 
ATOM     14  C   UNL     1      -1.494   5.082  25.176  0.00  0.00    +0.140 A 
ATOM     15  F   UNL     1      -1.865   5.818  25.155  0.00  0.00    -0.204 F 
ATOM     16  C   UNL     1      -1.829   4.464  25.609  0.00  0.00    +0.030 A 
ATOM     17  C   UNL     1      -1.458   3.727  25.630  0.00  0.00    +0.007 A 
ENDBRANCH   9  11
ENDBRANCH   7   8
ENDBRANCH   6   7
BRANCH   3  18
ATOM     18  N   UNL     1      -2.084  -0.917  24.722  0.00  0.00    -0.208 NA
BRANCH  18  19
ATOM     19  C   UNL     1      -2.755  -1.227  25.089  0.00  0.00    +0.134 C 
BRANCH  19  20
ATOM     20  C   UNL     1      -3.257  -1.732  24.674  0.00  0.00    +0.077 A 
ATOM     21  N   UNL     1      -3.873  -1.421  24.221  0.00  0.00    -0.247 NA
ATOM     22  C   UNL     1      -4.375  -1.925  23.805  0.00  0.00    +0.098 A 
ATOM     23  C   UNL     1      -4.262  -2.741  23.842  0.00  0.00    +0.021 A 
ATOM     24  C   UNL     1      -3.647  -3.053  24.294  0.00  0.00    +0.003 A 
ATOM     25  C   UNL     1      -3.144  -2.548  24.710  0.00  0.00    +0.016 A 
ENDBRANCH  19  20
ENDBRANCH  18  19
ENDBRANCH   3  18
TORSDOF 6
ENDMDL
MODEL 3
REMARK VINA RESULT:      -9.7      2.844      6.240
REMARK  Name = 
REMARK  6 active torsions:
REMARK  status: ('A' for Active; 'I' for Inactive)
REMARK    1  A    between atoms: C_3  and  N_18
REMARK    2  A    between atoms: C_6  and  C_7
REMARK    3  A    between atoms: C_7  and  N_8
REMARK    4  A    between atoms: C_9  and  C_11
REMARK    5  A    between atoms: N_18  and  C_19
REMARK    6  A    between atoms: C_19  and  C_20
REMARK                            x       y       z     vdW  Elec       q    Type
REMARK                         _______ _______ _______ _____ _____    ______ ____
ROOT
ATOM      1  O   UNL     1      -0.803   1.179  25.963  0.00  0.00    -0.219 OA
ATOM      2  C   UNL     1      -0.666   1.139  25.151  0.00  0.00    +0.199 C 
ATOM      3  C   UNL     1      -0.549   1.781  24.647  0.00  0.00    +0.135 C 
ATOM      4  C   UNL     1      -0.432   1.490  23.885  0.00  0.00    +0.162 C 
ATOM      5  O   UNL     1      -0.477   0.666  23.917  0.00  0.00    -0.350 OA
ATOM      6  C   UNL     1      -0.621   0.449  24.699  0.00  0.00    +0.169 C 
ENDROOT
BRANCH   6   7
ATOM      7  C   UNL     1      -0.705  -0.321  24.981  0.00  0.00    +0.148 C 
BRANCH   7   8
ATOM      8  N   UNL     1      -1.384  -0.754  24.800  0.00  0.00    -0.199 NA
ATOM      9  C   UNL     1      -1.444  -1.543  25.034  0.00  0.00    +0.265 C 
ATOM     10  O   UNL     1      -0.826  -1.898  25.450  0.00  0.00    -0.268 OA
BRANCH   9  11
ATOM     11  C   UNL     1      -2.122  -1.976  24.853  0.00  0.00    +0.055 A 
ATOM     12  C   UNL     1      -2.084  -2.593  24.306  0.00  0.00    +0.007 A 
ATOM     13  C   UNL     1      -2.762  -3.026  24.125  0.00  0.00    +0.030 A 
ATOM     14  C   UNL     1      -3.479  -2.843  24.490  0.00  0.00    +0.140 A 
ATOM     15  F   UNL     1      -4.157  -3.276  24.309  0.00  0.00    -0.204 F 
ATOM     16  C   UNL     1      -3.517  -2.226  25.037  0.00  0.00    +0.030 A 
ATOM     17  C   UNL     1      -2.839  -1.793  25.218  0.00  0.00    +0.007 A 
ENDBRANCH   9  11
ENDBRANCH   7   8
ENDBRANCH   6   7
BRANCH   3  18
ATOM     18  N   UNL     1      -0.549   2.577  24.867  0.00  0.00    -0.208 NA
BRANCH  18  19
ATOM     19  C   UNL     1      -0.860   3.147  24.357  0.00  0.00    +0.134 C 
BRANCH  19  20
ATOM     20  C   UNL     1      -1.093   3.881  24.651  0.00  0.00    +0.077 A 
ATOM     21  N   UNL     1      -1.852   3.979  24.960  0.00  0.00    -0.247 NA
ATOM     22  C   UNL     1      -2.085   4.713  25.254  0.00  0.00    +0.098 A 
ATOM     23  C   UNL     1      -1.560   5.349  25.239  0.00  0.00    +0.021 A 
ATOM     24  C   UNL     1      -0.802   5.252  24.930  0.00  0.00    +0.003 A 
ATOM     25  C   UNL     1      -0.568   4.517  24.636  0.00  0.00    +0.016 A 
ENDBRANCH  19  20
ENDBRANCH  18  19
ENDBRANCH   3  18
TORSDOF 6
ENDMDL
MODEL 4
REMARK VINA RESULT:      -9.7      2.097      5.909
REMARK  Name = 
REMARK  6 active torsions:
REMARK  status: ('A' for Active; 'I' for Inactive)
REMARK    1  A    between atoms: C_3  and  N_18
REMARK    2  A    between atoms: C_6  and  C_7
REMARK    3  A    between atoms: C_7  and  N_8
REMARK    4  A    between atoms: C_9  and  C_11
REMARK    5  A    between atoms: N_18  and  C_19
REMARK    6  A    between atoms: C_19  and  C_20
REMARK                            x       y       z     vdW  Elec       q    Type
REMARK                         _______ _______ _______ _____ _____    ______ ____
ROOT
ATOM      1  O   UNL     1      -3.151   1.932  23.562  0.00  0.00    -0.219 OA
ATOM      2  C   UNL     1      -3.505   2.035  24.300  0.00  0.00    +0.199 C 
ATOM      3  C   UNL     1      -3.379   2.668  24.814  0.00  0.00    +0.135 C 
ATOM      4  C   UNL     1      -3.842   2.548  25.485  0.00  0.00    +0.162 C 
ATOM      5  O   UNL     1      -4.254   1.840  25.387  0.00  0.00    -0.350 OA
ATOM      6  C   UNL     1      -4.046   1.523  24.655  0.00  0.00    +0.169 C 
ENDROOT
BRANCH   6   7
ATOM      7  C   UNL     1      -4.329   0.818  24.334  0.00  0.00    +0.148 C 
BRANCH   7   8
ATOM      8  N   UNL     1      -3.990   0.099  24.554  0.00  0.00    -0.199 NA
ATOM      9  C   UNL     1      -4.358  -0.610  24.350  0.00  0.00    +0.265 C 
ATOM     10  O   UNL     1      -5.065  -0.600  23.925  0.00  0.00    -0.268 OA
BRANCH   9  11
ATOM     11  C   UNL     1      -4.019  -1.329  24.570  0.00  0.00    +0.055 A 
ATOM     12  C   UNL     1      -4.015  -1.963  24.042  0.00  0.00    +0.007 A 
ATOM     13  C   UNL     1      -3.677  -2.682  24.262  0.00  0.00    +0.030 A 
ATOM     14  C   UNL     1      -3.341  -2.767  25.012  0.00  0.00    +0.140 A 
ATOM     15  F   UNL     1      -3.002  -3.486  25.232  0.00  0.00    -0.204 F 
ATOM     16  C   UNL     1      -3.344  -2.134  25.540  0.00  0.00    +0.030 A 
ATOM     17  C   UNL     1      -3.683  -1.415  25.320  0.00  0.00    +0.007 A 
ENDBRANCH   9  11
ENDBRANCH   7   8
ENDBRANCH   6   7
BRANCH   3  18
ATOM     18  N   UNL     1      -2.877   3.310  24.679  0.00  0.00    -0.208 NA
BRANCH  18  19
ATOM     19  C   UNL     1      -2.452   3.640  25.304  0.00  0.00    +0.134 C 
BRANCH  19  20
ATOM     20  C   UNL     1      -1.840   4.172  25.152  0.00  0.00    +0.077 A 
ATOM     21  N   UNL     1      -1.089   3.893  24.955  0.00  0.00    -0.247 NA
ATOM     22  C   UNL     1      -0.478   4.424  24.803  0.00  0.00    +0.098 A 
ATOM     23  C   UNL     1      -0.617   5.236  24.848  0.00  0.00    +0.021 A 
ATOM     24  C   UNL     1      -1.368   5.516  25.045  0.00  0.00    +0.003 A 
ATOM     25  C   UNL     1      -1.979   4.983  25.198  0.00  0.00    +0.016 A 
ENDBRANCH  19  20
ENDBRANCH  18  19
ENDBRANCH   3  18
TORSDOF 6
ENDMDL
MODEL 5
REMARK VINA RESULT:      -7.1     14.922     17.005
REMARK  Name = 
REMARK  6 active torsions:
REMARK  status: ('A' for Active; 'I' for Inactive)
REMARK    1  A    between atoms: C_3  and  N_18
REMARK    2  A    between atoms: C_6  and  C_7
REMARK    3  A    between atoms: C_7  and  N_8
REMARK    4  A    between atoms: C_9  and  C_11
REMARK    5  A    between atoms: N_18  and  C_19
REMARK    6  A    between atoms: C_19  and  C_20
REMARK                            x       y       z     vdW  Elec       q    Type
REMARK                         _______ _______ _______ _____ _____    ______ ____
ROOT
ATOM      1  O   UNL     1      -2.972 -10.679  14.421  0.00  0.00    -0.219 OA
ATOM      2  C   UNL     1      -3.744 -10.612  14.139  0.00  0.00    +0.199 C 
ATOM      3  C   UNL     1      -4.429 -10.601  14.599  0.00  0.00    +0.135 C 
ATOM      4  C   UNL     1      -5.075 -10.526  14.091  0.00  0.00    +0.162 C 
ATOM      5  O   UNL     1      -4.790 -10.491  13.318  0.00  0.00    -0.350 OA
ATOM      6  C   UNL     1      -3.967 -10.544  13.347  0.00  0.00    +0.169 C 
ENDROOT
BRANCH   6   7
ATOM      7  C   UNL     1      -3.457 -10.532  12.700  0.00  0.00    +0.148 C 
BRANCH   7   8
ATOM      8  N   UNL     1      -3.728 -10.269  11.966  0.00  0.00    -0.199 NA
ATOM      9  C   UNL     1      -3.222 -10.270  11.314  0.00  0.00    +0.265 C 
ATOM     10  O   UNL     1      -2.445 -10.535  11.397  0.00  0.00    -0.268 OA
BRANCH   9  11
ATOM     11  C   UNL     1      -3.493 -10.007  10.581  0.00  0.00    +0.055 A 
ATOM     12  C   UNL     1      -3.394  -9.218  10.364  0.00  0.00    +0.007 A 
ATOM     13  C   UNL     1      -3.666  -8.955   9.631  0.00  0.00    +0.030 A 
ATOM     14  C   UNL     1      -4.036  -9.482   9.114  0.00  0.00    +0.140 A 
ATOM     15  F   UNL     1      -4.307  -9.219   8.381  0.00  0.00    -0.204 F 
ATOM     16  C   UNL     1      -4.135 -10.272   9.332  0.00  0.00    +0.030 A 
ATOM     17  C   UNL     1      -3.864 -10.534  10.065  0.00  0.00    +0.007 A 
ENDBRANCH   9  11
ENDBRANCH   7   8
ENDBRANCH   6   7
BRANCH   3  18
ATOM     18  N   UNL     1      -4.462 -10.655  15.422  0.00  0.00    -0.208 NA
BRANCH  18  19
ATOM     19  C   UNL     1      -5.051 -10.254  15.838  0.00  0.00    +0.134 C 
BRANCH  19  20
ATOM     20  C   UNL     1      -5.186 -10.428  16.633  0.00  0.00    +0.077 A 
ATOM     21  N   UNL     1      -5.948 -10.607  16.894  0.00  0.00    -0.247 NA
ATOM     22  C   UNL     1      -6.082 -10.781  17.688  0.00  0.00    +0.098 A 
ATOM     23  C   UNL     1      -5.454 -10.777  18.223  0.00  0.00    +0.021 A 
ATOM     24  C   UNL     1      -4.692 -10.598  17.963  0.00  0.00    +0.003 A 
ATOM     25  C   UNL     1      -4.558 -10.424  17.168  0.00  0.00    +0.016 A 
ENDBRANCH  19  20
ENDBRANCH  18  19
ENDBRANCH   3  18
TORSDOF 6
ENDMDL
MODEL 6
REMARK VINA RESULT:      -6.7     14.650     16.376
REMARK  Name = 
REMARK  6 active torsions:
REMARK  status: ('A' for Active; 'I' for Inactive)
REMARK    1  A    between atoms: C_3  and  N_18
REMARK    2  A    between atoms: C_6  and  C_7
REMARK    3  A    between atoms: C_7  and  N_8
REMARK    4  A    between atoms: C_9  and  C_11
REMARK    5  A    between atoms: N_18  and  C_19
REMARK    6  A    between atoms: C_19  and  C_20
REMARK                            x       y       z     vdW  Elec       q    Type
REMARK                         _______ _______ _______ _____ _____    ______ ____
ROOT
ATOM      1  O   UNL     1      -6.015 -10.382  13.718  0.00  0.00    -0.219 OA
ATOM      2  C   UNL     1      -5.313 -10.398  14.152  0.00  0.00    +0.199 C 
ATOM      3  C   UNL     1      -5.245 -10.301  14.968  0.00  0.00    +0.135 C 
ATOM      4  C   UNL     1      -4.446 -10.356  15.165  0.00  0.00    +0.162 C 
ATOM      5  O   UNL     1      -4.020 -10.489  14.471  0.00  0.00    -0.350 OA
ATOM      6  C   UNL     1      -4.556 -10.515  13.845  0.00  0.00    +0.169 C 
ENDROOT
BRANCH   6   7
ATOM      7  C   UNL     1      -4.368 -10.636  13.051  0.00  0.00    +0.148 C 
BRANCH   7   8
ATOM      8  N   UNL     1      -3.694 -10.286  12.729  0.00  0.00    -0.199 NA
ATOM      9  C   UNL     1      -3.537 -10.357  11.922  0.00  0.00    +0.265 C 
ATOM     10  O   UNL     1      -4.056 -10.778  11.437  0.00  0.00    -0.268 OA
BRANCH   9  11
ATOM     11  C   UNL     1      -2.863 -10.008  11.600  0.00  0.00    +0.055 A 
ATOM     12  C   UNL     1      -2.124 -10.145  11.942  0.00  0.00    +0.007 A 
ATOM     13  C   UNL     1      -1.450  -9.796  11.620  0.00  0.00    +0.030 A 
ATOM     14  C   UNL     1      -1.514  -9.310  10.956  0.00  0.00    +0.140 A 
ATOM     15  F   UNL     1      -0.839  -8.961  10.634  0.00  0.00    -0.204 F 
ATOM     16  C   UNL     1      -2.252  -9.173  10.614  0.00  0.00    +0.030 A 
ATOM     17  C   UNL     1      -2.927  -9.522  10.936  0.00  0.00    +0.007 A 
ENDBRANCH   9  11
ENDBRANCH   7   8
ENDBRANCH   6   7
BRANCH   3  18
ATOM     18  N   UNL     1      -5.867 -10.170  15.494  0.00  0.00    -0.208 NA
BRANCH  18  19
ATOM     19  C   UNL     1      -5.708  -9.995  16.285  0.00  0.00    +0.134 C 
BRANCH  19  20
ATOM     20  C   UNL     1      -6.328  -9.921  16.824  0.00  0.00    +0.077 A 
ATOM     21  N   UNL     1      -6.917  -9.357  16.700  0.00  0.00    -0.247 NA
ATOM     22  C   UNL     1      -7.537  -9.282  17.238  0.00  0.00    +0.098 A 
ATOM     23  C   UNL     1      -7.569  -9.773  17.901  0.00  0.00    +0.021 A 
ATOM     24  C   UNL     1      -6.981 -10.337  18.025  0.00  0.00    +0.003 A 
ATOM     25  C   UNL     1      -6.360 -10.411  17.486  0.00  0.00    +0.016 A 
ENDBRANCH  19  20
ENDBRANCH  18  19
ENDBRANCH   3  18
TORSDOF 6
ENDMDL
MODEL 7
REMARK VINA RESULT:      -6.4     20.130     21.064
REMARK  Name = 
REMARK  6 active torsions:
REMARK  status: ('A' for Active; 'I' for Inactive)
REMARK    1  A    between atoms: C_3  and  N_18
REMARK    2  A    between atoms: C_6  and  C_7
REMARK    3  A    between atoms: C_7  and  N_8
REMARK    4  A    between atoms: C_9  and  C_11
REMARK    5  A    between atoms: N_18  and  C_19
REMARK    6  A    between atoms: C_19  and  C_20
REMARK                            x       y       z     vdW  Elec       q    Type
REMARK                         _______ _______ _______ _____ _____    ______ ____
ROOT
ATOM      1  O   UNL     1      16.835  -5.683  26.371  0.00  0.00    -0.219 OA
ATOM      2  C   UNL     1      17.041  -5.816  25.583  0.00  0.00    +0.199 C 
ATOM      3  C   UNL     1      17.112  -6.552  25.217  0.00  0.00    +0.135 C 
ATOM      4  C   UNL     1      17.327  -6.426  24.431  0.00  0.00    +0.162 C 
ATOM      5  O   UNL     1      17.388  -5.612  24.310  0.00  0.00    -0.350 OA
ATOM      6  C   UNL     1      17.211  -5.235  25.022  0.00  0.00    +0.169 C 
ENDROOT
BRANCH   6   7
ATOM      7  C   UNL     1      17.206  -4.420  25.151  0.00  0.00    +0.148 C 
BRANCH   7   8
ATOM      8  N   UNL     1      17.009  -3.907  24.536  0.00  0.00    -0.199 NA
ATOM      9  C   UNL     1      17.015  -3.091  24.661  0.00  0.00    +0.265 C 
ATOM     10  O   UNL     1      17.218  -2.790  25.402  0.00  0.00    -0.268 OA
BRANCH   9  11
ATOM     11  C   UNL     1      16.818  -2.578  24.046  0.00  0.00    +0.055 A 
ATOM     12  C   UNL     1      17.380  -2.047  23.757  0.00  0.00    +0.007 A 
ATOM     13  C   UNL     1      17.183  -1.533  23.142  0.00  0.00    +0.030 A 
ATOM     14  C   UNL     1      16.425  -1.551  22.817  0.00  0.00    +0.140 A 
ATOM     15  F   UNL     1      16.228  -1.038  22.202  0.00  0.00    -0.204 F 
ATOM     16  C   UNL     1      15.863  -2.082  23.106  0.00  0.00    +0.030 A 
ATOM     17  C   UNL     1      16.060  -2.596  23.721  0.00  0.00    +0.007 A 
ENDBRANCH   9  11
ENDBRANCH   7   8
ENDBRANCH   6   7
BRANCH   3  18
ATOM     18  N   UNL     1      16.990  -7.285  25.575  0.00  0.00    -0.208 NA
BRANCH  18  19
ATOM     19  C   UNL     1      16.920  -7.964  25.112  0.00  0.00    +0.134 C 
BRANCH  19  20
ATOM     20  C   UNL     1      16.750  -8.689  25.466  0.00  0.00    +0.077 A 
ATOM     21  N   UNL     1      17.362  -9.161  25.757  0.00  0.00    -0.247 NA
ATOM     22  C   UNL     1      17.192  -9.886  26.110  0.00  0.00    +0.098 A 
ATOM     23  C   UNL     1      16.410 -10.140  26.173  0.00  0.00    +0.021 A 
ATOM     24  C   UNL     1      15.798  -9.670  25.883  0.00  0.00    +0.003 A 
ATOM     25  C   UNL     1      15.968  -8.944  25.529  0.00  0.00    +0.016 A 
ENDBRANCH  19  20
ENDBRANCH  18  19
ENDBRANCH   3  18
TORSDOF 6
ENDMDL
MODEL 8
REMARK VINA RESULT:      -6.3     18.120     19.113
REMARK  Name = 
REMARK  6 active torsions:
REMARK  status: ('A' for Active; 'I' for Inactive)
REMARK    1  A    between atoms: C_3  and  N_18
REMARK    2  A    between atoms: C_6  and  C_7
REMARK    3  A    between atoms: C_7  and  N_8
REMARK    4  A    between atoms: C_9  and  C_11
REMARK    5  A    between atoms: N_18  and  C_19
REMARK    6  A    between atoms: C_19  and  C_20
REMARK                            x       y       z     vdW  Elec       q    Type
REMARK                         _______ _______ _______ _____ _____    ______ ____
ROOT
ATOM      1  O   UNL     1      -8.012  -8.509  10.111  0.00  0.00    -0.219 OA
ATOM      2  C   UNL     1      -7.704  -8.378   9.358  0.00  0.00    +0.199 C 
ATOM      3  C   UNL     1      -7.991  -7.839   8.803  0.00  0.00    +0.135 C 
ATOM      4  C   UNL     1      -7.519  -7.890   8.129  0.00  0.00    +0.162 C 
ATOM      5  O   UNL     1      -6.939  -8.461   8.267  0.00  0.00    -0.350 OA
ATOM      6  C   UNL     1      -7.053  -8.762   9.026  0.00  0.00    +0.169 C 
ENDROOT
BRANCH   6   7
ATOM      7  C   UNL     1      -6.597  -9.345   9.390  0.00  0.00    +0.148 C 
BRANCH   7   8
ATOM      8  N   UNL     1      -5.813  -9.187   9.595  0.00  0.00    -0.199 NA
ATOM      9  C   UNL     1      -5.314  -9.804   9.820  0.00  0.00    +0.265 C 
ATOM     10  O   UNL     1      -5.598 -10.578   9.839  0.00  0.00    -0.268 OA
BRANCH   9  11
ATOM     11  C   UNL     1      -4.530  -9.647  10.024  0.00  0.00    +0.055 A 
ATOM     12  C   UNL     1      -4.269  -9.787  10.795  0.00  0.00    +0.007 A 
ATOM     13  C   UNL     1      -3.486  -9.629  11.000  0.00  0.00    +0.030 A 
ATOM     14  C   UNL     1      -2.963  -9.331  10.434  0.00  0.00    +0.140 A 
ATOM     15  F   UNL     1      -2.180  -9.174  10.639  0.00  0.00    -0.204 F 
ATOM     16  C   UNL     1      -3.224  -9.191   9.664  0.00  0.00    +0.030 A 
ATOM     17  C   UNL     1      -4.008  -9.349   9.459  0.00  0.00    +0.007 A 
ENDBRANCH   9  11
ENDBRANCH   7   8
ENDBRANCH   6   7
BRANCH   3  18
ATOM     18  N   UNL     1      -8.638  -7.337   8.905  0.00  0.00    -0.208 NA
BRANCH  18  19
ATOM     19  C   UNL     1      -8.785  -6.737   8.359  0.00  0.00    +0.134 C 
BRANCH  19  20
ATOM     20  C   UNL     1      -9.365  -6.171   8.513  0.00  0.00    +0.077 A 
ATOM     21  N   UNL     1     -10.140  -6.406   8.672  0.00  0.00    -0.247 NA
ATOM     22  C   UNL     1     -10.719  -5.840   8.826  0.00  0.00    +0.098 A 
ATOM     23  C   UNL     1     -10.524  -5.038   8.821  0.00  0.00    +0.021 A 
ATOM     24  C   UNL     1      -9.750  -4.803   8.663  0.00  0.00    +0.003 A 
ATOM     25  C   UNL     1      -9.170  -5.369   8.508  0.00  0.00    +0.016 A 
ENDBRANCH  19  20
ENDBRANCH  18  19
ENDBRANCH   3  18
TORSDOF 6
ENDMDL
MODEL 9
REMARK VINA RESULT:      -6.2     19.994     20.959
REMARK  Name = 
REMARK  6 active torsions:
REMARK  status: ('A' for Active; 'I' for Inactive)
REMARK    1  A    between atoms: C_3  and  N_18
REMARK    2  A    between atoms: C_6  and  C_7
REMARK    3  A    between atoms: C_7  and  N_8
REMARK    4  A    between atoms: C_9  and  C_11
REMARK    5  A    between atoms: N_18  and  C_19
REMARK    6  A    between atoms: C_19  and  C_20
REMARK                            x       y       z     vdW  Elec       q    Type
REMARK                         _______ _______ _______ _____ _____    ______ ____
ROOT
ATOM      1  O   UNL     1      16.821  -6.388  25.187  0.00  0.00    -0.219 OA
ATOM      2  C   UNL     1      17.037  -5.707  25.600  0.00  0.00    +0.199 C 
ATOM      3  C   UNL     1      17.110  -5.639  26.418  0.00  0.00    +0.135 C 
ATOM      4  C   UNL     1      17.337  -4.865  26.590  0.00  0.00    +0.162 C 
ATOM      5  O   UNL     1      17.405  -4.455  25.878  0.00  0.00    -0.350 OA
ATOM      6  C   UNL     1      17.220  -4.975  25.265  0.00  0.00    +0.169 C 
ENDROOT
BRANCH   6   7
ATOM      7  C   UNL     1      17.217  -4.795  24.461  0.00  0.00    +0.148 C 
BRANCH   7   8
ATOM      8  N   UNL     1      17.039  -4.030  24.210  0.00  0.00    -0.199 NA
ATOM      9  C   UNL     1      16.973  -3.865  23.404  0.00  0.00    +0.265 C 
ATOM     10  O   UNL     1      17.086  -4.466  22.850  0.00  0.00    -0.268 OA
BRANCH   9  11
ATOM     11  C   UNL     1      16.794  -3.100  23.152  0.00  0.00    +0.055 A 
ATOM     12  C   UNL     1      16.009  -2.881  23.024  0.00  0.00    +0.007 A 
ATOM     13  C   UNL     1      15.831  -2.116  22.773  0.00  0.00    +0.030 A 
ATOM     14  C   UNL     1      16.437  -1.570  22.650  0.00  0.00    +0.140 A 
ATOM     15  F   UNL     1      16.259  -0.805  22.399  0.00  0.00    -0.204 F 
ATOM     16  C   UNL     1      17.222  -1.789  22.778  0.00  0.00    +0.030 A 
ATOM     17  C   UNL     1      17.401  -2.554  23.029  0.00  0.00    +0.007 A 
ENDBRANCH   9  11
ENDBRANCH   7   8
ENDBRANCH   6   7
BRANCH   3  18
ATOM     18  N   UNL     1      16.978  -6.240  26.969  0.00  0.00    -0.208 NA
BRANCH  18  19
ATOM     19  C   UNL     1      16.721  -6.053  27.730  0.00  0.00    +0.134 C 
BRANCH  19  20
ATOM     20  C   UNL     1      16.460  -6.649  28.236  0.00  0.00    +0.077 A 
ATOM     21  N   UNL     1      16.990  -7.016  28.751  0.00  0.00    -0.247 NA
ATOM     22  C   UNL     1      16.729  -7.613  29.256  0.00  0.00    +0.098 A 
ATOM     23  C   UNL     1      15.937  -7.844  29.247  0.00  0.00    +0.021 A 
ATOM     24  C   UNL     1      15.406  -7.478  28.733  0.00  0.00    +0.003 A 
ATOM     25  C   UNL     1      15.668  -6.880  28.227  0.00  0.00    +0.016 A 
ENDBRANCH  19  20
ENDBRANCH  18  19
ENDBRANCH   3  18
TORSDOF 6
ENDMDL
MODEL 10
REMARK VINA RESULT:      -6.2     14.518     16.625
REMARK  Name = 
REMARK  6 active torsions:
REMARK  status: ('A' for Active; 'I' for Inactive)
REMARK    1  A    between atoms: C_3  and  N_18
REMARK    2  A    between atoms: C_6  and  C_7
REMARK    3  A    between atoms: C_7  and  N_8
REMARK    4  A    between atoms: C_9  and  C_11
REMARK    5  A    between atoms: N_18  and  C_19
REMARK    6  A    between atoms: C_19  and  C_20
REMARK                            x       y       z     vdW  Elec       q    Type
REMARK                         _______ _______ _______ _____ _____    ______ ____
ROOT
ATOM      1  O   UNL     1      -4.214 -10.399  13.643  0.00  0.00    -0.219 OA
ATOM      2  C   UNL     1      -4.984 -10.141  13.500  0.00  0.00    +0.199 C 
ATOM      3  C   UNL     1      -5.302  -9.946  12.765  0.00  0.00    +0.135 C 
ATOM      4  C   UNL     1      -6.086  -9.717  12.879  0.00  0.00    +0.162 C 
ATOM      5  O   UNL     1      -6.253  -9.770  13.685  0.00  0.00    -0.350 OA
ATOM      6  C   UNL     1      -5.572 -10.032  14.069  0.00  0.00    +0.169 C 
ENDROOT
BRANCH   6   7
ATOM      7  C   UNL     1      -5.493 -10.162  14.880  0.00  0.00    +0.148 C 
BRANCH   7   8
ATOM      8  N   UNL     1      -6.152 -10.108  15.372  0.00  0.00    -0.199 NA
ATOM      9  C   UNL     1      -6.057 -10.128  16.192  0.00  0.00    +0.265 C 
ATOM     10  O   UNL     1      -5.303 -10.201  16.518  0.00  0.00    -0.268 OA
BRANCH   9  11
ATOM     11  C   UNL     1      -6.717 -10.074  16.685  0.00  0.00    +0.055 A 
ATOM     12  C   UNL     1      -7.022  -9.335  16.886  0.00  0.00    +0.007 A 
ATOM     13  C   UNL     1      -7.681  -9.281  17.379  0.00  0.00    +0.030 A 
ATOM     14  C   UNL     1      -8.035  -9.968  17.670  0.00  0.00    +0.140 A 
ATOM     15  F   UNL     1      -8.695  -9.914  18.163  0.00  0.00    -0.204 F 
ATOM     16  C   UNL     1      -7.730 -10.707  17.469  0.00  0.00    +0.030 A 
ATOM     17  C   UNL     1      -7.071 -10.761  16.976  0.00  0.00    +0.007 A 
ENDBRANCH   9  11
ENDBRANCH   7   8
ENDBRANCH   6   7
BRANCH   3  18
ATOM     18  N   UNL     1      -4.905  -9.976  12.042  0.00  0.00    -0.208 NA
BRANCH  18  19
ATOM     19  C   UNL     1      -5.229  -9.608  11.378  0.00  0.00    +0.134 C 
BRANCH  19  20
ATOM     20  C   UNL     1      -4.809  -9.594  10.668  0.00  0.00    +0.077 A 
ATOM     21  N   UNL     1      -4.817 -10.252  10.170  0.00  0.00    -0.247 NA
ATOM     22  C   UNL     1      -4.397 -10.237   9.461  0.00  0.00    +0.098 A 
ATOM     23  C   UNL     1      -3.970  -9.564   9.248  0.00  0.00    +0.021 A 
ATOM     24  C   UNL     1      -3.961  -8.906   9.746  0.00  0.00    +0.003 A 
ATOM     25  C   UNL     1      -4.382  -8.921  10.456  0.00  0.00    +0.016 A 
ENDBRANCH  19  20
ENDBRANCH  18  19
ENDBRANCH   3  18
TORSDOF 6
ENDMDL
