MODEL 1
REMARK VINA RESULT:     -10.0      0.000      0.000
REMARK  Name = 
REMARK  8 active torsions:
REMARK  status: ('A' for Active; 'I' for Inactive)
REMARK    1  A    between atoms: C_4  and  C_26
REMARK    2  A    between atoms: C_6  and  C_8
REMARK    3  A    between atoms: C_15  and  C_16
REMARK    4  A    between atoms: C_16  and  N_17
REMARK    5  A    between atoms: C_18  and  C_20
REMARK    6  A    between atoms: C_20  and  C_21
REMARK    7  A    between atoms: C_21  and  C_22
REMARK    8  A    between atoms: C_22  and  C_23
REMARK                            x       y       z     vdW  Elec       q    Type
REMARK                         _______ _______ _______ _____ _____    ______ ____
ROOT
ATOM      8  C   UNL     1      -0.503  -0.513  24.195  0.00  0.00    +0.056 C 
ATOM      9  C   UNL     1      -0.048  -1.091  23.940  0.00  0.00    +0.078 C 
ATOM     10  N   UNL     1       0.043  -0.288  23.770  0.00  0.00    -0.272 NA
ATOM     11  C   UNL     1      -0.728   0.222  24.264  0.00  0.00    +0.072 C 
ATOM     12  C   UNL     1      -1.036   0.778  24.415  0.00  0.00    +0.018 C 
ATOM     13  C   UNL     1      -0.407   0.273  24.024  0.00  0.00    +0.010 C 
ATOM     14  C   UNL     1       0.187   0.701  23.539  0.00  0.00    +0.018 C 
ATOM     15  C   UNL     1       0.656   0.164  23.268  0.00  0.00    +0.079 C 
ENDROOT
BRANCH   8   6
ATOM      1  C   UNL     1      -1.655  -0.733  26.801  0.00  0.00    +0.074 C 
ATOM      2  C   UNL     1      -1.713  -0.828  25.984  0.00  0.00    +0.139 A 
ATOM      3  N   UNL     1      -2.406  -1.128  25.653  0.00  0.00    -0.235 NA
ATOM      4  C   UNL     1      -2.465  -1.224  24.835  0.00  0.00    +0.061 A 
ATOM      5  C   UNL     1      -1.831  -1.019  24.350  0.00  0.00    +0.029 A 
ATOM      6  C   UNL     1      -1.138  -0.718  24.681  0.00  0.00    +0.062 A 
ATOM      7  N   UNL     1      -1.079  -0.623  25.498  0.00  0.00    -0.235 NA
BRANCH   4  26
ATOM     26  C   UNL     1      -3.158  -1.524  24.503  0.00  0.00    +0.040 C 
ATOM     27  C   UNL     1      -3.324  -2.321  24.366  0.00  0.00    +0.006 C 
ATOM     28  C   UNL     1      -4.075  -2.370  24.029  0.00  0.00    +0.000 C 
ATOM     29  C   UNL     1      -4.373  -1.604  23.958  0.00  0.00    +0.000 C 
ATOM     30  C   UNL     1      -3.807  -1.082  24.251  0.00  0.00    +0.006 C 
ENDBRANCH   4  26
ENDBRANCH   8   6
BRANCH  15  16
ATOM     16  C   UNL     1       1.325   0.056  22.797  0.00  0.00    +0.131 C 
BRANCH  16  17
ATOM     17  N   UNL     1       2.030   0.441  22.987  0.00  0.00    -0.204 NA
ATOM     18  C   UNL     1       2.682   0.374  22.487  0.00  0.00    +0.241 C 
ATOM     19  O   UNL     1       2.631  -0.076  21.798  0.00  0.00    -0.273 OA
BRANCH  18  20
ATOM     20  C   UNL     1       3.387   0.759  22.676  0.00  0.00    +0.087 C 
BRANCH  20  21
ATOM     21  C   UNL     1       4.022   0.330  22.981  0.00  0.00    +0.021 C 
BRANCH  21  22
ATOM     22  C   UNL     1       4.743   0.705  23.124  0.00  0.00    +0.115 C 
BRANCH  22  23
ATOM     23  C   UNL     1       5.317   0.334  23.585  0.00  0.00    +0.365 C 
ATOM     24  O   UNL     1       5.349   0.475  24.397  0.00  0.00    -0.246 OA
ATOM     25  O   UNL     1       5.860  -0.178  23.234  0.00  0.00    -0.246 OA
ENDBRANCH  22  23
ENDBRANCH  21  22
ENDBRANCH  20  21
ENDBRANCH  18  20
ENDBRANCH  16  17
ENDBRANCH  15  16
TORSDOF 8
ENDMDL
MODEL 2
REMARK VINA RESULT:      -9.9      3.480      5.354
REMARK  Name = 
REMARK  8 active torsions:
REMARK  status: ('A' for Active; 'I' for Inactive)
REMARK    1  A    between atoms: C_4  and  C_26
REMARK    2  A    between atoms: C_6  and  C_8
REMARK    3  A    between atoms: C_15  and  C_16
REMARK    4  A    between atoms: C_16  and  N_17
REMARK    5  A    between atoms: C_18  and  C_20
REMARK    6  A    between atoms: C_20  and  C_21
REMARK    7  A    between atoms: C_21  and  C_22
REMARK    8  A    between atoms: C_22  and  C_23
REMARK                            x       y       z     vdW  Elec       q    Type
REMARK                         _______ _______ _______ _____ _____    ______ ____
ROOT
ATOM      8  C   UNL     1      -1.419   2.002  24.871  0.00  0.00    +0.056 C 
ATOM      9  C   UNL     1      -1.354   1.549  25.500  0.00  0.00    +0.078 C 
ATOM     10  N   UNL     1      -1.132   1.350  24.731  0.00  0.00    -0.272 NA
ATOM     11  C   UNL     1      -1.349   2.175  24.122  0.00  0.00    +0.072 C 
ATOM     12  C   UNL     1      -1.356   2.463  23.535  0.00  0.00    +0.018 C 
ATOM     13  C   UNL     1      -1.199   1.800  24.119  0.00  0.00    +0.010 C 
ATOM     14  C   UNL     1      -0.845   1.069  23.786  0.00  0.00    +0.018 C 
ATOM     15  C   UNL     1      -0.765   0.592  24.378  0.00  0.00    +0.079 C 
ENDROOT
BRANCH   8   6
ATOM      1  C   UNL     1      -1.072   4.827  25.141  0.00  0.00    +0.074 C 
ATOM      2  C   UNL     1      -1.566   4.167  25.115  0.00  0.00    +0.139 A 
ATOM      3  N   UNL     1      -2.381   4.260  25.198  0.00  0.00    -0.235 NA
ATOM      4  C   UNL     1      -2.876   3.600  25.172  0.00  0.00    +0.061 A 
ATOM      5  C   UNL     1      -2.556   2.848  25.063  0.00  0.00    +0.029 A 
ATOM      6  C   UNL     1      -1.740   2.756  24.980  0.00  0.00    +0.062 A 
ATOM      7  N   UNL     1      -1.245   3.414  25.006  0.00  0.00    -0.235 NA
BRANCH   4  26
ATOM     26  C   UNL     1      -3.692   3.693  25.255  0.00  0.00    +0.040 C 
ATOM     27  C   UNL     1      -4.109   3.700  25.967  0.00  0.00    +0.006 C 
ATOM     28  C   UNL     1      -4.908   3.806  25.793  0.00  0.00    +0.000 C 
ATOM     29  C   UNL     1      -4.985   3.864  24.973  0.00  0.00    +0.000 C 
ATOM     30  C   UNL     1      -4.234   3.794  24.642  0.00  0.00    +0.006 C 
ENDBRANCH   4  26
ENDBRANCH   8   6
BRANCH  15  16
ATOM     16  C   UNL     1      -0.501  -0.162  24.579  0.00  0.00    +0.131 C 
BRANCH  16  17
ATOM     17  N   UNL     1      -0.953  -0.824  24.384  0.00  0.00    -0.204 NA
ATOM     18  C   UNL     1      -0.832  -1.537  24.779  0.00  0.00    +0.241 C 
ATOM     19  O   UNL     1      -0.258  -1.590  25.370  0.00  0.00    -0.273 OA
BRANCH  18  20
ATOM     20  C   UNL     1      -1.284  -2.199  24.584  0.00  0.00    +0.087 C 
BRANCH  20  21
ATOM     21  C   UNL     1      -2.083  -2.228  24.790  0.00  0.00    +0.021 C 
BRANCH  21  22
ATOM     22  C   UNL     1      -2.571  -2.810  24.468  0.00  0.00    +0.115 C 
BRANCH  22  23
ATOM     23  C   UNL     1      -3.380  -2.805  24.627  0.00  0.00    +0.365 C 
ATOM     24  O   UNL     1      -3.923  -2.795  24.006  0.00  0.00    -0.246 OA
ATOM     25  O   UNL     1      -3.646  -2.811  25.408  0.00  0.00    -0.246 OA
ENDBRANCH  22  23
ENDBRANCH  21  22
ENDBRANCH  20  21
ENDBRANCH  18  20
ENDBRANCH  16  17
ENDBRANCH  15  16
TORSDOF 8
ENDMDL
MODEL 3
REMARK VINA RESULT:      -9.8      3.863      5.243
REMARK  Name = 
REMARK  8 active torsions:
REMARK  status: ('A' for Active; 'I' for Inactive)
REMARK    1  A    between atoms: C_4  and  C_26
REMARK    2  A    between atoms: C_6  and  C_8
REMARK    3  A    between atoms: C_15  and  C_16
REMARK    4  A    between atoms: C_16  and  N_17
REMARK    5  A    between atoms: C_18  and  C_20
REMARK    6  A    between atoms: C_20  and  C_21
REMARK    7  A    between atoms: C_21  and  C_22
REMARK    8  A    between atoms: C_22  and  C_23
REMARK                            x       y       z     vdW  Elec       q    Type
REMARK                         _______ _______ _______ _____ _____    ______ ____
ROOT
ATOM      8  C   UNL     1      -3.792   0.290  24.388  0.00  0.00    +0.056 C 
ATOM      9  C   UNL     1      -3.458   0.779  23.883  0.00  0.00    +0.078 C 
ATOM     10  N   UNL     1      -3.996   0.982  24.475  0.00  0.00    -0.272 NA
ATOM     11  C   UNL     1      -4.252   0.098  24.977  0.00  0.00    +0.072 C 
ATOM     12  C   UNL     1      -4.587  -0.214  25.443  0.00  0.00    +0.018 C 
ATOM     13  C   UNL     1      -4.319   0.496  24.967  0.00  0.00    +0.010 C 
ATOM     14  C   UNL     1      -4.662   1.270  25.201  0.00  0.00    +0.018 C 
ATOM     15  C   UNL     1      -4.357   1.782  24.724  0.00  0.00    +0.079 C 
ENDROOT
BRANCH   8   6
ATOM      1  C   UNL     1      -4.485  -2.391  23.681  0.00  0.00    +0.074 C 
ATOM      2  C   UNL     1      -3.938  -1.848  23.975  0.00  0.00    +0.139 A 
ATOM      3  N   UNL     1      -3.190  -2.105  24.210  0.00  0.00    -0.235 NA
ATOM      4  C   UNL     1      -2.642  -1.563  24.505  0.00  0.00    +0.061 A 
ATOM      5  C   UNL     1      -2.843  -0.765  24.564  0.00  0.00    +0.029 A 
ATOM      6  C   UNL     1      -3.591  -0.509  24.328  0.00  0.00    +0.062 A 
ATOM      7  N   UNL     1      -4.139  -1.051  24.034  0.00  0.00    -0.235 NA
BRANCH   4  26
ATOM     26  C   UNL     1      -1.894  -1.819  24.740  0.00  0.00    +0.040 C 
ATOM     27  C   UNL     1      -1.546  -2.541  24.547  0.00  0.00    +0.006 C 
ATOM     28  C   UNL     1      -0.799  -2.566  24.897  0.00  0.00    +0.000 C 
ATOM     29  C   UNL     1      -0.686  -1.858  25.306  0.00  0.00    +0.000 C 
ATOM     30  C   UNL     1      -1.362  -1.397  25.208  0.00  0.00    +0.006 C 
ENDBRANCH   4  26
ENDBRANCH   8   6
BRANCH  15  16
ATOM     16  C   UNL     1      -4.355   2.586  24.542  0.00  0.00    +0.131 C 
BRANCH  16  17
ATOM     17  N   UNL     1      -3.834   3.096  24.929  0.00  0.00    -0.204 NA
ATOM     18  C   UNL     1      -3.705   3.855  24.633  0.00  0.00    +0.241 C 
ATOM     19  O   UNL     1      -4.096   4.105  23.951  0.00  0.00    -0.273 OA
BRANCH  18  20
ATOM     20  C   UNL     1      -3.184   4.365  25.019  0.00  0.00    +0.087 C 
BRANCH  20  21
ATOM     21  C   UNL     1      -2.376   4.335  24.851  0.00  0.00    +0.021 C 
BRANCH  21  22
ATOM     22  C   UNL     1      -1.847   4.794  25.286  0.00  0.00    +0.115 C 
BRANCH  22  23
ATOM     23  C   UNL     1      -1.041   4.770  25.114  0.00  0.00    +0.365 C 
ATOM     24  O   UNL     1      -0.602   4.094  25.289  0.00  0.00    -0.246 OA
ATOM     25  O   UNL     1      -0.674   5.422  24.767  0.00  0.00    -0.246 OA
ENDBRANCH  22  23
ENDBRANCH  21  22
ENDBRANCH  20  21
ENDBRANCH  18  20
ENDBRANCH  16  17
ENDBRANCH  15  16
TORSDOF 8
ENDMDL
MODEL 4
REMARK VINA RESULT:      -9.4      1.824      2.550
REMARK  Name = 
REMARK  8 active torsions:
REMARK  status: ('A' for Active; 'I' for Inactive)
REMARK    1  A    between atoms: C_4  and  C_26
REMARK    2  A    between atoms: C_6  and  C_8
REMARK    3  A    between atoms: C_15  and  C_16
REMARK    4  A    between atoms: C_16  and  N_17
REMARK    5  A    between atoms: C_18  and  C_20
REMARK    6  A    between atoms: C_20  and  C_21
REMARK    7  A    between atoms: C_21  and  C_22
REMARK    8  A    between atoms: C_22  and  C_23
REMARK                            x       y       z     vdW  Elec       q    Type
REMARK                         _______ _______ _______ _____ _____    ______ ____
ROOT
ATOM      8  C   UNL     1      -1.468   0.577  24.030  0.00  0.00    +0.056 C 
ATOM      9  C   UNL     1      -1.356   0.590  23.260  0.00  0.00    +0.078 C 
ATOM     10  N   UNL     1      -0.787   0.417  23.833  0.00  0.00    -0.272 NA
ATOM     11  C   UNL     1      -1.257   0.485  24.768  0.00  0.00    +0.072 C 
ATOM     12  C   UNL     1      -1.235   0.445  25.419  0.00  0.00    +0.018 C 
ATOM     13  C   UNL     1      -0.904   0.406  24.586  0.00  0.00    +0.010 C 
ATOM     14  C   UNL     1      -0.055   0.197  24.517  0.00  0.00    +0.018 C 
ATOM     15  C   UNL     1       0.097   0.199  23.769  0.00  0.00    +0.079 C 
ENDROOT
BRANCH   8   6
ATOM      1  C   UNL     1      -3.979  -0.285  25.088  0.00  0.00    +0.074 C 
ATOM      2  C   UNL     1      -3.482   0.322  24.833  0.00  0.00    +0.139 A 
ATOM      3  N   UNL     1      -3.743   1.104  24.853  0.00  0.00    -0.235 NA
ATOM      4  C   UNL     1      -3.245   1.711  24.598  0.00  0.00    +0.061 A 
ATOM      5  C   UNL     1      -2.488   1.535  24.324  0.00  0.00    +0.029 A 
ATOM      6  C   UNL     1      -2.227   0.753  24.305  0.00  0.00    +0.062 A 
ATOM      7  N   UNL     1      -2.724   0.146  24.559  0.00  0.00    -0.235 NA
BRANCH   4  26
ATOM     26  C   UNL     1      -3.506   2.494  24.617  0.00  0.00    +0.040 C 
ATOM     27  C   UNL     1      -3.813   2.918  23.980  0.00  0.00    +0.006 C 
ATOM     28  C   UNL     1      -4.002   3.676  24.246  0.00  0.00    +0.000 C 
ATOM     29  C   UNL     1      -3.811   3.719  25.047  0.00  0.00    +0.000 C 
ATOM     30  C   UNL     1      -3.505   2.989  25.276  0.00  0.00    +0.006 C 
ENDBRANCH   4  26
ENDBRANCH   8   6
BRANCH  15  16
ATOM     16  C   UNL     1       0.703   0.076  23.224  0.00  0.00    +0.131 C 
BRANCH  16  17
ATOM     17  N   UNL     1       1.403   0.510  23.280  0.00  0.00    -0.204 NA
ATOM     18  C   UNL     1       2.029   0.348  22.768  0.00  0.00    +0.241 C 
ATOM     19  O   UNL     1       1.957  -0.246  22.201  0.00  0.00    -0.273 OA
BRANCH  18  20
ATOM     20  C   UNL     1       2.729   0.782  22.824  0.00  0.00    +0.087 C 
BRANCH  20  21
ATOM     21  C   UNL     1       3.450   0.392  22.913  0.00  0.00    +0.021 C 
BRANCH  21  22
ATOM     22  C   UNL     1       4.156   0.820  22.899  0.00  0.00    +0.115 C 
BRANCH  22  23
ATOM     23  C   UNL     1       4.839   0.500  23.230  0.00  0.00    +0.365 C 
ATOM     24  O   UNL     1       5.311  -0.014  22.789  0.00  0.00    -0.246 OA
ATOM     25  O   UNL     1       5.053   0.695  24.003  0.00  0.00    -0.246 OA
ENDBRANCH  22  23
ENDBRANCH  21  22
ENDBRANCH  20  21
ENDBRANCH  18  20
ENDBRANCH  16  17
ENDBRANCH  15  16
TORSDOF 8
ENDMDL
MODEL 5
REMARK VINA RESULT:      -9.3      2.697      3.345
REMARK  Name = 
REMARK  8 active torsions:
REMARK  status: ('A' for Active; 'I' for Inactive)
REMARK    1  A    between atoms: C_4  and  C_26
REMARK    2  A    between atoms: C_6  and  C_8
REMARK    3  A    between atoms: C_15  and  C_16
REMARK    4  A    between atoms: C_16  and  N_17
REMARK    5  A    between atoms: C_18  and  C_20
REMARK    6  A    between atoms: C_20  and  C_21
REMARK    7  A    between atoms: C_21  and  C_22
REMARK    8  A    between atoms: C_22  and  C_23
REMARK                            x       y       z     vdW  Elec       q    Type
REMARK                         _______ _______ _______ _____ _____    ______ ____
ROOT
ATOM      8  C   UNL     1      -2.239   1.877  24.627  0.00  0.00    +0.056 C 
ATOM      9  C   UNL     1      -1.910   1.371  25.118  0.00  0.00    +0.078 C 
ATOM     10  N   UNL     1      -1.718   1.474  24.321  0.00  0.00    -0.272 NA
ATOM     11  C   UNL     1      -2.342   2.228  23.947  0.00  0.00    +0.072 C 
ATOM     12  C   UNL     1      -2.542   2.607  23.454  0.00  0.00    +0.018 C 
ATOM     13  C   UNL     1      -2.045   1.972  23.847  0.00  0.00    +0.010 C 
ATOM     14  C   UNL     1      -1.453   1.574  23.335  0.00  0.00    +0.018 C 
ATOM     15  C   UNL     1      -1.104   1.064  23.784  0.00  0.00    +0.079 C 
ENDROOT
BRANCH   8   6
ATOM      1  C   UNL     1      -3.077   4.347  25.797  0.00  0.00    +0.074 C 
ATOM      2  C   UNL     1      -3.257   3.594  25.512  0.00  0.00    +0.139 A 
ATOM      3  N   UNL     1      -4.036   3.323  25.528  0.00  0.00    -0.235 NA
ATOM      4  C   UNL     1      -4.216   2.570  25.244  0.00  0.00    +0.061 A 
ATOM      5  C   UNL     1      -3.618   2.088  24.943  0.00  0.00    +0.029 A 
ATOM      6  C   UNL     1      -2.839   2.360  24.928  0.00  0.00    +0.062 A 
ATOM      7  N   UNL     1      -2.658   3.112  25.212  0.00  0.00    -0.235 NA
BRANCH   4  26
ATOM     26  C   UNL     1      -4.995   2.298  25.259  0.00  0.00    +0.040 C 
ATOM     27  C   UNL     1      -5.472   2.156  24.601  0.00  0.00    +0.006 C 
ATOM     28  C   UNL     1      -6.205   1.891  24.871  0.00  0.00    +0.000 C 
ATOM     29  C   UNL     1      -6.181   1.870  25.695  0.00  0.00    +0.000 C 
ATOM     30  C   UNL     1      -5.433   2.121  25.935  0.00  0.00    +0.006 C 
ENDBRANCH   4  26
ENDBRANCH   8   6
BRANCH  15  16
ATOM     16  C   UNL     1      -0.518   0.485  23.783  0.00  0.00    +0.131 C 
BRANCH  16  17
ATOM     17  N   UNL     1       0.111   0.535  23.252  0.00  0.00    -0.204 NA
ATOM     18  C   UNL     1       0.683  -0.059  23.233  0.00  0.00    +0.241 C 
ATOM     19  O   UNL     1       0.626  -0.703  23.745  0.00  0.00    -0.273 OA
BRANCH  18  20
ATOM     20  C   UNL     1       1.313  -0.008  22.702  0.00  0.00    +0.087 C 
BRANCH  20  21
ATOM     21  C   UNL     1       2.083   0.087  22.983  0.00  0.00    +0.021 C 
BRANCH  21  22
ATOM     22  C   UNL     1       2.704   0.205  22.453  0.00  0.00    +0.115 C 
BRANCH  22  23
ATOM     23  C   UNL     1       3.449   0.420  22.731  0.00  0.00    +0.365 C 
ATOM     24  O   UNL     1       3.661   1.217  22.769  0.00  0.00    -0.246 OA
ATOM     25  O   UNL     1       3.983  -0.161  22.971  0.00  0.00    -0.246 OA
ENDBRANCH  22  23
ENDBRANCH  21  22
ENDBRANCH  20  21
ENDBRANCH  18  20
ENDBRANCH  16  17
ENDBRANCH  15  16
TORSDOF 8
ENDMDL
MODEL 6
REMARK VINA RESULT:      -9.3      3.579      5.346
REMARK  Name = 
REMARK  8 active torsions:
REMARK  status: ('A' for Active; 'I' for Inactive)
REMARK    1  A    between atoms: C_4  and  C_26
REMARK    2  A    between atoms: C_6  and  C_8
REMARK    3  A    between atoms: C_15  and  C_16
REMARK    4  A    between atoms: C_16  and  N_17
REMARK    5  A    between atoms: C_18  and  C_20
REMARK    6  A    between atoms: C_20  and  C_21
REMARK    7  A    between atoms: C_21  and  C_22
REMARK    8  A    between atoms: C_22  and  C_23
REMARK                            x       y       z     vdW  Elec       q    Type
REMARK                         _______ _______ _______ _____ _____    ______ ____
ROOT
ATOM      8  C   UNL     1      -1.376   0.321  25.071  0.00  0.00    +0.056 C 
ATOM      9  C   UNL     1      -1.742   0.650  25.674  0.00  0.00    +0.078 C 
ATOM     10  N   UNL     1      -1.375   1.047  25.051  0.00  0.00    -0.272 NA
ATOM     11  C   UNL     1      -0.980   0.319  24.409  0.00  0.00    +0.072 C 
ATOM     12  C   UNL     1      -0.653   0.156  23.867  0.00  0.00    +0.018 C 
ATOM     13  C   UNL     1      -1.018   0.718  24.463  0.00  0.00    +0.010 C 
ATOM     14  C   UNL     1      -0.929   1.574  24.292  0.00  0.00    +0.018 C 
ATOM     15  C   UNL     1      -1.278   1.936  24.866  0.00  0.00    +0.079 C 
ENDROOT
BRANCH   8   6
ATOM      1  C   UNL     1       0.091  -2.119  25.326  0.00  0.00    +0.074 C 
ATOM      2  C   UNL     1      -0.617  -1.723  25.177  0.00  0.00    +0.139 A 
ATOM      3  N   UNL     1      -1.300  -2.153  25.005  0.00  0.00    -0.235 NA
ATOM      4  C   UNL     1      -2.009  -1.758  24.856  0.00  0.00    +0.061 A 
ATOM      5  C   UNL     1      -2.034  -0.934  24.878  0.00  0.00    +0.029 A 
ATOM      6  C   UNL     1      -1.351  -0.505  25.049  0.00  0.00    +0.062 A 
ATOM      7  N   UNL     1      -0.642  -0.899  25.199  0.00  0.00    -0.235 NA
BRANCH   4  26
ATOM     26  C   UNL     1      -2.692  -2.187  24.684  0.00  0.00    +0.040 C 
ATOM     27  C   UNL     1      -3.297  -2.368  25.215  0.00  0.00    +0.006 C 
ATOM     28  C   UNL     1      -3.869  -2.803  24.811  0.00  0.00    +0.000 C 
ATOM     29  C   UNL     1      -3.618  -2.891  24.030  0.00  0.00    +0.000 C 
ATOM     30  C   UNL     1      -2.891  -2.510  23.952  0.00  0.00    +0.006 C 
ENDBRANCH   4  26
ENDBRANCH   8   6
BRANCH  15  16
ATOM     16  C   UNL     1      -1.460   2.687  25.151  0.00  0.00    +0.131 C 
BRANCH  16  17
ATOM     17  N   UNL     1      -2.191   3.029  24.979  0.00  0.00    -0.204 NA
ATOM     18  C   UNL     1      -2.446   3.690  25.401  0.00  0.00    +0.241 C 
ATOM     19  O   UNL     1      -1.972   4.010  25.995  0.00  0.00    -0.273 OA
BRANCH  18  20
ATOM     20  C   UNL     1      -3.177   4.032  25.228  0.00  0.00    +0.087 C 
BRANCH  20  21
ATOM     21  C   UNL     1      -3.861   3.752  25.597  0.00  0.00    +0.021 C 
BRANCH  21  22
ATOM     22  C   UNL     1      -4.593   3.833  25.224  0.00  0.00    +0.115 C 
BRANCH  22  23
ATOM     23  C   UNL     1      -5.283   3.621  25.622  0.00  0.00    +0.365 C 
ATOM     24  O   UNL     1      -5.389   2.845  25.881  0.00  0.00    -0.246 OA
ATOM     25  O   UNL     1      -5.868   4.186  25.760  0.00  0.00    -0.246 OA
ENDBRANCH  22  23
ENDBRANCH  21  22
ENDBRANCH  20  21
ENDBRANCH  18  20
ENDBRANCH  16  17
ENDBRANCH  15  16
TORSDOF 8
ENDMDL
MODEL 7
REMARK VINA RESULT:      -9.2      3.480      5.610
REMARK  Name = 
REMARK  8 active torsions:
REMARK  status: ('A' for Active; 'I' for Inactive)
REMARK    1  A    between atoms: C_4  and  C_26
REMARK    2  A    between atoms: C_6  and  C_8
REMARK    3  A    between atoms: C_15  and  C_16
REMARK    4  A    between atoms: C_16  and  N_17
REMARK    5  A    between atoms: C_18  and  C_20
REMARK    6  A    between atoms: C_20  and  C_21
REMARK    7  A    between atoms: C_21  and  C_22
REMARK    8  A    between atoms: C_22  and  C_23
REMARK                            x       y       z     vdW  Elec       q    Type
REMARK                         _______ _______ _______ _____ _____    ______ ____
ROOT
ATOM      8  C   UNL     1      -3.792   1.670  24.852  0.00  0.00    +0.056 C 
ATOM      9  C   UNL     1      -3.726   1.157  25.433  0.00  0.00    +0.078 C 
ATOM     10  N   UNL     1      -3.836   0.978  24.634  0.00  0.00    -0.272 NA
ATOM     11  C   UNL     1      -3.885   1.889  24.117  0.00  0.00    +0.072 C 
ATOM     12  C   UNL     1      -3.951   2.222  23.559  0.00  0.00    +0.018 C 
ATOM     13  C   UNL     1      -3.899   1.487  24.070  0.00  0.00    +0.010 C 
ATOM     14  C   UNL     1      -3.971   0.719  23.651  0.00  0.00    +0.018 C 
ATOM     15  C   UNL     1      -3.911   0.184  24.191  0.00  0.00    +0.079 C 
ENDROOT
BRANCH   8   6
ATOM      1  C   UNL     1      -5.080   4.101  25.627  0.00  0.00    +0.074 C 
ATOM      2  C   UNL     1      -4.393   3.686  25.436  0.00  0.00    +0.139 A 
ATOM      3  N   UNL     1      -3.664   4.071  25.442  0.00  0.00    -0.235 NA
ATOM      4  C   UNL     1      -2.977   3.656  25.251  0.00  0.00    +0.061 A 
ATOM      5  C   UNL     1      -3.020   2.856  25.054  0.00  0.00    +0.029 A 
ATOM      6  C   UNL     1      -3.750   2.471  25.049  0.00  0.00    +0.062 A 
ATOM      7  N   UNL     1      -4.436   2.886  25.240  0.00  0.00    -0.235 NA
BRANCH   4  26
ATOM     26  C   UNL     1      -2.247   4.041  25.256  0.00  0.00    +0.040 C 
ATOM     27  C   UNL     1      -2.095   4.796  24.962  0.00  0.00    +0.006 C 
ATOM     28  C   UNL     1      -1.296   4.960  25.081  0.00  0.00    +0.000 C 
ATOM     29  C   UNL     1      -0.954   4.306  25.448  0.00  0.00    +0.000 C 
ATOM     30  C   UNL     1      -1.542   3.738  25.557  0.00  0.00    +0.006 C 
ENDBRANCH   4  26
ENDBRANCH   8   6
BRANCH  15  16
ATOM     16  C   UNL     1      -3.912  -0.633  24.306  0.00  0.00    +0.131 C 
BRANCH  16  17
ATOM     17  N   UNL     1      -3.205  -1.056  24.272  0.00  0.00    -0.204 NA
ATOM     18  C   UNL     1      -3.194  -1.856  24.474  0.00  0.00    +0.241 C 
ATOM     19  O   UNL     1      -3.889  -2.233  24.709  0.00  0.00    -0.273 OA
BRANCH  18  20
ATOM     20  C   UNL     1      -2.487  -2.280  24.440  0.00  0.00    +0.087 C 
BRANCH  20  21
ATOM     21  C   UNL     1      -1.829  -2.018  24.863  0.00  0.00    +0.021 C 
BRANCH  21  22
ATOM     22  C   UNL     1      -1.070  -2.236  24.622  0.00  0.00    +0.115 C 
BRANCH  22  23
ATOM     23  C   UNL     1      -0.412  -1.846  24.929  0.00  0.00    +0.365 C 
ATOM     24  O   UNL     1      -0.055  -1.237  24.501  0.00  0.00    -0.246 OA
ATOM     25  O   UNL     1      -0.109  -2.064  25.665  0.00  0.00    -0.246 OA
ENDBRANCH  22  23
ENDBRANCH  21  22
ENDBRANCH  20  21
ENDBRANCH  18  20
ENDBRANCH  16  17
ENDBRANCH  15  16
TORSDOF 8
ENDMDL
