MODEL 1
REMARK VINA RESULT:     -11.3      0.000      0.000
REMARK  Name = 
REMARK  7 active torsions:
REMARK  status: ('A' for Active; 'I' for Inactive)
REMARK    1  A    between atoms: O_2  and  C_3
REMARK    2  A    between atoms: C_7  and  C_8
REMARK    3  A    between atoms: C_8  and  N_9
REMARK    4  A    between atoms: N_9  and  C_10
REMARK    5  A    between atoms: C_10  and  C_11
REMARK    6  A    between atoms: C_11  and  C_12
REMARK    7  A    between atoms: C_15  and  C_17
REMARK                            x       y       z     vdW  Elec       q    Type
REMARK                         _______ _______ _______ _____ _____    ______ ____
ROOT
ATOM     10  C   UNL     1      -4.382   2.899  25.135  0.00  0.00    +0.120 C 
ATOM     23  C   UNL     1      -4.505   3.506  25.680  0.00  0.00    +0.161 C 
ATOM     24  O   UNL     1      -5.319   3.461  25.548  0.00  0.00    -0.351 OA
ATOM     25  C   UNL     1      -5.196   2.853  25.002  0.00  0.00    +0.161 C 
ENDROOT
BRANCH  10   9
ATOM      9  N   UNL     1      -3.569   2.944  25.267  0.00  0.00    -0.211 NA
BRANCH   9   8
ATOM      8  C   UNL     1      -3.212   3.675  25.397  0.00  0.00    +0.115 C 
BRANCH   8   7
ATOM      3  C   UNL     1      -1.112   3.280  25.842  0.00  0.00    +0.138 A 
ATOM      4  C   UNL     1      -0.744   3.868  25.396  0.00  0.00    +0.037 A 
ATOM      5  C   UNL     1      -1.199   4.392  24.950  0.00  0.00    +0.003 A 
ATOM      6  C   UNL     1      -2.022   4.328  24.950  0.00  0.00    -0.003 A 
ATOM      7  C   UNL     1      -2.389   3.739  25.397  0.00  0.00    -0.002 A 
ATOM     26  C   UNL     1      -1.934   3.215  25.843  0.00  0.00    +0.034 A 
BRANCH   3   2
ATOM      1  C   UNL     1       0.009   2.401  25.955  0.00  0.00    +0.252 C 
ATOM      2  O   UNL     1      -0.657   2.755  26.289  0.00  0.00    -0.471 OA
ENDBRANCH   3   2
ENDBRANCH   8   7
ENDBRANCH   9   8
ENDBRANCH  10   9
BRANCH  10  11
ATOM     11  C   UNL     1      -4.259   2.292  24.589  0.00  0.00    +0.070 C 
BRANCH  11  12
ATOM     12  C   UNL     1      -4.395   1.508  24.808  0.00  0.00    +0.102 A 
ATOM     13  N   UNL     1      -4.935   1.249  25.376  0.00  0.00    -0.081 NA
ATOM     14  O   UNL     1      -4.888   0.426  25.416  0.00  0.00    -0.352 OA
ATOM     15  C   UNL     1      -4.319   0.176  24.873  0.00  0.00    +0.194 A 
ATOM     16  C   UNL     1      -4.015   0.845  24.498  0.00  0.00    +0.060 A 
BRANCH  15  17
ATOM     17  C   UNL     1      -4.093  -0.604  24.730  0.00  0.00    +0.118 A 
ATOM     18  N   UNL     1      -4.372  -0.997  24.060  0.00  0.00    -0.241 NA
ATOM     19  C   UNL     1      -4.147  -1.778  23.918  0.00  0.00    +0.099 A 
ATOM     20  C   UNL     1      -3.644  -2.165  24.444  0.00  0.00    +0.021 A 
ATOM     21  C   UNL     1      -3.366  -1.772  25.114  0.00  0.00    +0.003 A 
ATOM     22  C   UNL     1      -3.591  -0.991  25.257  0.00  0.00    +0.022 A 
ENDBRANCH  15  17
ENDBRANCH  11  12
ENDBRANCH  10  11
TORSDOF 7
ENDMDL
MODEL 2
REMARK VINA RESULT:     -11.1      1.158      4.417
REMARK  Name = 
REMARK  7 active torsions:
REMARK  status: ('A' for Active; 'I' for Inactive)
REMARK    1  A    between atoms: O_2  and  C_3
REMARK    2  A    between atoms: C_7  and  C_8
REMARK    3  A    between atoms: C_8  and  N_9
REMARK    4  A    between atoms: N_9  and  C_10
REMARK    5  A    between atoms: C_10  and  C_11
REMARK    6  A    between atoms: C_11  and  C_12
REMARK    7  A    between atoms: C_15  and  C_17
REMARK                            x       y       z     vdW  Elec       q    Type
REMARK                         _______ _______ _______ _____ _____    ______ ____
ROOT
ATOM     10  C   UNL     1      -5.002   1.841  25.001  0.00  0.00    +0.120 C 
ATOM     23  C   UNL     1      -5.519   1.389  25.457  0.00  0.00    +0.161 C 
ATOM     24  O   UNL     1      -6.043   2.025  25.496  0.00  0.00    -0.351 OA
ATOM     25  C   UNL     1      -5.525   2.478  25.038  0.00  0.00    +0.161 C 
ENDROOT
BRANCH  10   9
ATOM      9  N   UNL     1      -4.478   1.205  24.963  0.00  0.00    -0.211 NA
BRANCH   9   8
ATOM      8  C   UNL     1      -4.766   0.433  24.935  0.00  0.00    +0.115 C 
BRANCH   8   7
ATOM      3  C   UNL     1      -3.138  -0.990  25.230  0.00  0.00    +0.138 A 
ATOM      4  C   UNL     1      -3.216  -1.459  24.556  0.00  0.00    +0.037 A 
ATOM      5  C   UNL     1      -3.811  -1.296  24.008  0.00  0.00    +0.003 A 
ATOM      6  C   UNL     1      -4.328  -0.666  24.134  0.00  0.00    -0.003 A 
ATOM      7  C   UNL     1      -4.249  -0.197  24.809  0.00  0.00    -0.002 A 
ATOM     26  C   UNL     1      -3.654  -0.359  25.357  0.00  0.00    +0.034 A 
BRANCH   3   2
ATOM      1  C   UNL     1      -1.751  -1.114  25.550  0.00  0.00    +0.252 C 
ATOM      2  O   UNL     1      -2.543  -1.152  25.779  0.00  0.00    -0.471 OA
ENDBRANCH   3   2
ENDBRANCH   8   7
ENDBRANCH   9   8
ENDBRANCH  10   9
BRANCH  10  11
ATOM     11  C   UNL     1      -4.484   2.294  24.544  0.00  0.00    +0.070 C 
BRANCH  11  12
ATOM     12  C   UNL     1      -3.976   2.831  24.908  0.00  0.00    +0.102 A 
ATOM     13  N   UNL     1      -4.122   3.238  25.611  0.00  0.00    -0.081 NA
ATOM     14  O   UNL     1      -3.467   3.714  25.771  0.00  0.00    -0.352 OA
ATOM     15  C   UNL     1      -2.916   3.602  25.167  0.00  0.00    +0.194 A 
ATOM     16  C   UNL     1      -3.230   3.056  24.634  0.00  0.00    +0.060 A 
BRANCH  15  17
ATOM     17  C   UNL     1      -2.180   3.970  25.106  0.00  0.00    +0.118 A 
ATOM     18  N   UNL     1      -1.500   3.516  24.994  0.00  0.00    -0.241 NA
ATOM     19  C   UNL     1      -0.765   3.884  24.934  0.00  0.00    +0.099 A 
ATOM     20  C   UNL     1      -0.709   4.705  24.985  0.00  0.00    +0.021 A 
ATOM     21  C   UNL     1      -1.388   5.159  25.096  0.00  0.00    +0.003 A 
ATOM     22  C   UNL     1      -2.124   4.791  25.157  0.00  0.00    +0.022 A 
ENDBRANCH  15  17
ENDBRANCH  11  12
ENDBRANCH  10  11
TORSDOF 7
ENDMDL
MODEL 3
REMARK VINA RESULT:     -10.2      1.592      3.089
REMARK  Name = 
REMARK  7 active torsions:
REMARK  status: ('A' for Active; 'I' for Inactive)
REMARK    1  A    between atoms: O_2  and  C_3
REMARK    2  A    between atoms: C_7  and  C_8
REMARK    3  A    between atoms: C_8  and  N_9
REMARK    4  A    between atoms: N_9  and  C_10
REMARK    5  A    between atoms: C_10  and  C_11
REMARK    6  A    between atoms: C_11  and  C_12
REMARK    7  A    between atoms: C_15  and  C_17
REMARK                            x       y       z     vdW  Elec       q    Type
REMARK                         _______ _______ _______ _____ _____    ______ ____
ROOT
ATOM     10  C   UNL     1      -1.058   2.023  25.390  0.00  0.00    +0.120 C 
ATOM     23  C   UNL     1      -0.979   2.645  25.926  0.00  0.00    +0.161 C 
ATOM     24  O   UNL     1      -0.186   2.446  26.040  0.00  0.00    -0.351 OA
ATOM     25  C   UNL     1      -0.265   1.824  25.503  0.00  0.00    +0.161 C 
ENDROOT
BRANCH  10   9
ATOM      9  N   UNL     1      -1.850   2.222  25.275  0.00  0.00    -0.211 NA
BRANCH   9   8
ATOM      8  C   UNL     1      -2.072   3.012  25.202  0.00  0.00    +0.115 C 
BRANCH   8   7
ATOM      3  C   UNL     1      -4.214   3.389  25.380  0.00  0.00    +0.138 A 
ATOM      4  C   UNL     1      -4.402   3.597  24.604  0.00  0.00    +0.037 A 
ATOM      5  C   UNL     1      -3.812   3.610  24.028  0.00  0.00    +0.003 A 
ATOM      6  C   UNL     1      -3.035   3.415  24.226  0.00  0.00    -0.003 A 
ATOM      7  C   UNL     1      -2.848   3.207  25.003  0.00  0.00    -0.002 A 
ATOM     26  C   UNL     1      -3.438   3.193  25.580  0.00  0.00    +0.034 A 
BRANCH   3   2
ATOM      1  C   UNL     1      -5.503   2.958  25.822  0.00  0.00    +0.252 C 
ATOM      2  O   UNL     1      -4.804   3.375  25.957  0.00  0.00    -0.471 OA
ENDBRANCH   3   2
ENDBRANCH   8   7
ENDBRANCH   9   8
ENDBRANCH  10   9
BRANCH  10  11
ATOM     11  C   UNL     1      -1.136   1.401  24.853  0.00  0.00    +0.070 C 
BRANCH  11  12
ATOM     12  C   UNL     1      -1.313   0.643  25.125  0.00  0.00    +0.102 A 
ATOM     13  N   UNL     1      -0.980   0.273  25.783  0.00  0.00    -0.081 NA
ATOM     14  O   UNL     1      -1.315  -0.478  25.851  0.00  0.00    -0.352 OA
ATOM     15  C   UNL     1      -1.856  -0.573  25.235  0.00  0.00    +0.194 A 
ATOM     16  C   UNL     1      -1.854   0.119  24.786  0.00  0.00    +0.060 A 
BRANCH  15  17
ATOM     17  C   UNL     1      -2.317  -1.242  25.092  0.00  0.00    +0.118 A 
ATOM     18  N   UNL     1      -2.012  -1.864  24.643  0.00  0.00    -0.241 NA
ATOM     19  C   UNL     1      -2.472  -2.533  24.500  0.00  0.00    +0.099 A 
ATOM     20  C   UNL     1      -3.237  -2.580  24.806  0.00  0.00    +0.021 A 
ATOM     21  C   UNL     1      -3.541  -1.959  25.254  0.00  0.00    +0.003 A 
ATOM     22  C   UNL     1      -3.081  -1.290  25.397  0.00  0.00    +0.022 A 
ENDBRANCH  15  17
ENDBRANCH  11  12
ENDBRANCH  10  11
TORSDOF 7
ENDMDL
MODEL 4
REMARK VINA RESULT:     -10.1      2.301      5.561
REMARK  Name = 
REMARK  7 active torsions:
REMARK  status: ('A' for Active; 'I' for Inactive)
REMARK    1  A    between atoms: O_2  and  C_3
REMARK    2  A    between atoms: C_7  and  C_8
REMARK    3  A    between atoms: C_8  and  N_9
REMARK    4  A    between atoms: N_9  and  C_10
REMARK    5  A    between atoms: C_10  and  C_11
REMARK    6  A    between atoms: C_11  and  C_12
REMARK    7  A    between atoms: C_15  and  C_17
REMARK                            x       y       z     vdW  Elec       q    Type
REMARK                         _______ _______ _______ _____ _____    ______ ____
ROOT
ATOM     10  C   UNL     1      -0.571   0.102  24.428  0.00  0.00    +0.120 C 
ATOM     23  C   UNL     1      -0.445  -0.520  23.902  0.00  0.00    +0.161 C 
ATOM     24  O   UNL     1       0.302  -0.220  23.723  0.00  0.00    -0.351 OA
ATOM     25  C   UNL     1       0.177   0.404  24.249  0.00  0.00    +0.161 C 
ENDROOT
BRANCH  10   9
ATOM      9  N   UNL     1      -1.318  -0.198  24.607  0.00  0.00    -0.211 NA
BRANCH   9   8
ATOM      8  C   UNL     1      -1.395  -0.963  24.905  0.00  0.00    +0.115 C 
BRANCH   8   7
ATOM      3  C   UNL     1      -3.250  -2.098  24.716  0.00  0.00    +0.138 A 
ATOM      4  C   UNL     1      -3.640  -1.877  25.408  0.00  0.00    +0.037 A 
ATOM      5  C   UNL     1      -3.281  -1.351  25.933  0.00  0.00    +0.003 A 
ATOM      6  C   UNL     1      -2.532  -1.046  25.766  0.00  0.00    -0.003 A 
ATOM      7  C   UNL     1      -2.143  -1.268  25.072  0.00  0.00    -0.002 A 
ATOM     26  C   UNL     1      -2.502  -1.793  24.547  0.00  0.00    +0.034 A 
BRANCH   3   2
ATOM      1  C   UNL     1      -4.301  -2.406  23.798  0.00  0.00    +0.252 C 
ATOM      2  O   UNL     1      -3.608  -2.624  24.190  0.00  0.00    -0.471 OA
ENDBRANCH   3   2
ENDBRANCH   8   7
ENDBRANCH   9   8
ENDBRANCH  10   9
BRANCH  10  11
ATOM     11  C   UNL     1      -0.696   0.726  24.954  0.00  0.00    +0.070 C 
BRANCH  11  12
ATOM     12  C   UNL     1      -0.911   1.469  24.669  0.00  0.00    +0.102 A 
ATOM     13  N   UNL     1      -1.099   1.653  23.887  0.00  0.00    -0.081 NA
ATOM     14  O   UNL     1      -1.280   2.457  23.850  0.00  0.00    -0.352 OA
ATOM     15  C   UNL     1      -1.203   2.771  24.610  0.00  0.00    +0.194 A 
ATOM     16  C   UNL     1      -0.975   2.160  25.115  0.00  0.00    +0.060 A 
BRANCH  15  17
ATOM     17  C   UNL     1      -1.332   3.557  24.825  0.00  0.00    +0.118 A 
ATOM     18  N   UNL     1      -2.054   3.779  25.159  0.00  0.00    -0.241 NA
ATOM     19  C   UNL     1      -2.183   4.565  25.375  0.00  0.00    +0.099 A 
ATOM     20  C   UNL     1      -1.590   5.128  25.257  0.00  0.00    +0.021 A 
ATOM     21  C   UNL     1      -0.870   4.905  24.924  0.00  0.00    +0.003 A 
ATOM     22  C   UNL     1      -0.741   4.119  24.709  0.00  0.00    +0.022 A 
ENDBRANCH  15  17
ENDBRANCH  11  12
ENDBRANCH  10  11
TORSDOF 7
ENDMDL
