MODEL 1
REMARK VINA RESULT:     -12.4      0.000      0.000
REMARK  Name = 
REMARK  7 active torsions:
REMARK  status: ('A' for Active; 'I' for Inactive)
REMARK    1  A    between atoms: C_4  and  C_17
REMARK    2  A    between atoms: N_5  and  C_6
REMARK    3  A    between atoms: C_6  and  C_7
REMARK    4  A    between atoms: C_10  and  C_13
REMARK    5  A    between atoms: C_19  and  C_22
REMARK    6  A    between atoms: C_25  and  O_26
REMARK    7  A    between atoms: O_26  and  C_27
REMARK                            x       y       z     vdW  Elec       q    Type
REMARK                         _______ _______ _______ _____ _____    ______ ____
ROOT
ATOM      1  O   UNL     1      -5.826   3.997  26.140  0.00  0.00    -0.222 OA
ATOM      2  C   UNL     1      -5.338   3.425  25.801  0.00  0.00    +0.170 C 
ATOM      3  C   UNL     1      -5.564   2.662  25.584  0.00  0.00    +0.060 C 
ATOM      4  C   UNL     1      -4.903   2.281  25.269  0.00  0.00    +0.140 C 
ATOM      5  N   UNL     1      -4.270   2.809  25.291  0.00  0.00    -0.260 NA
ATOM     16  C   UNL     1      -4.539   3.516  25.621  0.00  0.00    +0.106 C 
ENDROOT
BRANCH   4  17
ATOM     17  C   UNL     1      -4.881   1.508  24.981  0.00  0.00    +0.251 A 
ATOM     18  N   UNL     1      -4.353   0.919  25.215  0.00  0.00    -0.190 NA
ATOM     19  C   UNL     1      -4.529   0.235  24.787  0.00  0.00    +0.203 A 
ATOM     20  N   UNL     1      -5.165   0.402  24.290  0.00  0.00    -0.056 NA
ATOM     21  O   UNL     1      -5.383   1.189  24.409  0.00  0.00    -0.336 OA
BRANCH  19  22
ATOM     22  C   UNL     1      -4.136  -0.489  24.847  0.00  0.00    +0.039 A 
ATOM     23  C   UNL     1      -3.698  -0.665  25.523  0.00  0.00    +0.006 A 
ATOM     24  C   UNL     1      -3.306  -1.388  25.582  0.00  0.00    +0.037 A 
ATOM     25  C   UNL     1      -3.352  -1.935  24.966  0.00  0.00    +0.147 A 
ATOM     31  C   UNL     1      -3.791  -1.759  24.291  0.00  0.00    +0.037 A 
ATOM     32  C   UNL     1      -4.184  -1.035  24.231  0.00  0.00    +0.006 A 
BRANCH  25  26
ATOM     26  O   UNL     1      -2.961  -2.658  25.026  0.00  0.00    -0.404 OA
BRANCH  26  27
ATOM     27  C   UNL     1      -2.315  -2.819  24.538  0.00  0.00    +0.575 C 
ATOM     28  F   UNL     1      -1.669  -2.979  24.050  0.00  0.00    -0.133 F 
ATOM     29  F   UNL     1      -1.813  -2.451  25.080  0.00  0.00    -0.133 F 
ATOM     30  F   UNL     1      -2.816  -3.186  23.996  0.00  0.00    -0.133 F 
ENDBRANCH  26  27
ENDBRANCH  25  26
ENDBRANCH  19  22
ENDBRANCH   4  17
BRANCH   5   6
ATOM      6  C   UNL     1      -3.502   2.656  25.031  0.00  0.00    +0.100 C 
BRANCH   6   7
ATOM      7  C   UNL     1      -2.937   3.257  25.039  0.00  0.00    -0.006 A 
ATOM      8  C   UNL     1      -2.401   3.310  25.664  0.00  0.00    -0.003 A 
ATOM      9  C   UNL     1      -1.835   3.912  25.671  0.00  0.00    +0.006 A 
ATOM     10  C   UNL     1      -1.806   4.458  25.055  0.00  0.00    +0.080 A 
ATOM     11  C   UNL     1      -2.342   4.404  24.429  0.00  0.00    +0.006 A 
ATOM     12  C   UNL     1      -2.907   3.803  24.422  0.00  0.00    -0.003 A 
BRANCH  10  13
ATOM     13  C   UNL     1      -1.240   5.059  25.063  0.00  0.00    +0.388 C 
ATOM     14  O   UNL     1      -1.472   5.841  25.189  0.00  0.00    -0.241 OA
ATOM     15  O   UNL     1      -0.444   4.878  24.945  0.00  0.00    -0.241 OA
ENDBRANCH  10  13
ENDBRANCH   6   7
ENDBRANCH   5   6
TORSDOF 7
ENDMDL
MODEL 2
REMARK VINA RESULT:     -11.6      2.556      5.473
REMARK  Name = 
REMARK  7 active torsions:
REMARK  status: ('A' for Active; 'I' for Inactive)
REMARK    1  A    between atoms: C_4  and  C_17
REMARK    2  A    between atoms: N_5  and  C_6
REMARK    3  A    between atoms: C_6  and  C_7
REMARK    4  A    between atoms: C_10  and  C_13
REMARK    5  A    between atoms: C_19  and  C_22
REMARK    6  A    between atoms: C_25  and  O_26
REMARK    7  A    between atoms: O_26  and  C_27
REMARK                            x       y       z     vdW  Elec       q    Type
REMARK                         _______ _______ _______ _____ _____    ______ ____
ROOT
ATOM      1  O   UNL     1      -6.925   1.570  24.660  0.00  0.00    -0.222 OA
ATOM      2  C   UNL     1      -6.127   1.663  24.846  0.00  0.00    +0.170 C 
ATOM      3  C   UNL     1      -5.774   2.349  25.139  0.00  0.00    +0.060 C 
ATOM      4  C   UNL     1      -4.970   2.196  25.245  0.00  0.00    +0.140 C 
ATOM      5  N   UNL     1      -4.827   1.416  25.017  0.00  0.00    -0.260 NA
ATOM     16  C   UNL     1      -5.543   1.087  24.770  0.00  0.00    +0.106 C 
ENDROOT
BRANCH   4  17
ATOM     17  C   UNL     1      -4.409   2.729  25.529  0.00  0.00    +0.251 A 
ATOM     18  N   UNL     1      -3.689   2.912  25.171  0.00  0.00    -0.190 NA
ATOM     19  C   UNL     1      -3.304   3.469  25.642  0.00  0.00    +0.203 A 
ATOM     20  N   UNL     1      -3.786   3.631  26.292  0.00  0.00    -0.056 NA
ATOM     21  O   UNL     1      -4.469   3.173  26.222  0.00  0.00    -0.336 OA
BRANCH  19  22
ATOM     22  C   UNL     1      -2.566   3.806  25.491  0.00  0.00    +0.039 A 
ATOM     23  C   UNL     1      -1.883   3.348  25.552  0.00  0.00    +0.006 A 
ATOM     24  C   UNL     1      -1.145   3.685  25.401  0.00  0.00    +0.037 A 
ATOM     25  C   UNL     1      -1.091   4.480  25.187  0.00  0.00    +0.147 A 
ATOM     31  C   UNL     1      -1.774   4.938  25.125  0.00  0.00    +0.037 A 
ATOM     32  C   UNL     1      -2.512   4.601  25.277  0.00  0.00    +0.006 A 
BRANCH  25  26
ATOM     26  O   UNL     1      -0.354   4.817  25.035  0.00  0.00    -0.404 OA
BRANCH  26  27
ATOM     27  C   UNL     1      -0.154   5.043  24.268  0.00  0.00    +0.575 C 
ATOM     28  F   UNL     1       0.046   5.268  23.499  0.00  0.00    -0.133 F 
ATOM     29  F   UNL     1       0.012   4.256  24.078  0.00  0.00    -0.133 F 
ATOM     30  F   UNL     1      -0.319   5.828  24.455  0.00  0.00    -0.133 F 
ENDBRANCH  26  27
ENDBRANCH  25  26
ENDBRANCH  19  22
ENDBRANCH   4  17
BRANCH   5   6
ATOM      6  C   UNL     1      -4.097   1.032  25.032  0.00  0.00    +0.100 C 
BRANCH   6   7
ATOM      7  C   UNL     1      -4.048   0.231  24.846  0.00  0.00    -0.006 A 
ATOM      8  C   UNL     1      -4.045  -0.334  25.448  0.00  0.00    -0.003 A 
ATOM      9  C   UNL     1      -3.996  -1.136  25.260  0.00  0.00    +0.006 A 
ATOM     10  C   UNL     1      -3.950  -1.373  24.472  0.00  0.00    +0.080 A 
ATOM     11  C   UNL     1      -3.953  -0.809  23.870  0.00  0.00    +0.006 A 
ATOM     12  C   UNL     1      -4.002  -0.008  24.058  0.00  0.00    -0.003 A 
BRANCH  10  13
ATOM     13  C   UNL     1      -3.901  -2.176  24.286  0.00  0.00    +0.388 C 
ATOM     14  O   UNL     1      -4.359  -2.485  23.673  0.00  0.00    -0.241 OA
ATOM     15  O   UNL     1      -3.395  -2.669  24.711  0.00  0.00    -0.241 OA
ENDBRANCH  10  13
ENDBRANCH   6   7
ENDBRANCH   5   6
TORSDOF 7
ENDMDL
MODEL 3
REMARK VINA RESULT:     -11.4      2.323      3.393
REMARK  Name = 
REMARK  7 active torsions:
REMARK  status: ('A' for Active; 'I' for Inactive)
REMARK    1  A    between atoms: C_4  and  C_17
REMARK    2  A    between atoms: N_5  and  C_6
REMARK    3  A    between atoms: C_6  and  C_7
REMARK    4  A    between atoms: C_10  and  C_13
REMARK    5  A    between atoms: C_19  and  C_22
REMARK    6  A    between atoms: C_25  and  O_26
REMARK    7  A    between atoms: O_26  and  C_27
REMARK                            x       y       z     vdW  Elec       q    Type
REMARK                         _______ _______ _______ _____ _____    ______ ____
ROOT
ATOM      1  O   UNL     1       1.358   1.639  23.613  0.00  0.00    -0.222 OA
ATOM      2  C   UNL     1       0.706   1.482  24.094  0.00  0.00    +0.170 C 
ATOM      3  C   UNL     1       0.409   0.735  24.278  0.00  0.00    +0.060 C 
ATOM      4  C   UNL     1      -0.244   0.836  24.773  0.00  0.00    +0.140 C 
ATOM      5  N   UNL     1      -0.349   1.645  24.894  0.00  0.00    -0.260 NA
ATOM     16  C   UNL     1       0.239   2.045  24.474  0.00  0.00    +0.106 C 
ENDROOT
BRANCH   4  17
ATOM     17  C   UNL     1      -0.709   0.234  25.090  0.00  0.00    +0.251 A 
ATOM     18  N   UNL     1      -1.330  -0.153  24.708  0.00  0.00    -0.190 NA
ATOM     19  C   UNL     1      -1.640  -0.714  25.228  0.00  0.00    +0.203 A 
ATOM     20  N   UNL     1      -1.212  -0.674  25.931  0.00  0.00    -0.056 NA
ATOM     21  O   UNL     1      -0.636  -0.088  25.847  0.00  0.00    -0.336 OA
BRANCH  19  22
ATOM     22  C   UNL     1      -2.269  -1.225  25.071  0.00  0.00    +0.039 A 
ATOM     23  C   UNL     1      -3.036  -1.014  25.289  0.00  0.00    +0.006 A 
ATOM     24  C   UNL     1      -3.664  -1.525  25.132  0.00  0.00    +0.037 A 
ATOM     25  C   UNL     1      -3.525  -2.247  24.758  0.00  0.00    +0.147 A 
ATOM     31  C   UNL     1      -2.758  -2.458  24.540  0.00  0.00    +0.037 A 
ATOM     32  C   UNL     1      -2.129  -1.947  24.697  0.00  0.00    +0.006 A 
BRANCH  25  26
ATOM     26  O   UNL     1      -4.153  -2.758  24.601  0.00  0.00    -0.404 OA
BRANCH  26  27
ATOM     27  C   UNL     1      -4.443  -2.832  23.832  0.00  0.00    +0.575 C 
ATOM     28  F   UNL     1      -4.732  -2.906  23.063  0.00  0.00    -0.133 F 
ATOM     29  F   UNL     1      -4.026  -3.539  23.742  0.00  0.00    -0.133 F 
ATOM     30  F   UNL     1      -4.859  -2.126  23.921  0.00  0.00    -0.133 F 
ENDBRANCH  26  27
ENDBRANCH  25  26
ENDBRANCH  19  22
ENDBRANCH   4  17
BRANCH   5   6
ATOM      6  C   UNL     1      -0.938   1.994  25.354  0.00  0.00    +0.100 C 
BRANCH   6   7
ATOM      7  C   UNL     1      -1.079   2.805  25.299  0.00  0.00    -0.006 A 
ATOM      8  C   UNL     1      -1.654   3.089  24.779  0.00  0.00    -0.003 A 
ATOM      9  C   UNL     1      -1.794   3.901  24.725  0.00  0.00    +0.006 A 
ATOM     10  C   UNL     1      -1.360   4.427  25.188  0.00  0.00    +0.080 A 
ATOM     11  C   UNL     1      -0.785   4.143  25.707  0.00  0.00    +0.006 A 
ATOM     12  C   UNL     1      -0.645   3.332  25.761  0.00  0.00    -0.003 A 
BRANCH  10  13
ATOM     13  C   UNL     1      -1.501   5.238  25.132  0.00  0.00    +0.388 C 
ATOM     14  O   UNL     1      -2.204   5.555  25.426  0.00  0.00    -0.241 OA
ATOM     15  O   UNL     1      -0.941   5.732  24.783  0.00  0.00    -0.241 OA
ENDBRANCH  10  13
ENDBRANCH   6   7
ENDBRANCH   5   6
TORSDOF 7
ENDMDL
MODEL 4
REMARK VINA RESULT:     -10.9      3.169      6.111
REMARK  Name = 
REMARK  7 active torsions:
REMARK  status: ('A' for Active; 'I' for Inactive)
REMARK    1  A    between atoms: C_4  and  C_17
REMARK    2  A    between atoms: N_5  and  C_6
REMARK    3  A    between atoms: C_6  and  C_7
REMARK    4  A    between atoms: C_10  and  C_13
REMARK    5  A    between atoms: C_19  and  C_22
REMARK    6  A    between atoms: C_25  and  O_26
REMARK    7  A    between atoms: O_26  and  C_27
REMARK                            x       y       z     vdW  Elec       q    Type
REMARK                         _______ _______ _______ _____ _____    ______ ____
ROOT
ATOM      1  O   UNL     1       0.847  -0.279  22.855  0.00  0.00    -0.222 OA
ATOM      2  C   UNL     1       0.359  -0.030  23.472  0.00  0.00    +0.170 C 
ATOM      3  C   UNL     1       0.218   0.753  23.691  0.00  0.00    +0.060 C 
ATOM      4  C   UNL     1      -0.301   0.748  24.333  0.00  0.00    +0.140 C 
ATOM      5  N   UNL     1      -0.480  -0.038  24.509  0.00  0.00    -0.260 NA
ATOM     16  C   UNL     1      -0.071  -0.519  23.977  0.00  0.00    +0.106 C 
ENDROOT
BRANCH   4  17
ATOM     17  C   UNL     1      -0.589   1.411  24.728  0.00  0.00    +0.251 A 
ATOM     18  N   UNL     1      -1.346   1.732  24.650  0.00  0.00    -0.190 NA
ATOM     19  C   UNL     1      -1.396   2.390  25.145  0.00  0.00    +0.203 A 
ATOM     20  N   UNL     1      -0.672   2.477  25.528  0.00  0.00    -0.056 NA
ATOM     21  O   UNL     1      -0.172   1.872  25.271  0.00  0.00    -0.336 OA
BRANCH  19  22
ATOM     22  C   UNL     1      -2.056   2.877  25.239  0.00  0.00    +0.039 A 
ATOM     23  C   UNL     1      -2.116   3.368  25.899  0.00  0.00    +0.006 A 
ATOM     24  C   UNL     1      -2.776   3.853  25.993  0.00  0.00    +0.037 A 
ATOM     25  C   UNL     1      -3.376   3.849  25.427  0.00  0.00    +0.147 A 
ATOM     31  C   UNL     1      -3.316   3.358  24.767  0.00  0.00    +0.037 A 
ATOM     32  C   UNL     1      -2.656   2.871  24.673  0.00  0.00    +0.006 A 
BRANCH  25  26
ATOM     26  O   UNL     1      -4.035   4.335  25.521  0.00  0.00    -0.404 OA
BRANCH  26  27
ATOM     27  C   UNL     1      -4.791   4.004  25.546  0.00  0.00    +0.575 C 
ATOM     28  F   UNL     1      -5.547   3.673  25.571  0.00  0.00    -0.133 F 
ATOM     29  F   UNL     1      -4.903   4.198  24.752  0.00  0.00    -0.133 F 
ATOM     30  F   UNL     1      -4.680   3.810  26.340  0.00  0.00    -0.133 F 
ENDBRANCH  26  27
ENDBRANCH  25  26
ENDBRANCH  19  22
ENDBRANCH   4  17
BRANCH   5   6
ATOM      6  C   UNL     1      -0.979  -0.298  25.112  0.00  0.00    +0.100 C 
BRANCH   6   7
ATOM      7  C   UNL     1      -1.502  -0.920  24.975  0.00  0.00    -0.006 A 
ATOM      8  C   UNL     1      -2.291  -0.763  24.790  0.00  0.00    -0.003 A 
ATOM      9  C   UNL     1      -2.814  -1.386  24.653  0.00  0.00    +0.006 A 
ATOM     10  C   UNL     1      -2.549  -2.165  24.700  0.00  0.00    +0.080 A 
ATOM     11  C   UNL     1      -1.760  -2.323  24.885  0.00  0.00    +0.006 A 
ATOM     12  C   UNL     1      -1.238  -1.700  25.022  0.00  0.00    -0.003 A 
BRANCH  10  13
ATOM     13  C   UNL     1      -3.073  -2.788  24.563  0.00  0.00    +0.388 C 
ATOM     14  O   UNL     1      -3.134  -3.117  23.808  0.00  0.00    -0.241 OA
ATOM     15  O   UNL     1      -3.536  -3.082  25.179  0.00  0.00    -0.241 OA
ENDBRANCH  10  13
ENDBRANCH   6   7
ENDBRANCH   5   6
TORSDOF 7
ENDMDL
MODEL 5
REMARK VINA RESULT:     -10.8      1.624      3.080
REMARK  Name = 
REMARK  7 active torsions:
REMARK  status: ('A' for Active; 'I' for Inactive)
REMARK    1  A    between atoms: C_4  and  C_17
REMARK    2  A    between atoms: N_5  and  C_6
REMARK    3  A    between atoms: C_6  and  C_7
REMARK    4  A    between atoms: C_10  and  C_13
REMARK    5  A    between atoms: C_19  and  C_22
REMARK    6  A    between atoms: C_25  and  O_26
REMARK    7  A    between atoms: O_26  and  C_27
REMARK                            x       y       z     vdW  Elec       q    Type
REMARK                         _______ _______ _______ _____ _____    ______ ____
ROOT
ATOM      1  O   UNL     1      -0.695   4.205  25.625  0.00  0.00    -0.222 OA
ATOM      2  C   UNL     1      -1.106   3.594  25.253  0.00  0.00    +0.170 C 
ATOM      3  C   UNL     1      -0.811   2.841  25.092  0.00  0.00    +0.060 C 
ATOM      4  C   UNL     1      -1.406   2.410  24.716  0.00  0.00    +0.140 C 
ATOM      5  N   UNL     1      -2.068   2.898  24.645  0.00  0.00    -0.260 NA
ATOM     16  C   UNL     1      -1.882   3.630  24.977  0.00  0.00    +0.106 C 
ENDROOT
BRANCH   4  17
ATOM     17  C   UNL     1      -1.350   1.629  24.457  0.00  0.00    +0.251 A 
ATOM     18  N   UNL     1      -1.717   0.976  24.802  0.00  0.00    -0.190 NA
ATOM     19  C   UNL     1      -1.510   0.307  24.365  0.00  0.00    +0.203 A 
ATOM     20  N   UNL     1      -1.014   0.546  23.751  0.00  0.00    -0.056 NA
ATOM     21  O   UNL     1      -0.915   1.364  23.808  0.00  0.00    -0.336 OA
BRANCH  19  22
ATOM     22  C   UNL     1      -1.755  -0.467  24.516  0.00  0.00    +0.039 A 
ATOM     23  C   UNL     1      -2.553  -0.627  24.650  0.00  0.00    +0.006 A 
ATOM     24  C   UNL     1      -2.798  -1.400  24.801  0.00  0.00    +0.037 A 
ATOM     25  C   UNL     1      -2.246  -2.013  24.818  0.00  0.00    +0.147 A 
ATOM     31  C   UNL     1      -1.448  -1.852  24.684  0.00  0.00    +0.037 A 
ATOM     32  C   UNL     1      -1.202  -1.079  24.533  0.00  0.00    +0.006 A 
BRANCH  25  26
ATOM     26  O   UNL     1      -2.491  -2.785  24.969  0.00  0.00    -0.404 OA
BRANCH  26  27
ATOM     27  C   UNL     1      -3.216  -3.051  24.681  0.00  0.00    +0.575 C 
ATOM     28  F   UNL     1      -3.943  -3.317  24.393  0.00  0.00    -0.133 F 
ATOM     29  F   UNL     1      -3.558  -2.924  25.422  0.00  0.00    -0.133 F 
ATOM     30  F   UNL     1      -2.877  -3.179  23.941  0.00  0.00    -0.133 F 
ENDBRANCH  26  27
ENDBRANCH  25  26
ENDBRANCH  19  22
ENDBRANCH   4  17
BRANCH   5   6
ATOM      6  C   UNL     1      -2.789   2.690  24.302  0.00  0.00    +0.100 C 
BRANCH   6   7
ATOM      7  C   UNL     1      -3.495   2.965  24.628  0.00  0.00    -0.006 A 
ATOM      8  C   UNL     1      -3.848   2.556  25.252  0.00  0.00    -0.003 A 
ATOM      9  C   UNL     1      -4.555   2.831  25.577  0.00  0.00    +0.006 A 
ATOM     10  C   UNL     1      -4.907   3.515  25.280  0.00  0.00    +0.080 A 
ATOM     11  C   UNL     1      -4.554   3.924  24.656  0.00  0.00    +0.006 A 
ATOM     12  C   UNL     1      -3.848   3.649  24.331  0.00  0.00    -0.003 A 
BRANCH  10  13
ATOM     13  C   UNL     1      -5.614   3.790  25.606  0.00  0.00    +0.388 C 
ATOM     14  O   UNL     1      -6.158   3.255  25.919  0.00  0.00    -0.241 OA
ATOM     15  O   UNL     1      -5.776   4.598  25.619  0.00  0.00    -0.241 OA
ENDBRANCH  10  13
ENDBRANCH   6   7
ENDBRANCH   5   6
TORSDOF 7
ENDMDL
MODEL 6
REMARK VINA RESULT:     -10.7      2.870      5.213
REMARK  Name = 
REMARK  7 active torsions:
REMARK  status: ('A' for Active; 'I' for Inactive)
REMARK    1  A    between atoms: C_4  and  C_17
REMARK    2  A    between atoms: N_5  and  C_6
REMARK    3  A    between atoms: C_6  and  C_7
REMARK    4  A    between atoms: C_10  and  C_13
REMARK    5  A    between atoms: C_19  and  C_22
REMARK    6  A    between atoms: C_25  and  O_26
REMARK    7  A    between atoms: O_26  and  C_27
REMARK                            x       y       z     vdW  Elec       q    Type
REMARK                         _______ _______ _______ _____ _____    ______ ____
ROOT
ATOM      1  O   UNL     1       0.882   2.649  26.455  0.00  0.00    -0.222 OA
ATOM      2  C   UNL     1       0.229   2.497  25.974  0.00  0.00    +0.170 C 
ATOM      3  C   UNL     1      -0.433   2.983  25.888  0.00  0.00    +0.060 C 
ATOM      4  C   UNL     1      -0.947   2.619  25.355  0.00  0.00    +0.140 C 
ATOM      5  N   UNL     1      -0.603   1.909  25.113  0.00  0.00    -0.260 NA
ATOM     16  C   UNL     1       0.124   1.835  25.495  0.00  0.00    +0.106 C 
ENDROOT
BRANCH   4  17
ATOM     17  C   UNL     1      -1.677   2.913  25.109  0.00  0.00    +0.251 A 
ATOM     18  N   UNL     1      -2.417   2.652  25.365  0.00  0.00    -0.190 NA
ATOM     19  C   UNL     1      -2.993   3.098  24.977  0.00  0.00    +0.203 A 
ATOM     20  N   UNL     1      -2.610   3.634  24.482  0.00  0.00    -0.056 NA
ATOM     21  O   UNL     1      -1.796   3.520  24.563  0.00  0.00    -0.336 OA
BRANCH  19  22
ATOM     22  C   UNL     1      -3.810   3.022  25.069  0.00  0.00    +0.039 A 
ATOM     23  C   UNL     1      -4.223   2.459  24.630  0.00  0.00    +0.006 A 
ATOM     24  C   UNL     1      -5.039   2.382  24.723  0.00  0.00    +0.037 A 
ATOM     25  C   UNL     1      -5.442   2.868  25.254  0.00  0.00    +0.147 A 
ATOM     31  C   UNL     1      -5.028   3.431  25.693  0.00  0.00    +0.037 A 
ATOM     32  C   UNL     1      -4.212   3.508  25.601  0.00  0.00    +0.006 A 
BRANCH  25  26
ATOM     26  O   UNL     1      -6.257   2.791  25.346  0.00  0.00    -0.404 OA
BRANCH  26  27
ATOM     27  C   UNL     1      -6.574   2.093  25.649  0.00  0.00    +0.575 C 
ATOM     28  F   UNL     1      -6.891   1.393  25.953  0.00  0.00    -0.133 F 
ATOM     29  F   UNL     1      -6.383   2.337  26.414  0.00  0.00    -0.133 F 
ATOM     30  F   UNL     1      -6.766   1.847  24.886  0.00  0.00    -0.133 F 
ENDBRANCH  26  27
ENDBRANCH  25  26
ENDBRANCH  19  22
ENDBRANCH   4  17
BRANCH   5   6
ATOM      6  C   UNL     1      -0.928   1.370  24.581  0.00  0.00    +0.100 C 
BRANCH   6   7
ATOM      7  C   UNL     1      -0.843   0.560  24.711  0.00  0.00    -0.006 A 
ATOM      8  C   UNL     1      -1.278   0.190  25.307  0.00  0.00    -0.003 A 
ATOM      9  C   UNL     1      -1.191  -0.621  25.436  0.00  0.00    +0.006 A 
ATOM     10  C   UNL     1      -0.672  -1.061  24.970  0.00  0.00    +0.080 A 
ATOM     11  C   UNL     1      -0.238  -0.690  24.374  0.00  0.00    +0.006 A 
ATOM     12  C   UNL     1      -0.324   0.120  24.245  0.00  0.00    -0.003 A 
BRANCH  10  13
ATOM     13  C   UNL     1      -0.587  -1.871  25.100  0.00  0.00    +0.388 C 
ATOM     14  O   UNL     1      -1.164  -2.395  24.829  0.00  0.00    -0.241 OA
ATOM     15  O   UNL     1       0.074  -2.158  25.502  0.00  0.00    -0.241 OA
ENDBRANCH  10  13
ENDBRANCH   6   7
ENDBRANCH   5   6
TORSDOF 7
ENDMDL
