MODEL 1
REMARK VINA RESULT:     -10.4      0.000      0.000
REMARK  Name = 
REMARK  3 active torsions:
REMARK  status: ('A' for Active; 'I' for Inactive)
REMARK    1  A    between atoms: C_2  and  C_26
REMARK    2  A    between atoms: N_3  and  C_4
REMARK    3  A    between atoms: C_16  and  C_21
REMARK                            x       y       z     vdW  Elec       q    Type
REMARK                         _______ _______ _______ _____ _____    ______ ____
ROOT
ATOM      4  C   UNL     1      -2.605  -0.294  24.294  0.00  0.00    +0.100 C 
ATOM      5  C   UNL     1      -3.036   0.297  23.912  0.00  0.00    +0.043 C 
ATOM      6  C   UNL     1      -2.843   1.090  24.027  0.00  0.00    +0.096 C 
ATOM      7  N   UNL     1      -2.217   1.293  24.526  0.00  0.00    -0.269 N 
ATOM      8  C   UNL     1      -1.786   0.703  24.908  0.00  0.00    +0.156 C 
ATOM      9  C   UNL     1      -1.980  -0.090  24.792  0.00  0.00    +0.051 C 
ATOM     10  C   UNL     1      -1.147   0.786  25.424  0.00  0.00    +0.264 C 
ATOM     11  O   UNL     1      -0.832   0.083  25.717  0.00  0.00    -0.271 OA
ATOM     12  N   UNL     1      -0.782   1.478  25.684  0.00  0.00    -0.178 NA
ATOM     13  C   UNL     1      -0.966   2.259  25.493  0.00  0.00    +0.078 A 
ATOM     14  C   UNL     1      -0.462   2.790  25.876  0.00  0.00    +0.017 A 
ATOM     15  C   UNL     1      -0.552   3.601  25.759  0.00  0.00    +0.004 A 
ATOM     16  C   UNL     1      -1.146   3.883  25.261  0.00  0.00    +0.035 A 
ATOM     17  C   UNL     1      -1.650   3.353  24.878  0.00  0.00    +0.009 A 
ATOM     18  C   UNL     1      -1.559   2.542  24.995  0.00  0.00    +0.069 A 
ATOM     19  C   UNL     1      -2.117   2.111  24.564  0.00  0.00    +0.251 C 
ATOM     20  O   UNL     1      -2.643   2.558  24.113  0.00  0.00    -0.270 OA
ENDROOT
BRANCH  16  21
ATOM     21  C   UNL     1      -1.236   4.695  25.145  0.00  0.00    +0.145 A 
ATOM     22  C   UNL     1      -0.726   5.184  24.720  0.00  0.00    +0.041 A 
ATOM     23  C   UNL     1      -1.027   5.952  24.746  0.00  0.00    +0.044 A 
ATOM     24  C   UNL     1      -1.723   5.937  25.188  0.00  0.00    +0.180 A 
ATOM     25  O   UNL     1      -1.852   5.160  25.435  0.00  0.00    -0.450 OA
ENDBRANCH  16  21
BRANCH   4   3
ATOM      1  O   UNL     1      -4.026  -0.890  24.882  0.00  0.00    -0.268 OA
ATOM      2  C   UNL     1      -3.510  -1.385  24.472  0.00  0.00    +0.271 C 
ATOM      3  N   UNL     1      -2.799  -1.087  24.178  0.00  0.00    -0.203 NA
BRANCH   2  26
ATOM     26  C   UNL     1      -3.703  -2.178  24.356  0.00  0.00    +0.084 A 
ATOM     27  C   UNL     1      -4.268  -2.467  23.829  0.00  0.00    +0.012 A 
ATOM     28  C   UNL     1      -4.280  -3.290  23.894  0.00  0.00    +0.008 A 
ATOM     29  C   UNL     1      -3.722  -3.510  24.461  0.00  0.00    +0.036 A 
ATOM     30  S   UNL     1      -3.366  -2.822  24.747  0.00  0.00    -0.082 S 
ENDBRANCH   2  26
ENDBRANCH   4   3
TORSDOF 3
ENDMDL
MODEL 2
REMARK VINA RESULT:     -10.2      1.854      6.007
REMARK  Name = 
REMARK  3 active torsions:
REMARK  status: ('A' for Active; 'I' for Inactive)
REMARK    1  A    between atoms: C_2  and  C_26
REMARK    2  A    between atoms: N_3  and  C_4
REMARK    3  A    between atoms: C_16  and  C_21
REMARK                            x       y       z     vdW  Elec       q    Type
REMARK                         _______ _______ _______ _____ _____    ______ ____
ROOT
ATOM      4  C   UNL     1      -1.998   2.670  24.357  0.00  0.00    +0.100 C 
ATOM      5  C   UNL     1      -1.433   2.079  24.461  0.00  0.00    +0.043 C 
ATOM      6  C   UNL     1      -1.663   1.287  24.491  0.00  0.00    +0.096 C 
ATOM      7  N   UNL     1      -2.461   1.087  24.418  0.00  0.00    -0.269 N 
ATOM      8  C   UNL     1      -3.026   1.678  24.314  0.00  0.00    +0.156 C 
ATOM      9  C   UNL     1      -2.795   2.469  24.284  0.00  0.00    +0.051 C 
ATOM     10  C   UNL     1      -3.843   1.599  24.231  0.00  0.00    +0.264 C 
ATOM     11  O   UNL     1      -4.263   2.302  24.135  0.00  0.00    -0.271 OA
ATOM     12  N   UNL     1      -4.296   0.909  24.230  0.00  0.00    -0.178 NA
ATOM     13  C   UNL     1      -4.043   0.128  24.313  0.00  0.00    +0.078 A 
ATOM     14  C   UNL     1      -4.678  -0.399  24.281  0.00  0.00    +0.017 A 
ATOM     15  C   UNL     1      -4.544  -1.209  24.353  0.00  0.00    +0.004 A 
ATOM     16  C   UNL     1      -3.777  -1.494  24.457  0.00  0.00    +0.035 A 
ATOM     17  C   UNL     1      -3.142  -0.967  24.489  0.00  0.00    +0.009 A 
ATOM     18  C   UNL     1      -3.276  -0.156  24.417  0.00  0.00    +0.069 A 
ATOM     19  C   UNL     1      -2.571   0.271  24.464  0.00  0.00    +0.251 C 
ATOM     20  O   UNL     1      -1.888  -0.178  24.571  0.00  0.00    -0.270 OA
ENDROOT
BRANCH  16  21
ATOM     21  C   UNL     1      -3.644  -2.305  24.529  0.00  0.00    +0.145 A 
ATOM     22  C   UNL     1      -3.733  -2.866  23.931  0.00  0.00    +0.041 A 
ATOM     23  C   UNL     1      -3.542  -3.606  24.245  0.00  0.00    +0.044 A 
ATOM     24  C   UNL     1      -3.336  -3.501  25.036  0.00  0.00    +0.180 A 
ATOM     25  O   UNL     1      -3.398  -2.697  25.212  0.00  0.00    -0.450 OA
ENDBRANCH  16  21
BRANCH   4   3
ATOM      1  O   UNL     1      -1.625   3.475  25.747  0.00  0.00    -0.268 OA
ATOM      2  C   UNL     1      -1.581   3.864  25.021  0.00  0.00    +0.271 C 
ATOM      3  N   UNL     1      -1.767   3.461  24.326  0.00  0.00    -0.203 NA
BRANCH   2  26
ATOM     26  C   UNL     1      -1.350   4.655  24.991  0.00  0.00    +0.084 A 
ATOM     27  C   UNL     1      -0.603   4.934  24.780  0.00  0.00    +0.012 A 
ATOM     28  C   UNL     1      -0.616   5.758  24.824  0.00  0.00    +0.008 A 
ATOM     29  C   UNL     1      -1.373   5.988  25.063  0.00  0.00    +0.036 A 
ATOM     30  S   UNL     1      -1.825   5.306  25.165  0.00  0.00    -0.082 S 
ENDBRANCH   2  26
ENDBRANCH   4   3
TORSDOF 3
ENDMDL
MODEL 3
REMARK VINA RESULT:      -9.7      2.861      4.434
REMARK  Name = 
REMARK  3 active torsions:
REMARK  status: ('A' for Active; 'I' for Inactive)
REMARK    1  A    between atoms: C_2  and  C_26
REMARK    2  A    between atoms: N_3  and  C_4
REMARK    3  A    between atoms: C_16  and  C_21
REMARK                            x       y       z     vdW  Elec       q    Type
REMARK                         _______ _______ _______ _____ _____    ______ ____
ROOT
ATOM      4  C   UNL     1      -0.037   1.083  24.023  0.00  0.00    +0.100 C 
ATOM      5  C   UNL     1      -0.564   0.461  24.147  0.00  0.00    +0.043 C 
ATOM      6  C   UNL     1      -1.354   0.617  24.323  0.00  0.00    +0.096 C 
ATOM      7  N   UNL     1      -1.618   1.398  24.375  0.00  0.00    -0.269 N 
ATOM      8  C   UNL     1      -1.090   2.020  24.250  0.00  0.00    +0.156 C 
ATOM      9  C   UNL     1      -0.300   1.863  24.074  0.00  0.00    +0.051 C 
ATOM     10  C   UNL     1      -1.238   2.832  24.275  0.00  0.00    +0.264 C 
ATOM     11  O   UNL     1      -0.589   3.318  24.125  0.00  0.00    -0.271 OA
ATOM     12  N   UNL     1      -1.949   3.221  24.431  0.00  0.00    -0.178 NA
ATOM     13  C   UNL     1      -2.687   2.895  24.600  0.00  0.00    +0.078 A 
ATOM     14  C   UNL     1      -3.255   3.482  24.722  0.00  0.00    +0.017 A 
ATOM     15  C   UNL     1      -4.032   3.272  24.899  0.00  0.00    +0.004 A 
ATOM     16  C   UNL     1      -4.244   2.477  24.954  0.00  0.00    +0.035 A 
ATOM     17  C   UNL     1      -3.676   1.890  24.833  0.00  0.00    +0.009 A 
ATOM     18  C   UNL     1      -2.898   2.100  24.656  0.00  0.00    +0.069 A 
ATOM     19  C   UNL     1      -2.422   1.433  24.555  0.00  0.00    +0.251 C 
ATOM     20  O   UNL     1      -2.800   0.706  24.647  0.00  0.00    -0.270 OA
ENDROOT
BRANCH  16  21
ATOM     21  C   UNL     1      -5.022   2.268  25.131  0.00  0.00    +0.145 A 
ATOM     22  C   UNL     1      -5.430   2.456  25.823  0.00  0.00    +0.041 A 
ATOM     23  C   UNL     1      -6.189   2.138  25.766  0.00  0.00    +0.044 A 
ATOM     24  C   UNL     1      -6.250   1.753  25.040  0.00  0.00    +0.180 A 
ATOM     25  O   UNL     1      -5.529   1.833  24.647  0.00  0.00    -0.450 OA
ENDBRANCH  16  21
BRANCH   4   3
ATOM      1  O   UNL     1       0.360   0.342  22.603  0.00  0.00    -0.268 OA
ATOM      2  C   UNL     1       0.952   0.555  23.137  0.00  0.00    +0.271 C 
ATOM      3  N   UNL     1       0.754   0.925  23.847  0.00  0.00    -0.203 NA
BRANCH   2  26
ATOM     26  C   UNL     1       1.742   0.397  22.961  0.00  0.00    +0.084 A 
ATOM     27  C   UNL     1       2.389   0.863  23.175  0.00  0.00    +0.012 A 
ATOM     28  C   UNL     1       3.072   0.499  22.886  0.00  0.00    +0.008 A 
ATOM     29  C   UNL     1       2.847  -0.191  22.493  0.00  0.00    +0.036 A 
ATOM     30  S   UNL     1       2.025  -0.254  22.539  0.00  0.00    -0.082 S 
ENDBRANCH   2  26
ENDBRANCH   4   3
TORSDOF 3
ENDMDL
MODEL 4
REMARK VINA RESULT:      -9.5      2.905      4.523
REMARK  Name = 
REMARK  3 active torsions:
REMARK  status: ('A' for Active; 'I' for Inactive)
REMARK    1  A    between atoms: C_2  and  C_26
REMARK    2  A    between atoms: N_3  and  C_4
REMARK    3  A    between atoms: C_16  and  C_21
REMARK                            x       y       z     vdW  Elec       q    Type
REMARK                         _______ _______ _______ _____ _____    ______ ____
ROOT
ATOM      4  C   UNL     1      -2.664   2.156  24.977  0.00  0.00    +0.100 C 
ATOM      5  C   UNL     1      -2.117   2.685  24.659  0.00  0.00    +0.043 C 
ATOM      6  C   UNL     1      -1.415   2.405  24.329  0.00  0.00    +0.096 C 
ATOM      7  N   UNL     1      -1.260   1.594  24.318  0.00  0.00    -0.269 N 
ATOM      8  C   UNL     1      -1.807   1.065  24.637  0.00  0.00    +0.156 C 
ATOM      9  C   UNL     1      -2.508   1.346  24.966  0.00  0.00    +0.051 C 
ATOM     10  C   UNL     1      -1.760   0.242  24.681  0.00  0.00    +0.264 C 
ATOM     11  O   UNL     1      -2.403  -0.133  25.036  0.00  0.00    -0.271 OA
ATOM     12  N   UNL     1      -1.155  -0.254  24.419  0.00  0.00    -0.178 NA
ATOM     13  C   UNL     1      -0.448  -0.050  24.047  0.00  0.00    +0.078 A 
ATOM     14  C   UNL     1       0.005  -0.718  23.874  0.00  0.00    +0.017 A 
ATOM     15  C   UNL     1       0.735  -0.635  23.500  0.00  0.00    +0.004 A 
ATOM     16  C   UNL     1       1.013   0.115  23.298  0.00  0.00    +0.035 A 
ATOM     17  C   UNL     1       0.560   0.783  23.471  0.00  0.00    +0.009 A 
ATOM     18  C   UNL     1      -0.170   0.700  23.845  0.00  0.00    +0.069 A 
ATOM     19  C   UNL     1      -0.532   1.432  23.966  0.00  0.00    +0.251 C 
ATOM     20  O   UNL     1      -0.109   2.088  23.699  0.00  0.00    -0.270 OA
ENDROOT
BRANCH  16  21
ATOM     21  C   UNL     1       1.744   0.197  22.924  0.00  0.00    +0.145 A 
ATOM     22  C   UNL     1       1.960  -0.138  22.203  0.00  0.00    +0.041 A 
ATOM     23  C   UNL     1       2.737   0.087  22.039  0.00  0.00    +0.044 A 
ATOM     24  C   UNL     1       3.001   0.561  22.660  0.00  0.00    +0.180 A 
ATOM     25  O   UNL     1       2.387   0.629  23.207  0.00  0.00    -0.450 OA
ENDBRANCH  16  21
BRANCH   4   3
ATOM      1  O   UNL     1      -3.907   2.622  23.998  0.00  0.00    -0.268 OA
ATOM      2  C   UNL     1      -3.988   2.670  24.817  0.00  0.00    +0.271 C 
ATOM      3  N   UNL     1      -3.366   2.437  25.307  0.00  0.00    -0.203 NA
BRANCH   2  26
ATOM     26  C   UNL     1      -4.690   2.951  25.147  0.00  0.00    +0.084 A 
ATOM     27  C   UNL     1      -4.856   3.736  25.336  0.00  0.00    +0.012 A 
ATOM     28  C   UNL     1      -5.618   3.766  25.651  0.00  0.00    +0.008 A 
ATOM     29  C   UNL     1      -5.923   2.999  25.657  0.00  0.00    +0.036 A 
ATOM     30  S   UNL     1      -5.349   2.495  25.345  0.00  0.00    -0.082 S 
ENDBRANCH   2  26
ENDBRANCH   4   3
TORSDOF 3
ENDMDL
MODEL 5
REMARK VINA RESULT:      -8.5     14.352     16.712
REMARK  Name = 
REMARK  3 active torsions:
REMARK  status: ('A' for Active; 'I' for Inactive)
REMARK    1  A    between atoms: C_2  and  C_26
REMARK    2  A    between atoms: N_3  and  C_4
REMARK    3  A    between atoms: C_16  and  C_21
REMARK                            x       y       z     vdW  Elec       q    Type
REMARK                         _______ _______ _______ _____ _____    ______ ____
ROOT
ATOM      4  C   UNL     1      -5.218 -10.652  15.171  0.00  0.00    +0.100 C 
ATOM      5  C   UNL     1      -5.825 -10.506  14.632  0.00  0.00    +0.043 C 
ATOM      6  C   UNL     1      -5.649 -10.378  13.836  0.00  0.00    +0.096 C 
ATOM      7  N   UNL     1      -4.864 -10.395  13.580  0.00  0.00    -0.269 N 
ATOM      8  C   UNL     1      -4.257 -10.540  14.119  0.00  0.00    +0.156 C 
ATOM      9  C   UNL     1      -4.434 -10.669  14.914  0.00  0.00    +0.051 C 
ATOM     10  C   UNL     1      -3.445 -10.580  13.980  0.00  0.00    +0.264 C 
ATOM     11  O   UNL     1      -2.976 -10.737  14.640  0.00  0.00    -0.271 OA
ATOM     12  N   UNL     1      -3.040 -10.485  13.267  0.00  0.00    -0.178 NA
ATOM     13  C   UNL     1      -3.346 -10.326  12.519  0.00  0.00    +0.078 A 
ATOM     14  C   UNL     1      -2.748 -10.273  11.952  0.00  0.00    +0.017 A 
ATOM     15  C   UNL     1      -2.938 -10.117  11.166  0.00  0.00    +0.004 A 
ATOM     16  C   UNL     1      -3.725 -10.014  10.943  0.00  0.00    +0.035 A 
ATOM     17  C   UNL     1      -4.324 -10.067  11.509  0.00  0.00    +0.009 A 
ATOM     18  C   UNL     1      -4.134 -10.223  12.296  0.00  0.00    +0.069 A 
ATOM     19  C   UNL     1      -4.810 -10.254  12.769  0.00  0.00    +0.251 C 
ATOM     20  O   UNL     1      -5.525 -10.126  12.379  0.00  0.00    -0.270 OA
ENDROOT
BRANCH  16  21
ATOM     21  C   UNL     1      -3.914  -9.857  10.155  0.00  0.00    +0.145 A 
ATOM     22  C   UNL     1      -3.857  -9.126   9.779  0.00  0.00    +0.041 A 
ATOM     23  C   UNL     1      -4.102  -9.222   8.996  0.00  0.00    +0.044 A 
ATOM     24  C   UNL     1      -4.310 -10.012   8.890  0.00  0.00    +0.180 A 
ATOM     25  O   UNL     1      -4.194 -10.406   9.607  0.00  0.00    -0.450 OA
ENDBRANCH  16  21
BRANCH   4   3
ATOM      1  O   UNL     1      -5.627  -9.382  16.140  0.00  0.00    -0.268 OA
ATOM      2  C   UNL     1      -5.599 -10.145  16.451  0.00  0.00    +0.271 C 
ATOM      3  N   UNL     1      -5.394 -10.780  15.966  0.00  0.00    -0.203 NA
BRANCH   2  26
ATOM     26  C   UNL     1      -5.776 -10.274  17.247  0.00  0.00    +0.084 A 
ATOM     27  C   UNL     1      -5.237 -10.487  17.834  0.00  0.00    +0.012 A 
ATOM     28  C   UNL     1      -5.651 -10.556  18.546  0.00  0.00    +0.008 A 
ATOM     29  C   UNL     1      -6.445 -10.386  18.397  0.00  0.00    +0.036 A 
ATOM     30  S   UNL     1      -6.522 -10.212  17.594  0.00  0.00    -0.082 S 
ENDBRANCH   2  26
ENDBRANCH   4   3
TORSDOF 3
ENDMDL
MODEL 6
REMARK VINA RESULT:      -7.8     14.345     14.962
REMARK  Name = 
REMARK  3 active torsions:
REMARK  status: ('A' for Active; 'I' for Inactive)
REMARK    1  A    between atoms: C_2  and  C_26
REMARK    2  A    between atoms: N_3  and  C_4
REMARK    3  A    between atoms: C_16  and  C_21
REMARK                            x       y       z     vdW  Elec       q    Type
REMARK                         _______ _______ _______ _____ _____    ______ ____
ROOT
ATOM      4  C   UNL     1      -7.538 -10.042  16.759  0.00  0.00    +0.100 C 
ATOM      5  C   UNL     1      -7.286  -9.963  15.977  0.00  0.00    +0.043 C 
ATOM      6  C   UNL     1      -6.489 -10.056  15.788  0.00  0.00    +0.096 C 
ATOM      7  N   UNL     1      -5.942 -10.228  16.383  0.00  0.00    -0.269 N 
ATOM      8  C   UNL     1      -6.194 -10.307  17.164  0.00  0.00    +0.156 C 
ATOM      9  C   UNL     1      -6.992 -10.214  17.352  0.00  0.00    +0.051 C 
ATOM     10  C   UNL     1      -5.744 -10.476  17.835  0.00  0.00    +0.264 C 
ATOM     11  O   UNL     1      -6.162 -10.519  18.544  0.00  0.00    -0.271 OA
ATOM     12  N   UNL     1      -4.931 -10.608  17.889  0.00  0.00    -0.178 NA
ATOM     13  C   UNL     1      -4.368 -10.602  17.287  0.00  0.00    +0.078 A 
ATOM     14  C   UNL     1      -3.612 -10.761  17.578  0.00  0.00    +0.017 A 
ATOM     15  C   UNL     1      -2.968 -10.781  17.065  0.00  0.00    +0.004 A 
ATOM     16  C   UNL     1      -3.077 -10.644  16.259  0.00  0.00    +0.035 A 
ATOM     17  C   UNL     1      -3.833 -10.485  15.966  0.00  0.00    +0.009 A 
ATOM     18  C   UNL     1      -4.477 -10.465  16.481  0.00  0.00    +0.069 A 
ATOM     19  C   UNL     1      -5.179 -10.298  16.079  0.00  0.00    +0.251 C 
ATOM     20  O   UNL     1      -5.106 -10.186  15.264  0.00  0.00    -0.270 OA
ENDROOT
BRANCH  16  21
ATOM     21  C   UNL     1      -2.432 -10.664  15.745  0.00  0.00    +0.145 A 
ATOM     22  C   UNL     1      -1.638 -10.619  15.962  0.00  0.00    +0.041 A 
ATOM     23  C   UNL     1      -1.183 -10.660  15.274  0.00  0.00    +0.044 A 
ATOM     24  C   UNL     1      -1.696 -10.732  14.633  0.00  0.00    +0.180 A 
ATOM     25  O   UNL     1      -2.469 -10.734  14.924  0.00  0.00    -0.450 OA
ENDBRANCH  16  21
BRANCH   4   3
ATOM      1  O   UNL     1      -8.138  -8.542  17.091  0.00  0.00    -0.268 OA
ATOM      2  C   UNL     1      -8.636  -9.199  17.113  0.00  0.00    +0.271 C 
ATOM      3  N   UNL     1      -8.336  -9.950  16.946  0.00  0.00    -0.203 NA
BRANCH   2  26
ATOM     26  C   UNL     1      -9.434  -9.107  17.301  0.00  0.00    +0.084 A 
ATOM     27  C   UNL     1      -9.876  -8.416  17.211  0.00  0.00    +0.012 A 
ATOM     28  C   UNL     1     -10.646  -8.571  17.466  0.00  0.00    +0.008 A 
ATOM     29  C   UNL     1     -10.679  -9.358  17.714  0.00  0.00    +0.036 A 
ATOM     30  S   UNL     1      -9.930  -9.689  17.612  0.00  0.00    -0.082 S 
ENDBRANCH   2  26
ENDBRANCH   4   3
TORSDOF 3
ENDMDL
MODEL 7
REMARK VINA RESULT:      -7.8     14.443     16.381
REMARK  Name = 
REMARK  3 active torsions:
REMARK  status: ('A' for Active; 'I' for Inactive)
REMARK    1  A    between atoms: C_2  and  C_26
REMARK    2  A    between atoms: N_3  and  C_4
REMARK    3  A    between atoms: C_16  and  C_21
REMARK                            x       y       z     vdW  Elec       q    Type
REMARK                         _______ _______ _______ _____ _____    ______ ____
ROOT
ATOM      4  C   UNL     1      -4.721 -10.315  12.626  0.00  0.00    +0.100 C 
ATOM      5  C   UNL     1      -5.498 -10.202  12.880  0.00  0.00    +0.043 C 
ATOM      6  C   UNL     1      -5.679 -10.236  13.684  0.00  0.00    +0.096 C 
ATOM      7  N   UNL     1      -5.081 -10.383  14.235  0.00  0.00    -0.269 N 
ATOM      8  C   UNL     1      -4.305 -10.496  13.981  0.00  0.00    +0.156 C 
ATOM      9  C   UNL     1      -4.124 -10.461  13.177  0.00  0.00    +0.051 C 
ATOM     10  C   UNL     1      -3.632 -10.647  14.435  0.00  0.00    +0.264 C 
ATOM     11  O   UNL     1      -2.929 -10.734  14.013  0.00  0.00    -0.271 OA
ATOM     12  N   UNL     1      -3.571 -10.724  15.254  0.00  0.00    -0.178 NA
ATOM     13  C   UNL     1      -4.167 -10.668  15.821  0.00  0.00    +0.078 A 
ATOM     14  C   UNL     1      -3.869 -10.781  16.583  0.00  0.00    +0.017 A 
ATOM     15  C   UNL     1      -4.376 -10.747  17.233  0.00  0.00    +0.004 A 
ATOM     16  C   UNL     1      -5.179 -10.600  17.122  0.00  0.00    +0.035 A 
ATOM     17  C   UNL     1      -5.478 -10.487  16.361  0.00  0.00    +0.009 A 
ATOM     18  C   UNL     1      -4.971 -10.522  15.711  0.00  0.00    +0.069 A 
ATOM     19  C   UNL     1      -5.378 -10.395  15.004  0.00  0.00    +0.251 C 
ATOM     20  O   UNL     1      -6.189 -10.262  15.077  0.00  0.00    -0.270 OA
ENDROOT
BRANCH  16  21
ATOM     21  C   UNL     1      -5.686 -10.566  17.773  0.00  0.00    +0.145 A 
ATOM     22  C   UNL     1      -5.470 -10.379  18.546  0.00  0.00    +0.041 A 
ATOM     23  C   UNL     1      -6.149 -10.411  19.015  0.00  0.00    +0.044 A 
ATOM     24  C   UNL     1      -6.783 -10.617  18.531  0.00  0.00    +0.180 A 
ATOM     25  O   UNL     1      -6.497 -10.713  17.763  0.00  0.00    -0.450 OA
ENDBRANCH  16  21
BRANCH   4   3
ATOM      1  O   UNL     1      -5.101  -8.968  11.752  0.00  0.00    -0.268 OA
ATOM      2  C   UNL     1      -4.731  -9.607  11.384  0.00  0.00    +0.271 C 
ATOM      3  N   UNL     1      -4.541 -10.280  11.822  0.00  0.00    -0.203 NA
BRANCH   2  26
ATOM     26  C   UNL     1      -4.551  -9.573  10.580  0.00  0.00    +0.084 A 
ATOM     27  C   UNL     1      -3.952  -9.122  10.237  0.00  0.00    +0.012 A 
ATOM     28  C   UNL     1      -3.968  -9.254   9.422  0.00  0.00    +0.008 A 
ATOM     29  C   UNL     1      -4.578  -9.787   9.262  0.00  0.00    +0.036 A 
ATOM     30  S   UNL     1      -4.938  -9.984   9.978  0.00  0.00    -0.082 S 
ENDBRANCH   2  26
ENDBRANCH   4   3
TORSDOF 3
ENDMDL
MODEL 8
REMARK VINA RESULT:      -7.3     14.821     15.739
REMARK  Name = 
REMARK  3 active torsions:
REMARK  status: ('A' for Active; 'I' for Inactive)
REMARK    1  A    between atoms: C_2  and  C_26
REMARK    2  A    between atoms: N_3  and  C_4
REMARK    3  A    between atoms: C_16  and  C_21
REMARK                            x       y       z     vdW  Elec       q    Type
REMARK                         _______ _______ _______ _____ _____    ______ ____
ROOT
ATOM      4  C   UNL     1      -6.191 -10.668  16.327  0.00  0.00    +0.100 C 
ATOM      5  C   UNL     1      -6.389 -10.596  15.529  0.00  0.00    +0.043 C 
ATOM      6  C   UNL     1      -5.797 -10.559  14.957  0.00  0.00    +0.096 C 
ATOM      7  N   UNL     1      -5.003 -10.593  15.183  0.00  0.00    -0.269 N 
ATOM      8  C   UNL     1      -4.804 -10.664  15.981  0.00  0.00    +0.156 C 
ATOM      9  C   UNL     1      -5.398 -10.701  16.552  0.00  0.00    +0.051 C 
ATOM     10  C   UNL     1      -4.054 -10.707  16.321  0.00  0.00    +0.264 C 
ATOM     11  O   UNL     1      -4.038 -10.777  17.143  0.00  0.00    -0.271 OA
ATOM     12  N   UNL     1      -3.318 -10.689  15.949  0.00  0.00    -0.178 NA
ATOM     13  C   UNL     1      -3.150 -10.624  15.144  0.00  0.00    +0.078 A 
ATOM     14  C   UNL     1      -2.337 -10.627  15.004  0.00  0.00    +0.017 A 
ATOM     15  C   UNL     1      -2.051 -10.567  14.233  0.00  0.00    +0.004 A 
ATOM     16  C   UNL     1      -2.577 -10.504  13.601  0.00  0.00    +0.035 A 
ATOM     17  C   UNL     1      -3.391 -10.500  13.740  0.00  0.00    +0.009 A 
ATOM     18  C   UNL     1      -3.676 -10.561  14.512  0.00  0.00    +0.069 A 
ATOM     19  C   UNL     1      -4.502 -10.547  14.530  0.00  0.00    +0.251 C 
ATOM     20  O   UNL     1      -4.874 -10.478  13.797  0.00  0.00    -0.270 OA
ENDROOT
BRANCH  16  21
ATOM     21  C   UNL     1      -2.291 -10.444  12.830  0.00  0.00    +0.145 A 
ATOM     22  C   UNL     1      -1.613 -10.037  12.594  0.00  0.00    +0.041 A 
ATOM     23  C   UNL     1      -1.536 -10.122  11.777  0.00  0.00    +0.044 A 
ATOM     24  C   UNL     1      -2.165 -10.581  11.508  0.00  0.00    +0.180 A 
ATOM     25  O   UNL     1      -2.633 -10.780  12.159  0.00  0.00    -0.450 OA
ENDBRANCH  16  21
BRANCH   4   3
ATOM      1  O   UNL     1      -7.099  -9.332  16.661  0.00  0.00    -0.268 OA
ATOM      2  C   UNL     1      -7.238 -10.037  17.066  0.00  0.00    +0.271 C 
ATOM      3  N   UNL     1      -6.784 -10.705  16.898  0.00  0.00    -0.203 NA
BRANCH   2  26
ATOM     26  C   UNL     1      -7.832 -10.075  17.637  0.00  0.00    +0.084 A 
ATOM     27  C   UNL     1      -8.567  -9.701  17.598  0.00  0.00    +0.012 A 
ATOM     28  C   UNL     1      -8.984  -9.888  18.286  0.00  0.00    +0.008 A 
ATOM     29  C   UNL     1      -8.507 -10.377  18.749  0.00  0.00    +0.036 A 
ATOM     30  S   UNL     1      -7.795 -10.492  18.348  0.00  0.00    -0.082 S 
ENDBRANCH   2  26
ENDBRANCH   4   3
TORSDOF 3
ENDMDL
MODEL 9
REMARK VINA RESULT:      -6.6      3.490      5.471
REMARK  Name = 
REMARK  3 active torsions:
REMARK  status: ('A' for Active; 'I' for Inactive)
REMARK    1  A    between atoms: C_2  and  C_26
REMARK    2  A    between atoms: N_3  and  C_4
REMARK    3  A    between atoms: C_16  and  C_21
REMARK                            x       y       z     vdW  Elec       q    Type
REMARK                         _______ _______ _______ _____ _____    ______ ____
ROOT
ATOM      4  C   UNL     1       1.635   0.690  23.351  0.00  0.00    +0.100 C 
ATOM      5  C   UNL     1       1.253   0.005  23.096  0.00  0.00    +0.043 C 
ATOM      6  C   UNL     1       0.459  -0.120  23.283  0.00  0.00    +0.096 C 
ATOM      7  N   UNL     1       0.047   0.441  23.726  0.00  0.00    -0.269 N 
ATOM      8  C   UNL     1       0.429   1.126  23.981  0.00  0.00    +0.156 C 
ATOM      9  C   UNL     1       1.222   1.251  23.794  0.00  0.00    +0.051 C 
ATOM     10  C   UNL     1       0.122   1.751  24.425  0.00  0.00    +0.264 C 
ATOM     11  O   UNL     1       0.649   2.363  24.593  0.00  0.00    -0.271 OA
ATOM     12  N   UNL     1      -0.642   1.844  24.723  0.00  0.00    -0.178 NA
ATOM     13  C   UNL     1      -1.287   1.336  24.650  0.00  0.00    +0.078 A 
ATOM     14  C   UNL     1      -1.954   1.638  25.032  0.00  0.00    +0.017 A 
ATOM     15  C   UNL     1      -2.661   1.214  25.026  0.00  0.00    +0.004 A 
ATOM     16  C   UNL     1      -2.703   0.487  24.638  0.00  0.00    +0.035 A 
ATOM     17  C   UNL     1      -2.036   0.184  24.256  0.00  0.00    +0.009 A 
ATOM     18  C   UNL     1      -1.329   0.609  24.262  0.00  0.00    +0.069 A 
ATOM     19  C   UNL     1      -0.735   0.211  23.851  0.00  0.00    +0.251 C 
ATOM     20  O   UNL     1      -0.952  -0.514  23.521  0.00  0.00    -0.270 OA
ENDROOT
BRANCH  16  21
ATOM     21  C   UNL     1      -3.410   0.063  24.632  0.00  0.00    +0.145 A 
ATOM     22  C   UNL     1      -3.696  -0.413  25.242  0.00  0.00    +0.041 A 
ATOM     23  C   UNL     1      -4.419  -0.730  25.001  0.00  0.00    +0.044 A 
ATOM     24  C   UNL     1      -4.580  -0.450  24.243  0.00  0.00    +0.180 A 
ATOM     25  O   UNL     1      -3.956   0.040  24.014  0.00  0.00    -0.450 OA
ENDBRANCH  16  21
BRANCH   4   3
ATOM      1  O   UNL     1       2.703  -0.565  23.411  0.00  0.00    -0.268 OA
ATOM      2  C   UNL     1       2.963   0.187  23.194  0.00  0.00    +0.271 C 
ATOM      3  N   UNL     1       2.428   0.814  23.164  0.00  0.00    -0.203 NA
BRANCH   2  26
ATOM     26  C   UNL     1       3.756   0.311  23.006  0.00  0.00    +0.084 A 
ATOM     27  C   UNL     1       4.041   0.769  22.382  0.00  0.00    +0.012 A 
ATOM     28  C   UNL     1       4.866   0.741  22.400  0.00  0.00    +0.008 A 
ATOM     29  C   UNL     1       5.091   0.264  23.036  0.00  0.00    +0.036 A 
ATOM     30  S   UNL     1       4.405  -0.001  23.410  0.00  0.00    -0.082 S 
ENDBRANCH   2  26
ENDBRANCH   4   3
TORSDOF 3
ENDMDL
MODEL 10
REMARK VINA RESULT:      -6.4     15.159     17.334
REMARK  Name = 
REMARK  3 active torsions:
REMARK  status: ('A' for Active; 'I' for Inactive)
REMARK    1  A    between atoms: C_2  and  C_26
REMARK    2  A    between atoms: N_3  and  C_4
REMARK    3  A    between atoms: C_16  and  C_21
REMARK                            x       y       z     vdW  Elec       q    Type
REMARK                         _______ _______ _______ _____ _____    ______ ____
ROOT
ATOM      4  C   UNL     1      -4.268 -10.440  11.077  0.00  0.00    +0.100 C 
ATOM      5  C   UNL     1      -3.449 -10.339  11.066  0.00  0.00    +0.043 C 
ATOM      6  C   UNL     1      -3.021 -10.356  11.771  0.00  0.00    +0.096 C 
ATOM      7  N   UNL     1      -3.413 -10.474  12.488  0.00  0.00    -0.269 N 
ATOM      8  C   UNL     1      -4.232 -10.575  12.499  0.00  0.00    +0.156 C 
ATOM      9  C   UNL     1      -4.659 -10.559  11.793  0.00  0.00    +0.051 C 
ATOM     10  C   UNL     1      -4.726 -10.700  13.148  0.00  0.00    +0.264 C 
ATOM     11  O   UNL     1      -5.528 -10.781  12.976  0.00  0.00    -0.271 OA
ATOM     12  N   UNL     1      -4.524 -10.753  13.946  0.00  0.00    -0.178 NA
ATOM     13  C   UNL     1      -3.777 -10.696  14.292  0.00  0.00    +0.078 A 
ATOM     14  C   UNL     1      -3.818 -10.781  15.112  0.00  0.00    +0.017 A 
ATOM     15  C   UNL     1      -3.130 -10.741  15.565  0.00  0.00    +0.004 A 
ATOM     16  C   UNL     1      -2.401 -10.616  15.200  0.00  0.00    +0.035 A 
ATOM     17  C   UNL     1      -2.360 -10.530  14.379  0.00  0.00    +0.009 A 
ATOM     18  C   UNL     1      -3.049 -10.570  13.927  0.00  0.00    +0.069 A 
ATOM     19  C   UNL     1      -2.887 -10.472  13.123  0.00  0.00    +0.251 C 
ATOM     20  O   UNL     1      -2.093 -10.355  12.930  0.00  0.00    -0.270 OA
ENDROOT
BRANCH  16  21
ATOM     21  C   UNL     1      -1.713 -10.576  15.653  0.00  0.00    +0.145 A 
ATOM     22  C   UNL     1      -1.677 -10.515  16.475  0.00  0.00    +0.041 A 
ATOM     23  C   UNL     1      -0.881 -10.491  16.694  0.00  0.00    +0.044 A 
ATOM     24  C   UNL     1      -0.427 -10.538  16.008  0.00  0.00    +0.180 A 
ATOM     25  O   UNL     1      -0.941 -10.590  15.364  0.00  0.00    -0.450 OA
ENDBRANCH  16  21
BRANCH   4   3
ATOM      1  O   UNL     1      -4.468  -9.017  10.268  0.00  0.00    -0.268 OA
ATOM      2  C   UNL     1      -4.795  -9.712   9.967  0.00  0.00    +0.271 C 
ATOM      3  N   UNL     1      -4.695 -10.424  10.372  0.00  0.00    -0.203 NA
BRANCH   2  26
ATOM     26  C   UNL     1      -5.222  -9.695   9.261  0.00  0.00    +0.084 A 
ATOM     27  C   UNL     1      -5.364 -10.338   8.765  0.00  0.00    +0.012 A 
ATOM     28  C   UNL     1      -5.812 -10.073   8.125  0.00  0.00    +0.008 A 
ATOM     29  C   UNL     1      -5.947  -9.265   8.226  0.00  0.00    +0.036 A 
ATOM     30  S   UNL     1      -5.582  -9.031   8.928  0.00  0.00    -0.082 S 
ENDBRANCH   2  26
ENDBRANCH   4   3
TORSDOF 3
ENDMDL
