MODEL 1
REMARK VINA RESULT:      -9.1      0.000      0.000
REMARK  Name = 
REMARK  5 active torsions:
REMARK  status: ('A' for Active; 'I' for Inactive)
REMARK    1  A    between atoms: C_2  and  N_4
REMARK    2  A    between atoms: N_4  and  C_5
REMARK    3  A    between atoms: C_8  and  C_9
REMARK    4  A    between atoms: C_9  and  N_10
REMARK    5  A    between atoms: C_11  and  C_13
REMARK                            x       y       z     vdW  Elec       q    Type
REMARK                         _______ _______ _______ _____ _____    ______ ____
ROOT
ATOM      5  C   UNL     1      -3.047   2.828  24.844  0.00  0.00    +0.135 C 
ATOM      6  C   UNL     1      -2.430   2.322  25.052  0.00  0.00    +0.162 C 
ATOM      7  O   UNL     1      -2.690   1.546  24.949  0.00  0.00    -0.350 OA
ATOM      8  C   UNL     1      -3.468   1.572  24.676  0.00  0.00    +0.169 C 
ATOM     18  C   UNL     1      -3.688   2.364  24.611  0.00  0.00    +0.199 C 
ATOM     19  O   UNL     1      -4.422   2.644  24.358  0.00  0.00    -0.219 OA
ENDROOT
BRANCH   5   4
ATOM      4  N   UNL     1      -3.026   3.652  24.863  0.00  0.00    -0.216 NA
BRANCH   4   2
ATOM      1  C   UNL     1      -1.751   4.263  25.066  0.00  0.00    +0.019 C 
ATOM      2  C   UNL     1      -2.490   4.039  25.356  0.00  0.00    +0.073 C 
ATOM      3  C   UNL     1      -2.692   4.203  26.139  0.00  0.00    +0.019 C 
ENDBRANCH   4   2
ENDBRANCH   5   4
BRANCH   8   9
ATOM      9  C   UNL     1      -3.943   0.921  24.500  0.00  0.00    +0.147 C 
BRANCH   9  10
ATOM     10  N   UNL     1      -3.655   0.157  24.618  0.00  0.00    -0.203 NA
ATOM     11  C   UNL     1      -4.152  -0.493  24.505  0.00  0.00    +0.241 C 
ATOM     12  O   UNL     1      -4.936  -0.378  24.276  0.00  0.00    -0.273 OA
BRANCH  11  13
ATOM     13  C   UNL     1      -3.864  -1.256  24.624  0.00  0.00    +0.078 C 
ATOM     14  C   UNL     1      -3.840  -1.858  24.059  0.00  0.00    +0.009 C 
ATOM     15  C   UNL     1      -3.511  -2.527  24.412  0.00  0.00    +0.001 C 
ATOM     16  C   UNL     1      -3.330  -2.338  25.196  0.00  0.00    +0.001 C 
ATOM     17  C   UNL     1      -3.549  -1.554  25.325  0.00  0.00    +0.009 C 
ENDBRANCH  11  13
ENDBRANCH   9  10
ENDBRANCH   8   9
TORSDOF 5
ENDMDL
MODEL 2
REMARK VINA RESULT:      -8.8      0.918      4.675
REMARK  Name = 
REMARK  5 active torsions:
REMARK  status: ('A' for Active; 'I' for Inactive)
REMARK    1  A    between atoms: C_2  and  N_4
REMARK    2  A    between atoms: N_4  and  C_5
REMARK    3  A    between atoms: C_8  and  C_9
REMARK    4  A    between atoms: C_9  and  N_10
REMARK    5  A    between atoms: C_11  and  C_13
REMARK                            x       y       z     vdW  Elec       q    Type
REMARK                         _______ _______ _______ _____ _____    ______ ____
ROOT
ATOM      5  C   UNL     1      -3.937   0.242  24.643  0.00  0.00    +0.135 C 
ATOM      6  C   UNL     1      -3.186   0.329  24.316  0.00  0.00    +0.162 C 
ATOM      7  O   UNL     1      -2.950   1.113  24.422  0.00  0.00    -0.350 OA
ATOM      8  C   UNL     1      -3.556   1.510  24.816  0.00  0.00    +0.169 C 
ATOM     18  C   UNL     1      -4.166   0.971  24.952  0.00  0.00    +0.199 C 
ATOM     19  O   UNL     1      -4.881   1.134  25.332  0.00  0.00    -0.219 OA
ENDROOT
BRANCH   5   4
ATOM      4  N   UNL     1      -4.382  -0.453  24.659  0.00  0.00    -0.216 NA
BRANCH   4   2
ATOM      1  C   UNL     1      -4.086  -1.518  23.755  0.00  0.00    +0.019 C 
ATOM      2  C   UNL     1      -4.021  -1.177  24.503  0.00  0.00    +0.073 C 
ATOM      3  C   UNL     1      -3.593  -1.562  25.095  0.00  0.00    +0.019 C 
ENDBRANCH   4   2
ENDBRANCH   5   4
BRANCH   8   9
ATOM      9  C   UNL     1      -3.553   2.305  25.035  0.00  0.00    +0.147 C 
BRANCH   9  10
ATOM     10  N   UNL     1      -2.859   2.746  24.978  0.00  0.00    -0.203 NA
ATOM     11  C   UNL     1      -2.824   3.504  25.303  0.00  0.00    +0.241 C 
ATOM     12  O   UNL     1      -3.484   3.820  25.684  0.00  0.00    -0.273 OA
BRANCH  11  13
ATOM     13  C   UNL     1      -2.129   3.945  25.246  0.00  0.00    +0.078 C 
ATOM     14  C   UNL     1      -2.077   4.744  25.048  0.00  0.00    +0.009 C 
ATOM     15  C   UNL     1      -1.280   4.958  25.056  0.00  0.00    +0.001 C 
ATOM     16  C   UNL     1      -0.839   4.290  25.259  0.00  0.00    +0.001 C 
ATOM     17  C   UNL     1      -1.364   3.665  25.376  0.00  0.00    +0.009 C 
ENDBRANCH  11  13
ENDBRANCH   9  10
ENDBRANCH   8   9
TORSDOF 5
ENDMDL
