MODEL 1
REMARK VINA RESULT:      -8.2      0.000      0.000
REMARK  Name = 
REMARK  4 active torsions:
REMARK  status: ('A' for Active; 'I' for Inactive)
REMARK    1  A    between atoms: N_2  and  C_4
REMARK    2  A    between atoms: C_7  and  C_8
REMARK    3  A    between atoms: C_8  and  N_9
REMARK    4  A    between atoms: C_10  and  C_12
REMARK                            x       y       z     vdW  Elec       q    Type
REMARK                         _______ _______ _______ _____ _____    ______ ____
ROOT
ATOM      8  C   UNL     1      -4.586   0.207  24.813  0.00  0.00    +0.148 C 
ENDROOT
BRANCH   8   7
ATOM      4  C   UNL     1      -3.388  -1.555  24.942  0.00  0.00    +0.121 C 
ATOM      5  C   UNL     1      -3.243  -1.209  25.678  0.00  0.00    +0.161 C 
ATOM      6  O   UNL     1      -3.675  -0.508  25.719  0.00  0.00    -0.350 OA
ATOM      7  C   UNL     1      -4.085  -0.419  25.009  0.00  0.00    +0.168 C 
ATOM     18  C   UNL     1      -3.908  -1.066  24.529  0.00  0.00    +0.198 C 
ATOM     19  O   UNL     1      -4.200  -1.201  23.769  0.00  0.00    -0.219 OA
BRANCH   4   2
ATOM      1  C   UNL     1      -2.270  -2.303  24.458  0.00  0.00    +0.090 C 
ATOM      2  N   UNL     1      -3.067  -2.264  24.668  0.00  0.00    -0.267 NA
ATOM      3  C   UNL     1      -3.543  -2.934  24.604  0.00  0.00    +0.090 C 
ENDBRANCH   4   2
ENDBRANCH   8   7
BRANCH   8   9
ATOM      9  N   UNL     1      -4.315   0.985  24.869  0.00  0.00    -0.199 NA
ATOM     10  C   UNL     1      -4.844   1.613  24.785  0.00  0.00    +0.265 C 
ATOM     11  O   UNL     1      -5.643   1.463  24.645  0.00  0.00    -0.268 OA
BRANCH  10  12
ATOM     12  C   UNL     1      -4.573   2.390  24.841  0.00  0.00    +0.058 A 
ATOM     13  C   UNL     1      -4.766   2.847  25.499  0.00  0.00    +0.025 A 
ATOM     14  C   UNL     1      -4.495   3.624  25.555  0.00  0.00    +0.099 A 
ATOM     15  N   UNL     1      -4.032   3.944  24.952  0.00  0.00    -0.242 NA
ATOM     16  C   UNL     1      -3.839   3.487  24.294  0.00  0.00    +0.099 A 
ATOM     17  C   UNL     1      -4.109   2.710  24.238  0.00  0.00    +0.025 A 
ENDBRANCH  10  12
ENDBRANCH   8   9
TORSDOF 4
ENDMDL
MODEL 2
REMARK VINA RESULT:      -8.0      1.593      4.455
REMARK  Name = 
REMARK  4 active torsions:
REMARK  status: ('A' for Active; 'I' for Inactive)
REMARK    1  A    between atoms: N_2  and  C_4
REMARK    2  A    between atoms: C_7  and  C_8
REMARK    3  A    between atoms: C_8  and  N_9
REMARK    4  A    between atoms: C_10  and  C_12
REMARK                            x       y       z     vdW  Elec       q    Type
REMARK                         _______ _______ _______ _____ _____    ______ ____
ROOT
ATOM      8  C   UNL     1      -3.694   1.122  24.635  0.00  0.00    +0.148 C 
ENDROOT
BRANCH   8   7
ATOM      4  C   UNL     1      -2.371   2.780  24.880  0.00  0.00    +0.121 C 
ATOM      5  C   UNL     1      -1.908   2.272  24.422  0.00  0.00    +0.161 C 
ATOM      6  O   UNL     1      -2.347   1.590  24.275  0.00  0.00    -0.350 OA
ATOM      7  C   UNL     1      -3.082   1.676  24.641  0.00  0.00    +0.168 C 
ATOM     18  C   UNL     1      -3.096   2.410  25.015  0.00  0.00    +0.198 C 
ATOM     19  O   UNL     1      -3.726   2.722  25.448  0.00  0.00    -0.219 OA
BRANCH   4   2
ATOM      1  C   UNL     1      -2.427   4.204  24.776  0.00  0.00    +0.090 C 
ATOM      2  N   UNL     1      -2.148   3.525  25.154  0.00  0.00    -0.267 NA
ATOM      3  C   UNL     1      -1.647   3.592  25.805  0.00  0.00    +0.090 C 
ENDBRANCH   4   2
ENDBRANCH   8   7
BRANCH   8   9
ATOM      9  N   UNL     1      -3.520   0.315  24.606  0.00  0.00    -0.199 NA
ATOM     10  C   UNL     1      -4.131  -0.239  24.631  0.00  0.00    +0.265 C 
ATOM     11  O   UNL     1      -4.915   0.013  24.686  0.00  0.00    -0.268 OA
BRANCH  10  12
ATOM     12  C   UNL     1      -3.958  -1.045  24.602  0.00  0.00    +0.058 A 
ATOM     13  C   UNL     1      -3.580  -1.409  25.238  0.00  0.00    +0.025 A 
ATOM     14  C   UNL     1      -3.407  -2.214  25.209  0.00  0.00    +0.099 A 
ATOM     15  N   UNL     1      -3.612  -2.657  24.544  0.00  0.00    -0.242 NA
ATOM     16  C   UNL     1      -3.991  -2.293  23.908  0.00  0.00    +0.099 A 
ATOM     17  C   UNL     1      -4.164  -1.487  23.937  0.00  0.00    +0.025 A 
ENDBRANCH  10  12
ENDBRANCH   8   9
TORSDOF 4
ENDMDL
MODEL 3
REMARK VINA RESULT:      -7.7      1.419      1.630
REMARK  Name = 
REMARK  4 active torsions:
REMARK  status: ('A' for Active; 'I' for Inactive)
REMARK    1  A    between atoms: N_2  and  C_4
REMARK    2  A    between atoms: C_7  and  C_8
REMARK    3  A    between atoms: C_8  and  N_9
REMARK    4  A    between atoms: C_10  and  C_12
REMARK                            x       y       z     vdW  Elec       q    Type
REMARK                         _______ _______ _______ _____ _____    ______ ____
ROOT
ATOM      8  C   UNL     1      -3.077   0.851  24.461  0.00  0.00    +0.148 C 
ENDROOT
BRANCH   8   7
ATOM      4  C   UNL     1      -2.066  -0.945  25.017  0.00  0.00    +0.121 C 
ATOM      5  C   UNL     1      -2.726  -0.975  25.511  0.00  0.00    +0.161 C 
ATOM      6  O   UNL     1      -3.185  -0.306  25.363  0.00  0.00    -0.350 OA
ATOM      7  C   UNL     1      -2.808   0.137  24.778  0.00  0.00    +0.168 C 
ATOM     18  C   UNL     1      -2.117  -0.258  24.564  0.00  0.00    +0.198 C 
ATOM     19  O   UNL     1      -1.572  -0.010  23.997  0.00  0.00    -0.219 OA
BRANCH   4   2
ATOM      1  C   UNL     1      -0.737  -1.353  25.349  0.00  0.00    +0.090 C 
ATOM      2  N   UNL     1      -1.461  -1.505  24.983  0.00  0.00    -0.267 NA
ATOM      3  C   UNL     1      -1.578  -2.216  24.582  0.00  0.00    +0.090 C 
ENDBRANCH   4   2
ENDBRANCH   8   7
BRANCH   8   9
ATOM      9  N   UNL     1      -3.628   1.304  24.877  0.00  0.00    -0.199 NA
ATOM     10  C   UNL     1      -3.951   1.979  24.530  0.00  0.00    +0.265 C 
ATOM     11  O   UNL     1      -3.724   2.201  23.767  0.00  0.00    -0.268 OA
BRANCH  10  12
ATOM     12  C   UNL     1      -4.501   2.433  24.944  0.00  0.00    +0.058 A 
ATOM     13  C   UNL     1      -4.272   3.146  25.289  0.00  0.00    +0.025 A 
ATOM     14  C   UNL     1      -4.822   3.599  25.704  0.00  0.00    +0.099 A 
ATOM     15  N   UNL     1      -5.602   3.340  25.773  0.00  0.00    -0.242 NA
ATOM     16  C   UNL     1      -5.832   2.627  25.428  0.00  0.00    +0.099 A 
ATOM     17  C   UNL     1      -5.282   2.174  25.013  0.00  0.00    +0.025 A 
ENDBRANCH  10  12
ENDBRANCH   8   9
TORSDOF 4
ENDMDL
MODEL 4
REMARK VINA RESULT:      -7.7      2.543      2.977
REMARK  Name = 
REMARK  4 active torsions:
REMARK  status: ('A' for Active; 'I' for Inactive)
REMARK    1  A    between atoms: N_2  and  C_4
REMARK    2  A    between atoms: C_7  and  C_8
REMARK    3  A    between atoms: C_8  and  N_9
REMARK    4  A    between atoms: C_10  and  C_12
REMARK                            x       y       z     vdW  Elec       q    Type
REMARK                         _______ _______ _______ _____ _____    ______ ____
ROOT
ATOM      8  C   UNL     1      -1.268   1.199  25.452  0.00  0.00    +0.148 C 
ENDROOT
BRANCH   8   7
ATOM      4  C   UNL     1      -2.275  -0.601  24.902  0.00  0.00    +0.121 C 
ATOM      5  C   UNL     1      -2.551  -0.081  24.324  0.00  0.00    +0.161 C 
ATOM      6  O   UNL     1      -2.208   0.656  24.459  0.00  0.00    -0.350 OA
ATOM      7  C   UNL     1      -1.719   0.592  25.121  0.00  0.00    +0.168 C 
ATOM     18  C   UNL     1      -1.761  -0.184  25.394  0.00  0.00    +0.198 C 
ATOM     19  O   UNL     1      -1.358  -0.492  26.047  0.00  0.00    -0.219 OA
BRANCH   4   2
ATOM      1  C   UNL     1      -1.995  -1.978  24.640  0.00  0.00    +0.090 C 
ATOM      2  N   UNL     1      -2.477  -1.397  24.974  0.00  0.00    -0.267 NA
ATOM      3  C   UNL     1      -3.161  -1.614  25.381  0.00  0.00    +0.090 C 
ENDBRANCH   4   2
ENDBRANCH   8   7
BRANCH   8   9
ATOM      9  N   UNL     1      -1.467   1.987  25.305  0.00  0.00    -0.199 NA
ATOM     10  C   UNL     1      -1.031   2.594  25.656  0.00  0.00    +0.265 C 
ATOM     11  O   UNL     1      -0.397   2.413  26.152  0.00  0.00    -0.268 OA
BRANCH  10  12
ATOM     12  C   UNL     1      -1.230   3.381  25.510  0.00  0.00    +0.058 A 
ATOM     13  C   UNL     1      -1.946   3.684  25.785  0.00  0.00    +0.025 A 
ATOM     14  C   UNL     1      -2.144   4.471  25.639  0.00  0.00    +0.099 A 
ATOM     15  N   UNL     1      -1.626   4.956  25.219  0.00  0.00    -0.242 NA
ATOM     16  C   UNL     1      -0.910   4.654  24.944  0.00  0.00    +0.099 A 
ATOM     17  C   UNL     1      -0.711   3.867  25.090  0.00  0.00    +0.025 A 
ENDBRANCH  10  12
ENDBRANCH   8   9
TORSDOF 4
ENDMDL
