MODEL 1
REMARK VINA RESULT:      -8.9      0.000      0.000
REMARK  Name = 
REMARK  2 active torsions:
REMARK  status: ('A' for Active; 'I' for Inactive)
REMARK    1  A    between atoms: N_6  and  C_7
REMARK    2  A    between atoms: C_7  and  C_8
REMARK                            x       y       z     vdW  Elec       q    Type
REMARK                         _______ _______ _______ _____ _____    ______ ____
ROOT
ATOM      1  C   UNL     1      -3.960   3.422  23.867  0.00  0.00    +0.117 C 
ATOM      2  N   UNL     1      -3.790   2.666  24.149  0.00  0.00    -0.261 N 
ATOM      3  C   UNL     1      -4.343   2.108  24.403  0.00  0.00    +0.116 C 
ATOM      4  C   UNL     1      -3.933   1.432  24.637  0.00  0.00    +0.113 C 
ATOM      5  C   UNL     1      -4.188   0.706  24.936  0.00  0.00    +0.094 C 
ATOM      6  N   UNL     1      -3.639   0.121  25.125  0.00  0.00    -0.265 NA
ATOM     14  C   UNL     1      -2.833   0.261  25.016  0.00  0.00    +0.094 C 
ATOM     15  C   UNL     1      -2.577   0.986  24.717  0.00  0.00    +0.112 C 
ATOM     16  N   UNL     1      -3.127   1.572  24.528  0.00  0.00    -0.261 N 
ATOM     17  C   UNL     1      -3.039   2.334  24.226  0.00  0.00    +0.307 C 
ATOM     18  O   UNL     1      -2.325   2.701  24.035  0.00  0.00    -0.252 OA
ENDROOT
BRANCH   6   7
ATOM      7  C   UNL     1      -3.894  -0.604  25.424  0.00  0.00    +0.119 C 
BRANCH   7   8
ATOM      8  C   UNL     1      -3.839  -1.284  24.961  0.00  0.00    +0.075 A 
ATOM      9  N   UNL     1      -4.315  -1.368  24.292  0.00  0.00    -0.247 NA
ATOM     10  C   UNL     1      -4.261  -2.048  23.829  0.00  0.00    +0.098 A 
ATOM     11  C   UNL     1      -3.729  -2.645  24.034  0.00  0.00    +0.021 A 
ATOM     12  C   UNL     1      -3.253  -2.562  24.702  0.00  0.00    +0.003 A 
ATOM     13  C   UNL     1      -3.308  -1.881  25.165  0.00  0.00    +0.016 A 
ENDBRANCH   7   8
ENDBRANCH   6   7
TORSDOF 2
ENDMDL
MODEL 2
REMARK VINA RESULT:      -8.8      1.141      1.839
REMARK  Name = 
REMARK  2 active torsions:
REMARK  status: ('A' for Active; 'I' for Inactive)
REMARK    1  A    between atoms: N_6  and  C_7
REMARK    2  A    between atoms: C_7  and  C_8
REMARK                            x       y       z     vdW  Elec       q    Type
REMARK                         _______ _______ _______ _____ _____    ______ ____
ROOT
ATOM      1  C   UNL     1       0.033   1.682  24.441  0.00  0.00    +0.117 C 
ATOM      2  N   UNL     1      -0.732   1.382  24.511  0.00  0.00    -0.261 N 
ATOM      3  C   UNL     1      -0.956   0.720  24.951  0.00  0.00    +0.116 C 
ATOM      4  C   UNL     1      -1.769   0.620  24.865  0.00  0.00    +0.113 C 
ATOM      5  C   UNL     1      -2.293   0.060  25.171  0.00  0.00    +0.094 C 
ATOM      6  N   UNL     1      -3.095   0.099  24.985  0.00  0.00    -0.265 NA
ATOM     14  C   UNL     1      -3.375   0.698  24.491  0.00  0.00    +0.094 C 
ATOM     15  C   UNL     1      -2.853   1.258  24.184  0.00  0.00    +0.112 C 
ATOM     16  N   UNL     1      -2.049   1.219  24.371  0.00  0.00    -0.261 N 
ATOM     17  C   UNL     1      -1.409   1.689  24.153  0.00  0.00    +0.307 C 
ATOM     18  O   UNL     1      -1.438   2.352  23.662  0.00  0.00    -0.252 OA
ENDROOT
BRANCH   6   7
ATOM      7  C   UNL     1      -3.618  -0.460  25.292  0.00  0.00    +0.119 C 
BRANCH   7   8
ATOM      8  C   UNL     1      -3.712  -1.187  24.915  0.00  0.00    +0.075 A 
ATOM      9  N   UNL     1      -4.157  -1.239  24.222  0.00  0.00    -0.247 NA
ATOM     10  C   UNL     1      -4.251  -1.967  23.845  0.00  0.00    +0.098 A 
ATOM     11  C   UNL     1      -3.901  -2.643  24.162  0.00  0.00    +0.021 A 
ATOM     12  C   UNL     1      -3.456  -2.592  24.854  0.00  0.00    +0.003 A 
ATOM     13  C   UNL     1      -3.362  -1.864  25.231  0.00  0.00    +0.016 A 
ENDBRANCH   7   8
ENDBRANCH   6   7
TORSDOF 2
ENDMDL
MODEL 3
REMARK VINA RESULT:      -8.6      2.899      4.966
REMARK  Name = 
REMARK  2 active torsions:
REMARK  status: ('A' for Active; 'I' for Inactive)
REMARK    1  A    between atoms: N_6  and  C_7
REMARK    2  A    between atoms: C_7  and  C_8
REMARK                            x       y       z     vdW  Elec       q    Type
REMARK                         _______ _______ _______ _____ _____    ______ ____
ROOT
ATOM      1  C   UNL     1      -0.993  -1.265  24.567  0.00  0.00    +0.117 C 
ATOM      2  N   UNL     1      -0.795  -0.472  24.684  0.00  0.00    -0.261 N 
ATOM      3  C   UNL     1      -1.036   0.000  25.316  0.00  0.00    +0.116 C 
ATOM      4  C   UNL     1      -0.711   0.750  25.212  0.00  0.00    +0.113 C 
ATOM      5  C   UNL     1      -0.760   1.441  25.660  0.00  0.00    +0.094 C 
ATOM      6  N   UNL     1      -0.367   2.123  25.413  0.00  0.00    -0.265 NA
ATOM     14  C   UNL     1       0.075   2.114  24.717  0.00  0.00    +0.094 C 
ATOM     15  C   UNL     1       0.125   1.425  24.267  0.00  0.00    +0.112 C 
ATOM     16  N   UNL     1      -0.269   0.742  24.515  0.00  0.00    -0.261 N 
ATOM     17  C   UNL     1      -0.320  -0.013  24.189  0.00  0.00    +0.307 C 
ATOM     18  O   UNL     1       0.039  -0.266  23.490  0.00  0.00    -0.252 OA
ENDROOT
BRANCH   6   7
ATOM      7  C   UNL     1      -0.416   2.814  25.862  0.00  0.00    +0.119 C 
BRANCH   7   8
ATOM      8  C   UNL     1      -0.966   3.395  25.666  0.00  0.00    +0.075 A 
ATOM      9  N   UNL     1      -1.747   3.330  25.926  0.00  0.00    -0.247 NA
ATOM     10  C   UNL     1      -2.297   3.912  25.730  0.00  0.00    +0.098 A 
ATOM     11  C   UNL     1      -2.067   4.560  25.274  0.00  0.00    +0.021 A 
ATOM     12  C   UNL     1      -1.287   4.626  25.014  0.00  0.00    +0.003 A 
ATOM     13  C   UNL     1      -0.736   4.043  25.211  0.00  0.00    +0.016 A 
ENDBRANCH   7   8
ENDBRANCH   6   7
TORSDOF 2
ENDMDL
MODEL 4
REMARK VINA RESULT:      -8.5      2.525      3.671
REMARK  Name = 
REMARK  2 active torsions:
REMARK  status: ('A' for Active; 'I' for Inactive)
REMARK    1  A    between atoms: N_6  and  C_7
REMARK    2  A    between atoms: C_7  and  C_8
REMARK                            x       y       z     vdW  Elec       q    Type
REMARK                         _______ _______ _______ _____ _____    ______ ____
ROOT
ATOM      1  C   UNL     1       0.057   2.514  26.137  0.00  0.00    +0.117 C 
ATOM      2  N   UNL     1      -0.660   2.386  25.748  0.00  0.00    -0.261 N 
ATOM      3  C   UNL     1      -1.235   2.957  25.592  0.00  0.00    +0.116 C 
ATOM      4  C   UNL     1      -1.857   2.590  25.195  0.00  0.00    +0.113 C 
ATOM      5  C   UNL     1      -2.573   2.878  24.903  0.00  0.00    +0.094 C 
ATOM      6  N   UNL     1      -3.098   2.369  24.522  0.00  0.00    -0.265 NA
ATOM     14  C   UNL     1      -2.907   1.571  24.432  0.00  0.00    +0.094 C 
ATOM     15  C   UNL     1      -2.192   1.282  24.724  0.00  0.00    +0.112 C 
ATOM     16  N   UNL     1      -1.666   1.792  25.105  0.00  0.00    -0.261 N 
ATOM     17  C   UNL     1      -0.927   1.667  25.447  0.00  0.00    +0.307 C 
ATOM     18  O   UNL     1      -0.524   0.947  25.482  0.00  0.00    -0.252 OA
ENDROOT
BRANCH   6   7
ATOM      7  C   UNL     1      -3.814   2.657  24.230  0.00  0.00    +0.119 C 
BRANCH   7   8
ATOM      8  C   UNL     1      -4.500   2.596  24.684  0.00  0.00    +0.075 A 
ATOM      9  N   UNL     1      -4.694   3.191  25.221  0.00  0.00    -0.247 NA
ATOM     10  C   UNL     1      -5.380   3.130  25.675  0.00  0.00    +0.098 A 
ATOM     11  C   UNL     1      -5.872   2.473  25.592  0.00  0.00    +0.021 A 
ATOM     12  C   UNL     1      -5.678   1.877  25.055  0.00  0.00    +0.003 A 
ATOM     13  C   UNL     1      -4.992   1.939  24.601  0.00  0.00    +0.016 A 
ENDBRANCH   7   8
ENDBRANCH   6   7
TORSDOF 2
ENDMDL
MODEL 5
REMARK VINA RESULT:      -8.5      2.919      3.910
REMARK  Name = 
REMARK  2 active torsions:
REMARK  status: ('A' for Active; 'I' for Inactive)
REMARK    1  A    between atoms: N_6  and  C_7
REMARK    2  A    between atoms: C_7  and  C_8
REMARK                            x       y       z     vdW  Elec       q    Type
REMARK                         _______ _______ _______ _____ _____    ______ ____
ROOT
ATOM      1  C   UNL     1      -6.140   1.942  25.104  0.00  0.00    +0.117 C 
ATOM      2  N   UNL     1      -5.385   2.274  25.083  0.00  0.00    -0.261 N 
ATOM      3  C   UNL     1      -4.729   1.964  24.689  0.00  0.00    +0.116 C 
ATOM      4  C   UNL     1      -4.093   2.474  24.815  0.00  0.00    +0.113 C 
ATOM      5  C   UNL     1      -3.308   2.450  24.561  0.00  0.00    +0.094 C 
ATOM      6  N   UNL     1      -2.786   3.050  24.778  0.00  0.00    -0.265 NA
ATOM     14  C   UNL     1      -3.048   3.675  25.249  0.00  0.00    +0.094 C 
ATOM     15  C   UNL     1      -3.833   3.700  25.503  0.00  0.00    +0.112 C 
ATOM     16  N   UNL     1      -4.355   3.098  25.285  0.00  0.00    -0.261 N 
ATOM     17  C   UNL     1      -5.153   2.975  25.451  0.00  0.00    +0.307 C 
ATOM     18  O   UNL     1      -5.636   3.467  25.905  0.00  0.00    -0.252 OA
ENDROOT
BRANCH   6   7
ATOM      7  C   UNL     1      -2.001   3.027  24.525  0.00  0.00    +0.119 C 
BRANCH   7   8
ATOM      8  C   UNL     1      -1.414   2.736  25.025  0.00  0.00    +0.075 A 
ATOM      9  N   UNL     1      -1.275   1.924  25.071  0.00  0.00    -0.247 NA
ATOM     10  C   UNL     1      -0.688   1.632  25.571  0.00  0.00    +0.098 A 
ATOM     11  C   UNL     1      -0.239   2.153  26.027  0.00  0.00    +0.021 A 
ATOM     12  C   UNL     1      -0.377   2.965  25.982  0.00  0.00    +0.003 A 
ATOM     13  C   UNL     1      -0.965   3.257  25.481  0.00  0.00    +0.016 A 
ENDBRANCH   7   8
ENDBRANCH   6   7
TORSDOF 2
ENDMDL
MODEL 6
REMARK VINA RESULT:      -8.4      1.449      3.815
REMARK  Name = 
REMARK  2 active torsions:
REMARK  status: ('A' for Active; 'I' for Inactive)
REMARK    1  A    between atoms: N_6  and  C_7
REMARK    2  A    between atoms: C_7  and  C_8
REMARK                            x       y       z     vdW  Elec       q    Type
REMARK                         _______ _______ _______ _____ _____    ______ ____
ROOT
ATOM      1  C   UNL     1      -3.383  -2.477  24.924  0.00  0.00    +0.117 C 
ATOM      2  N   UNL     1      -3.366  -1.658  24.828  0.00  0.00    -0.261 N 
ATOM      3  C   UNL     1      -3.966  -1.197  24.498  0.00  0.00    +0.116 C 
ATOM      4  C   UNL     1      -3.718  -0.411  24.510  0.00  0.00    +0.113 C 
ATOM      5  C   UNL     1      -4.079   0.287  24.258  0.00  0.00    +0.094 C 
ATOM      6  N   UNL     1      -3.689   1.008  24.342  0.00  0.00    -0.265 NA
ATOM     14  C   UNL     1      -2.936   1.033  24.678  0.00  0.00    +0.094 C 
ATOM     15  C   UNL     1      -2.573   0.336  24.931  0.00  0.00    +0.112 C 
ATOM     16  N   UNL     1      -2.965  -0.386  24.846  0.00  0.00    -0.261 N 
ATOM     17  C   UNL     1      -2.748  -1.157  25.042  0.00  0.00    +0.307 C 
ATOM     18  O   UNL     1      -2.036  -1.387  25.392  0.00  0.00    -0.252 OA
ENDROOT
BRANCH   6   7
ATOM      7  C   UNL     1      -4.050   1.706  24.091  0.00  0.00    +0.119 C 
BRANCH   7   8
ATOM      8  C   UNL     1      -4.492   2.157  24.621  0.00  0.00    +0.075 A 
ATOM      9  N   UNL     1      -5.271   1.946  24.795  0.00  0.00    -0.247 NA
ATOM     10  C   UNL     1      -5.712   2.397  25.325  0.00  0.00    +0.098 A 
ATOM     11  C   UNL     1      -5.375   3.060  25.683  0.00  0.00    +0.021 A 
ATOM     12  C   UNL     1      -4.597   3.272  25.510  0.00  0.00    +0.003 A 
ATOM     13  C   UNL     1      -4.155   2.820  24.979  0.00  0.00    +0.016 A 
ENDBRANCH   7   8
ENDBRANCH   6   7
TORSDOF 2
ENDMDL
