MODEL 1
REMARK VINA RESULT:     -11.4      0.000      0.000
REMARK  Name = 
REMARK  6 active torsions:
REMARK  status: ('A' for Active; 'I' for Inactive)
REMARK    1  A    between atoms: O_2  and  C_3
REMARK    2  A    between atoms: C_3  and  C_5
REMARK    3  A    between atoms: C_11  and  C_13
REMARK    4  A    between atoms: N_20  and  C_21
REMARK    5  A    between atoms: C_21  and  C_22
REMARK    6  A    between atoms: C_25  and  O_26
REMARK                            x       y       z     vdW  Elec       q    Type
REMARK                         _______ _______ _______ _____ _____    ______ ____
ROOT
ATOM      5  C   UNL     1      -1.604   2.554  24.782  0.00  0.00    +0.181 C 
ATOM      6  C   UNL     1      -1.121   1.888  24.845  0.00  0.00    +0.078 C 
ATOM      7  C   UNL     1      -1.452   1.152  25.016  0.00  0.00    +0.076 A 
ATOM      8  C   UNL     1      -2.267   1.082  25.124  0.00  0.00    +0.072 A 
ATOM      9  C   UNL     1      -2.751   1.748  25.061  0.00  0.00    +0.139 C 
ATOM     10  N   UNL     1      -2.418   2.484  24.890  0.00  0.00    -0.262 N 
ATOM     11  C   UNL     1      -2.902   3.149  24.827  0.00  0.00    +0.250 C 
ATOM     12  O   UNL     1      -2.570   3.885  24.656  0.00  0.00    -0.270 OA
ATOM     20  N   UNL     1      -2.436   0.292  25.286  0.00  0.00    -0.307 N 
ATOM     30  C   UNL     1      -1.726  -0.128  25.278  0.00  0.00    +0.178 A 
ATOM     31  N   UNL     1      -1.118   0.405  25.111  0.00  0.00    -0.229 NA
ENDROOT
BRANCH  11  13
ATOM     13  C   UNL     1      -3.717   3.079  24.936  0.00  0.00    +0.054 A 
ATOM     14  C   UNL     1      -4.199   2.863  24.303  0.00  0.00    +0.007 A 
ATOM     15  C   UNL     1      -5.014   2.793  24.411  0.00  0.00    +0.030 A 
ATOM     16  C   UNL     1      -5.347   2.939  25.152  0.00  0.00    +0.140 A 
ATOM     17  F   UNL     1      -6.161   2.869  25.260  0.00  0.00    -0.204 F 
ATOM     18  C   UNL     1      -4.863   3.156  25.785  0.00  0.00    +0.030 A 
ATOM     19  C   UNL     1      -4.048   3.226  25.677  0.00  0.00    +0.007 A 
ENDBRANCH  11  13
BRANCH   5   3
ATOM      3  C   UNL     1      -1.272   3.289  24.611  0.00  0.00    +0.336 C 
ATOM      4  O   UNL     1      -1.210   3.542  23.828  0.00  0.00    -0.248 OA
BRANCH   3   2
ATOM      1  C   UNL     1      -0.545   4.437  25.053  0.00  0.00    +0.256 C 
ATOM      2  O   UNL     1      -1.003   3.772  25.223  0.00  0.00    -0.443 OA
ENDBRANCH   3   2
ENDBRANCH   5   3
BRANCH  20  21
ATOM     21  C   UNL     1      -3.184  -0.025  25.430  0.00  0.00    +0.134 C 
BRANCH  21  22
ATOM     22  C   UNL     1      -3.400  -0.745  25.091  0.00  0.00    +0.001 A 
ATOM     23  C   UNL     1      -3.768  -0.759  24.352  0.00  0.00    +0.001 A 
ATOM     24  C   UNL     1      -3.984  -1.479  24.012  0.00  0.00    +0.037 A 
ATOM     25  C   UNL     1      -3.832  -2.185  24.411  0.00  0.00    +0.139 A 
ATOM     28  C   UNL     1      -3.465  -2.171  25.149  0.00  0.00    +0.037 A 
ATOM     29  C   UNL     1      -3.249  -1.451  25.489  0.00  0.00    +0.001 A 
BRANCH  25  26
ATOM     26  O   UNL     1      -4.048  -2.905  24.071  0.00  0.00    -0.471 OA
ATOM     27  C   UNL     1      -3.522  -3.540  24.081  0.00  0.00    +0.252 C 
ENDBRANCH  25  26
ENDBRANCH  21  22
ENDBRANCH  20  21
TORSDOF 6
ENDMDL
MODEL 2
REMARK VINA RESULT:     -11.1      2.254      3.993
REMARK  Name = 
REMARK  6 active torsions:
REMARK  status: ('A' for Active; 'I' for Inactive)
REMARK    1  A    between atoms: O_2  and  C_3
REMARK    2  A    between atoms: C_3  and  C_5
REMARK    3  A    between atoms: C_11  and  C_13
REMARK    4  A    between atoms: N_20  and  C_21
REMARK    5  A    between atoms: C_21  and  C_22
REMARK    6  A    between atoms: C_25  and  O_26
REMARK                            x       y       z     vdW  Elec       q    Type
REMARK                         _______ _______ _______ _____ _____    ______ ____
ROOT
ATOM      5  C   UNL     1      -3.719   1.850  24.822  0.00  0.00    +0.181 C 
ATOM      6  C   UNL     1      -3.119   2.413  24.776  0.00  0.00    +0.078 C 
ATOM      7  C   UNL     1      -2.328   2.176  24.765  0.00  0.00    +0.076 A 
ATOM      8  C   UNL     1      -2.139   1.374  24.800  0.00  0.00    +0.072 A 
ATOM      9  C   UNL     1      -2.739   0.809  24.847  0.00  0.00    +0.139 C 
ATOM     10  N   UNL     1      -3.529   1.047  24.858  0.00  0.00    -0.262 N 
ATOM     11  C   UNL     1      -4.128   0.483  24.904  0.00  0.00    +0.250 C 
ATOM     12  O   UNL     1      -4.919   0.721  24.915  0.00  0.00    -0.270 OA
ATOM     20  N   UNL     1      -1.318   1.305  24.780  0.00  0.00    -0.307 N 
ATOM     30  C   UNL     1      -0.999   2.064  24.731  0.00  0.00    +0.178 A 
ATOM     31  N   UNL     1      -1.624   2.602  24.722  0.00  0.00    -0.229 NA
ENDROOT
BRANCH  11  13
ATOM     13  C   UNL     1      -3.939  -0.319  24.940  0.00  0.00    +0.054 A 
ATOM     14  C   UNL     1      -3.950  -0.776  24.254  0.00  0.00    +0.007 A 
ATOM     15  C   UNL     1      -3.761  -1.578  24.290  0.00  0.00    +0.030 A 
ATOM     16  C   UNL     1      -3.560  -1.923  25.011  0.00  0.00    +0.140 A 
ATOM     17  F   UNL     1      -3.370  -2.726  25.047  0.00  0.00    -0.204 F 
ATOM     18  C   UNL     1      -3.548  -1.465  25.698  0.00  0.00    +0.030 A 
ATOM     19  C   UNL     1      -3.738  -0.663  25.663  0.00  0.00    +0.007 A 
ENDBRANCH  11  13
BRANCH   5   3
ATOM      3  C   UNL     1      -4.508   2.087  24.833  0.00  0.00    +0.336 C 
ATOM      4  O   UNL     1      -4.948   2.091  24.135  0.00  0.00    -0.248 OA
BRANCH   3   2
ATOM      1  C   UNL     1      -5.536   2.790  25.533  0.00  0.00    +0.256 C 
ATOM      2  O   UNL     1      -4.858   2.321  25.542  0.00  0.00    -0.443 OA
ENDBRANCH   3   2
ENDBRANCH   5   3
BRANCH  20  21
ATOM     21  C   UNL     1      -0.889   0.600  24.803  0.00  0.00    +0.134 C 
BRANCH  21  22
ATOM     22  C   UNL     1      -0.310   0.450  24.236  0.00  0.00    +0.001 A 
ATOM     23  C   UNL     1      -0.385  -0.198  23.730  0.00  0.00    +0.001 A 
ATOM     24  C   UNL     1       0.194  -0.348  23.162  0.00  0.00    +0.037 A 
ATOM     25  C   UNL     1       0.849   0.150  23.100  0.00  0.00    +0.139 A 
ATOM     28  C   UNL     1       0.925   0.798  23.605  0.00  0.00    +0.037 A 
ATOM     29  C   UNL     1       0.345   0.947  24.173  0.00  0.00    +0.001 A 
BRANCH  25  26
ATOM     26  O   UNL     1       1.429   0.001  22.532  0.00  0.00    -0.471 OA
ATOM     27  C   UNL     1       2.227   0.082  22.726  0.00  0.00    +0.252 C 
ENDBRANCH  25  26
ENDBRANCH  21  22
ENDBRANCH  20  21
TORSDOF 6
ENDMDL
MODEL 3
REMARK VINA RESULT:     -10.9      2.137      3.450
REMARK  Name = 
REMARK  6 active torsions:
REMARK  status: ('A' for Active; 'I' for Inactive)
REMARK    1  A    between atoms: O_2  and  C_3
REMARK    2  A    between atoms: C_3  and  C_5
REMARK    3  A    between atoms: C_11  and  C_13
REMARK    4  A    between atoms: N_20  and  C_21
REMARK    5  A    between atoms: C_21  and  C_22
REMARK    6  A    between atoms: C_25  and  O_26
REMARK                            x       y       z     vdW  Elec       q    Type
REMARK                         _______ _______ _______ _____ _____    ______ ____
ROOT
ATOM      5  C   UNL     1      -4.492   1.665  24.989  0.00  0.00    +0.181 C 
ATOM      6  C   UNL     1      -4.394   0.851  24.904  0.00  0.00    +0.078 C 
ATOM      7  C   UNL     1      -3.637   0.523  24.907  0.00  0.00    +0.076 A 
ATOM      8  C   UNL     1      -2.977   1.011  24.994  0.00  0.00    +0.072 A 
ATOM      9  C   UNL     1      -3.075   1.826  25.079  0.00  0.00    +0.139 C 
ATOM     10  N   UNL     1      -3.832   2.153  25.076  0.00  0.00    -0.262 N 
ATOM     11  C   UNL     1      -3.930   2.967  25.160  0.00  0.00    +0.250 C 
ATOM     12  O   UNL     1      -4.688   3.294  25.158  0.00  0.00    -0.270 OA
ATOM     20  N   UNL     1      -2.304   0.535  24.976  0.00  0.00    -0.307 N 
ATOM     30  C   UNL     1      -2.547  -0.247  24.878  0.00  0.00    +0.178 A 
ATOM     31  N   UNL     1      -3.371  -0.254  24.835  0.00  0.00    -0.229 NA
ENDROOT
BRANCH  11  13
ATOM     13  C   UNL     1      -3.270   3.455  25.248  0.00  0.00    +0.054 A 
ATOM     14  C   UNL     1      -2.889   3.755  24.581  0.00  0.00    +0.007 A 
ATOM     15  C   UNL     1      -2.229   4.243  24.668  0.00  0.00    +0.030 A 
ATOM     16  C   UNL     1      -1.951   4.431  25.422  0.00  0.00    +0.140 A 
ATOM     17  F   UNL     1      -1.291   4.919  25.509  0.00  0.00    -0.204 F 
ATOM     18  C   UNL     1      -2.333   4.130  26.089  0.00  0.00    +0.030 A 
ATOM     19  C   UNL     1      -2.993   3.642  26.002  0.00  0.00    +0.007 A 
ENDBRANCH  11  13
BRANCH   5   3
ATOM      3  C   UNL     1      -5.249   1.992  24.986  0.00  0.00    +0.336 C 
ATOM      4  O   UNL     1      -5.551   2.328  24.296  0.00  0.00    -0.248 OA
BRANCH   3   2
ATOM      1  C   UNL     1      -6.527   2.005  25.625  0.00  0.00    +0.256 C 
ATOM      2  O   UNL     1      -5.704   1.982  25.674  0.00  0.00    -0.443 OA
ENDBRANCH   3   2
ENDBRANCH   5   3
BRANCH  20  21
ATOM     21  C   UNL     1      -1.524   0.796  25.044  0.00  0.00    +0.134 C 
BRANCH  21  22
ATOM     22  C   UNL     1      -0.938   0.476  24.558  0.00  0.00    +0.001 A 
ATOM     23  C   UNL     1      -0.682   0.892  23.893  0.00  0.00    +0.001 A 
ATOM     24  C   UNL     1      -0.096   0.573  23.408  0.00  0.00    +0.037 A 
ATOM     25  C   UNL     1       0.232  -0.163  23.587  0.00  0.00    +0.139 A 
ATOM     28  C   UNL     1      -0.024  -0.578  24.252  0.00  0.00    +0.037 A 
ATOM     29  C   UNL     1      -0.609  -0.259  24.737  0.00  0.00    +0.001 A 
BRANCH  25  26
ATOM     26  O   UNL     1       0.818  -0.482  23.102  0.00  0.00    -0.471 OA
ATOM     27  C   UNL     1       1.391   0.009  22.768  0.00  0.00    +0.252 C 
ENDBRANCH  25  26
ENDBRANCH  21  22
ENDBRANCH  20  21
TORSDOF 6
ENDMDL
MODEL 4
REMARK VINA RESULT:     -10.6      1.689      2.868
REMARK  Name = 
REMARK  6 active torsions:
REMARK  status: ('A' for Active; 'I' for Inactive)
REMARK    1  A    between atoms: O_2  and  C_3
REMARK    2  A    between atoms: C_3  and  C_5
REMARK    3  A    between atoms: C_11  and  C_13
REMARK    4  A    between atoms: N_20  and  C_21
REMARK    5  A    between atoms: C_21  and  C_22
REMARK    6  A    between atoms: C_25  and  O_26
REMARK                            x       y       z     vdW  Elec       q    Type
REMARK                         _______ _______ _______ _____ _____    ______ ____
ROOT
ATOM      5  C   UNL     1      -3.283   3.242  25.329  0.00  0.00    +0.181 C 
ATOM      6  C   UNL     1      -4.027   2.897  25.249  0.00  0.00    +0.078 C 
ATOM      7  C   UNL     1      -4.098   2.132  24.948  0.00  0.00    +0.076 A 
ATOM      8  C   UNL     1      -3.423   1.712  24.727  0.00  0.00    +0.072 A 
ATOM      9  C   UNL     1      -2.677   2.058  24.807  0.00  0.00    +0.139 C 
ATOM     10  N   UNL     1      -2.608   2.823  25.108  0.00  0.00    -0.262 N 
ATOM     11  C   UNL     1      -1.862   3.167  25.188  0.00  0.00    +0.250 C 
ATOM     12  O   UNL     1      -1.792   3.933  25.489  0.00  0.00    -0.270 OA
ATOM     20  N   UNL     1      -3.661   0.974  24.450  0.00  0.00    -0.307 N 
ATOM     30  C   UNL     1      -4.484   0.936  24.499  0.00  0.00    +0.178 A 
ATOM     31  N   UNL     1      -4.753   1.652  24.807  0.00  0.00    -0.229 NA
ENDROOT
BRANCH  11  13
ATOM     13  C   UNL     1      -1.188   2.747  24.967  0.00  0.00    +0.054 A 
ATOM     14  C   UNL     1      -0.790   2.285  25.521  0.00  0.00    +0.007 A 
ATOM     15  C   UNL     1      -0.115   1.865  25.300  0.00  0.00    +0.030 A 
ATOM     16  C   UNL     1       0.162   1.908  24.525  0.00  0.00    +0.140 A 
ATOM     17  F   UNL     1       0.837   1.488  24.303  0.00  0.00    -0.204 F 
ATOM     18  C   UNL     1      -0.236   2.371  23.969  0.00  0.00    +0.030 A 
ATOM     19  C   UNL     1      -0.911   2.791  24.190  0.00  0.00    +0.007 A 
ENDBRANCH  11  13
BRANCH   5   3
ATOM      3  C   UNL     1      -3.212   4.007  25.630  0.00  0.00    +0.336 C 
ATOM      4  O   UNL     1      -3.142   4.648  25.115  0.00  0.00    -0.248 OA
BRANCH   3   2
ATOM      1  C   UNL     1      -3.429   4.865  26.751  0.00  0.00    +0.256 C 
ATOM      2  O   UNL     1      -3.212   4.131  26.445  0.00  0.00    -0.443 OA
ENDBRANCH   3   2
ENDBRANCH   5   3
BRANCH  20  21
ATOM     21  C   UNL     1      -3.165   0.376  24.172  0.00  0.00    +0.134 C 
BRANCH  21  22
ATOM     22  C   UNL     1      -3.309  -0.410  24.377  0.00  0.00    +0.001 A 
ATOM     23  C   UNL     1      -3.799  -0.877  23.905  0.00  0.00    +0.001 A 
ATOM     24  C   UNL     1      -3.944  -1.662  24.110  0.00  0.00    +0.037 A 
ATOM     25  C   UNL     1      -3.598  -1.981  24.789  0.00  0.00    +0.139 A 
ATOM     28  C   UNL     1      -3.109  -1.515  25.261  0.00  0.00    +0.037 A 
ATOM     29  C   UNL     1      -2.964  -0.729  25.055  0.00  0.00    +0.001 A 
BRANCH  25  26
ATOM     26  O   UNL     1      -3.743  -2.767  24.994  0.00  0.00    -0.471 OA
ATOM     27  C   UNL     1      -3.335  -3.375  24.613  0.00  0.00    +0.252 C 
ENDBRANCH  25  26
ENDBRANCH  21  22
ENDBRANCH  20  21
TORSDOF 6
ENDMDL
MODEL 5
REMARK VINA RESULT:     -10.5      2.122      4.268
REMARK  Name = 
REMARK  6 active torsions:
REMARK  status: ('A' for Active; 'I' for Inactive)
REMARK    1  A    between atoms: O_2  and  C_3
REMARK    2  A    between atoms: C_3  and  C_5
REMARK    3  A    between atoms: C_11  and  C_13
REMARK    4  A    between atoms: N_20  and  C_21
REMARK    5  A    between atoms: C_21  and  C_22
REMARK    6  A    between atoms: C_25  and  O_26
REMARK                            x       y       z     vdW  Elec       q    Type
REMARK                         _______ _______ _______ _____ _____    ______ ____
ROOT
ATOM      5  C   UNL     1      -0.918   0.559  23.930  0.00  0.00    +0.181 C 
ATOM      6  C   UNL     1      -1.068   1.307  23.616  0.00  0.00    +0.078 C 
ATOM      7  C   UNL     1      -1.840   1.599  23.596  0.00  0.00    +0.076 A 
ATOM      8  C   UNL     1      -2.461   1.143  23.891  0.00  0.00    +0.072 A 
ATOM      9  C   UNL     1      -2.311   0.394  24.205  0.00  0.00    +0.139 C 
ATOM     10  N   UNL     1      -1.539   0.103  24.224  0.00  0.00    -0.262 N 
ATOM     11  C   UNL     1      -1.390  -0.645  24.539  0.00  0.00    +0.250 C 
ATOM     12  O   UNL     1      -0.617  -0.937  24.558  0.00  0.00    -0.270 OA
ATOM     20  N   UNL     1      -3.159   1.572  23.798  0.00  0.00    -0.307 N 
ATOM     30  C   UNL     1      -2.969   2.294  23.447  0.00  0.00    +0.178 A 
ATOM     31  N   UNL     1      -2.154   2.310  23.323  0.00  0.00    -0.229 NA
ENDROOT
BRANCH  11  13
ATOM     13  C   UNL     1      -2.011  -1.101  24.833  0.00  0.00    +0.054 A 
ATOM     14  C   UNL     1      -2.396  -1.638  24.341  0.00  0.00    +0.007 A 
ATOM     15  C   UNL     1      -3.017  -2.095  24.635  0.00  0.00    +0.030 A 
ATOM     16  C   UNL     1      -3.253  -2.013  25.421  0.00  0.00    +0.140 A 
ATOM     17  F   UNL     1      -3.874  -2.470  25.716  0.00  0.00    -0.204 F 
ATOM     18  C   UNL     1      -2.867  -1.475  25.914  0.00  0.00    +0.030 A 
ATOM     19  C   UNL     1      -2.246  -1.019  25.620  0.00  0.00    +0.007 A 
ENDBRANCH  11  13
BRANCH   5   3
ATOM      3  C   UNL     1      -0.147   0.268  23.950  0.00  0.00    +0.336 C 
ATOM      4  O   UNL     1       0.302   0.334  24.639  0.00  0.00    -0.248 OA
BRANCH   3   2
ATOM      1  C   UNL     1       0.993  -0.114  23.178  0.00  0.00    +0.256 C 
ATOM      2  O   UNL     1       0.175  -0.091  23.281  0.00  0.00    -0.443 OA
ENDBRANCH   3   2
ENDBRANCH   5   3
BRANCH  20  21
ATOM     21  C   UNL     1      -3.914   1.324  24.019  0.00  0.00    +0.134 C 
BRANCH  21  22
ATOM     22  C   UNL     1      -4.394   1.817  24.473  0.00  0.00    +0.001 A 
ATOM     23  C   UNL     1      -4.675   1.559  25.206  0.00  0.00    +0.001 A 
ATOM     24  C   UNL     1      -5.155   2.053  25.660  0.00  0.00    +0.037 A 
ATOM     25  C   UNL     1      -5.355   2.803  25.382  0.00  0.00    +0.139 A 
ATOM     28  C   UNL     1      -5.075   3.061  24.651  0.00  0.00    +0.037 A 
ATOM     29  C   UNL     1      -4.595   2.568  24.196  0.00  0.00    +0.001 A 
BRANCH  25  26
ATOM     26  O   UNL     1      -5.835   3.297  25.836  0.00  0.00    -0.471 OA
ATOM     27  C   UNL     1      -5.792   4.116  25.743  0.00  0.00    +0.252 C 
ENDBRANCH  25  26
ENDBRANCH  21  22
ENDBRANCH  20  21
TORSDOF 6
ENDMDL
MODEL 6
REMARK VINA RESULT:     -10.3      2.056      4.591
REMARK  Name = 
REMARK  6 active torsions:
REMARK  status: ('A' for Active; 'I' for Inactive)
REMARK    1  A    between atoms: O_2  and  C_3
REMARK    2  A    between atoms: C_3  and  C_5
REMARK    3  A    between atoms: C_11  and  C_13
REMARK    4  A    between atoms: N_20  and  C_21
REMARK    5  A    between atoms: C_21  and  C_22
REMARK    6  A    between atoms: C_25  and  O_26
REMARK                            x       y       z     vdW  Elec       q    Type
REMARK                         _______ _______ _______ _____ _____    ______ ____
ROOT
ATOM      5  C   UNL     1      -4.971   2.094  25.125  0.00  0.00    +0.181 C 
ATOM      6  C   UNL     1      -4.682   2.866  25.103  0.00  0.00    +0.078 C 
ATOM      7  C   UNL     1      -3.888   3.005  24.927  0.00  0.00    +0.076 A 
ATOM      8  C   UNL     1      -3.383   2.372  24.773  0.00  0.00    +0.072 A 
ATOM      9  C   UNL     1      -3.671   1.599  24.795  0.00  0.00    +0.139 C 
ATOM     10  N   UNL     1      -4.465   1.460  24.971  0.00  0.00    -0.262 N 
ATOM     11  C   UNL     1      -4.753   0.687  24.993  0.00  0.00    +0.250 C 
ATOM     12  O   UNL     1      -5.547   0.548  25.169  0.00  0.00    -0.270 OA
ATOM     20  N   UNL     1      -2.633   2.677  24.617  0.00  0.00    -0.307 N 
ATOM     30  C   UNL     1      -2.674   3.498  24.674  0.00  0.00    +0.178 A 
ATOM     31  N   UNL     1      -3.450   3.701  24.866  0.00  0.00    -0.229 NA
ENDROOT
BRANCH  11  13
ATOM     13  C   UNL     1      -4.247   0.054  24.839  0.00  0.00    +0.054 A 
ATOM     14  C   UNL     1      -3.877  -0.339  25.462  0.00  0.00    +0.007 A 
ATOM     15  C   UNL     1      -3.372  -0.973  25.308  0.00  0.00    +0.030 A 
ATOM     16  C   UNL     1      -3.236  -1.213  24.531  0.00  0.00    +0.140 A 
ATOM     17  F   UNL     1      -2.730  -1.847  24.377  0.00  0.00    -0.204 F 
ATOM     18  C   UNL     1      -3.606  -0.819  23.907  0.00  0.00    +0.030 A 
ATOM     19  C   UNL     1      -4.112  -0.186  24.061  0.00  0.00    +0.007 A 
ENDBRANCH  11  13
BRANCH   5   3
ATOM      3  C   UNL     1      -5.764   1.954  25.301  0.00  0.00    +0.336 C 
ATOM      4  O   UNL     1      -6.319   1.900  24.692  0.00  0.00    -0.248 OA
BRANCH   3   2
ATOM      1  C   UNL     1      -6.786   2.023  26.297  0.00  0.00    +0.256 C 
ATOM      2  O   UNL     1      -6.003   1.869  26.086  0.00  0.00    -0.443 OA
ENDBRANCH   3   2
ENDBRANCH   5   3
BRANCH  20  21
ATOM     21  C   UNL     1      -1.958   2.237  24.435  0.00  0.00    +0.134 C 
BRANCH  21  22
ATOM     22  C   UNL     1      -1.276   2.321  24.891  0.00  0.00    +0.001 A 
ATOM     23  C   UNL     1      -0.739   2.925  24.722  0.00  0.00    +0.001 A 
ATOM     24  C   UNL     1      -0.056   3.009  25.178  0.00  0.00    +0.037 A 
ATOM     25  C   UNL     1       0.090   2.489  25.802  0.00  0.00    +0.139 A 
ATOM     28  C   UNL     1      -0.446   1.886  25.970  0.00  0.00    +0.037 A 
ATOM     29  C   UNL     1      -1.129   1.801  25.515  0.00  0.00    +0.001 A 
BRANCH  25  26
ATOM     26  O   UNL     1       0.772   2.573  26.257  0.00  0.00    -0.471 OA
ATOM     27  C   UNL     1       0.721   2.576  27.081  0.00  0.00    +0.252 C 
ENDBRANCH  25  26
ENDBRANCH  21  22
ENDBRANCH  20  21
TORSDOF 6
ENDMDL
MODEL 7
REMARK VINA RESULT:     -10.2      2.317      3.837
REMARK  Name = 
REMARK  6 active torsions:
REMARK  status: ('A' for Active; 'I' for Inactive)
REMARK    1  A    between atoms: O_2  and  C_3
REMARK    2  A    between atoms: C_3  and  C_5
REMARK    3  A    between atoms: C_11  and  C_13
REMARK    4  A    between atoms: N_20  and  C_21
REMARK    5  A    between atoms: C_21  and  C_22
REMARK    6  A    between atoms: C_25  and  O_26
REMARK                            x       y       z     vdW  Elec       q    Type
REMARK                         _______ _______ _______ _____ _____    ______ ____
ROOT
ATOM      5  C   UNL     1      -1.077   0.846  24.113  0.00  0.00    +0.181 C 
ATOM      6  C   UNL     1      -1.725   0.372  23.924  0.00  0.00    +0.078 C 
ATOM      7  C   UNL     1      -2.484   0.696  23.915  0.00  0.00    +0.076 A 
ATOM      8  C   UNL     1      -2.594   1.493  24.096  0.00  0.00    +0.072 A 
ATOM      9  C   UNL     1      -1.945   1.967  24.285  0.00  0.00    +0.139 C 
ATOM     10  N   UNL     1      -1.187   1.643  24.293  0.00  0.00    -0.262 N 
ATOM     11  C   UNL     1      -0.539   2.117  24.483  0.00  0.00    +0.250 C 
ATOM     12  O   UNL     1       0.220   1.793  24.491  0.00  0.00    -0.270 OA
ATOM     20  N   UNL     1      -3.401   1.658  24.043  0.00  0.00    -0.307 N 
ATOM     30  C   UNL     1      -3.789   0.962  23.830  0.00  0.00    +0.178 A 
ATOM     31  N   UNL     1      -3.222   0.368  23.751  0.00  0.00    -0.229 NA
ENDROOT
BRANCH  11  13
ATOM     13  C   UNL     1      -0.649   2.915  24.663  0.00  0.00    +0.054 A 
ATOM     14  C   UNL     1      -0.782   3.146  25.443  0.00  0.00    +0.007 A 
ATOM     15  C   UNL     1      -0.892   3.943  25.624  0.00  0.00    +0.030 A 
ATOM     16  C   UNL     1      -0.870   4.509  25.024  0.00  0.00    +0.140 A 
ATOM     17  F   UNL     1      -0.980   5.307  25.204  0.00  0.00    -0.204 F 
ATOM     18  C   UNL     1      -0.737   4.277  24.243  0.00  0.00    +0.030 A 
ATOM     19  C   UNL     1      -0.627   3.480  24.062  0.00  0.00    +0.007 A 
ENDBRANCH  11  13
BRANCH   5   3
ATOM      3  C   UNL     1      -0.319   0.522  24.122  0.00  0.00    +0.336 C 
ATOM      4  O   UNL     1      -0.002   0.231  24.826  0.00  0.00    -0.248 OA
BRANCH   3   2
ATOM      1  C   UNL     1       0.719  -0.075  23.341  0.00  0.00    +0.256 C 
ATOM      2  O   UNL     1       0.124   0.490  23.426  0.00  0.00    -0.443 OA
ENDBRANCH   3   2
ENDBRANCH   5   3
BRANCH  20  21
ATOM     21  C   UNL     1      -3.757   2.390  24.179  0.00  0.00    +0.134 C 
BRANCH  21  22
ATOM     22  C   UNL     1      -4.385   2.450  24.711  0.00  0.00    +0.001 A 
ATOM     23  C   UNL     1      -5.111   2.102  24.532  0.00  0.00    +0.001 A 
ATOM     24  C   UNL     1      -5.740   2.163  25.063  0.00  0.00    +0.037 A 
ATOM     25  C   UNL     1      -5.641   2.571  25.773  0.00  0.00    +0.139 A 
ATOM     28  C   UNL     1      -4.915   2.919  25.952  0.00  0.00    +0.037 A 
ATOM     29  C   UNL     1      -4.287   2.858  25.421  0.00  0.00    +0.001 A 
BRANCH  25  26
ATOM     26  O   UNL     1      -6.269   2.632  26.304  0.00  0.00    -0.471 OA
ATOM     27  C   UNL     1      -6.540   1.961  26.702  0.00  0.00    +0.252 C 
ENDBRANCH  25  26
ENDBRANCH  21  22
ENDBRANCH  20  21
TORSDOF 6
ENDMDL
