MODEL 1
REMARK VINA RESULT:     -11.0      0.000      0.000
REMARK  Name = 
REMARK  7 active torsions:
REMARK  status: ('A' for Active; 'I' for Inactive)
REMARK    1  A    between atoms: O_2  and  C_3
REMARK    2  A    between atoms: C_3  and  C_4
REMARK    3  A    between atoms: C_6  and  C_7
REMARK    4  A    between atoms: C_7  and  C_8
REMARK    5  A    between atoms: C_8  and  N_12
REMARK    6  A    between atoms: N_12  and  C_13
REMARK    7  A    between atoms: C_13  and  C_14
REMARK                            x       y       z     vdW  Elec       q    Type
REMARK                         _______ _______ _______ _____ _____    ______ ____
ROOT
ATOM      8  C   UNL     1      -4.718   2.141  24.897  0.00  0.00    +0.120 C 
ATOM      9  C   UNL     1      -5.406   1.881  25.271  0.00  0.00    +0.161 C 
ATOM     10  O   UNL     1      -5.757   2.615  25.135  0.00  0.00    -0.351 OA
ATOM     11  C   UNL     1      -5.070   2.875  24.761  0.00  0.00    +0.161 C 
ENDROOT
BRANCH   8   7
ATOM      7  C   UNL     1      -4.031   2.401  24.523  0.00  0.00    +0.070 C 
BRANCH   7   6
ATOM      4  C   UNL     1      -2.449   3.655  25.217  0.00  0.00    +0.184 A 
ATOM      5  C   UNL     1      -2.762   3.130  24.663  0.00  0.00    +0.056 A 
ATOM      6  C   UNL     1      -3.519   2.917  24.913  0.00  0.00    +0.102 A 
ATOM     24  N   UNL     1      -3.673   3.310  25.622  0.00  0.00    -0.082 NA
ATOM     25  O   UNL     1      -3.013   3.766  25.809  0.00  0.00    -0.356 OA
BRANCH   4   3
ATOM      3  C   UNL     1      -1.704   4.008  25.185  0.00  0.00    +0.209 C 
BRANCH   3   2
ATOM      1  C   UNL     1      -0.907   5.172  24.960  0.00  0.00    +0.175 C 
ATOM      2  O   UNL     1      -1.638   4.829  25.128  0.00  0.00    -0.343 OA
ENDBRANCH   3   2
ENDBRANCH   4   3
ENDBRANCH   7   6
ENDBRANCH   8   7
BRANCH   8  12
ATOM     12  N   UNL     1      -4.367   1.407  25.033  0.00  0.00    -0.211 NA
BRANCH  12  13
ATOM     13  C   UNL     1      -4.770   0.714  24.838  0.00  0.00    +0.117 C 
BRANCH  13  14
ATOM     14  C   UNL     1      -4.399  -0.017  24.925  0.00  0.00    +0.014 A 
ATOM     15  C   UNL     1      -4.463  -0.586  24.331  0.00  0.00    +0.000 A 
ATOM     16  C   UNL     1      -4.092  -1.318  24.417  0.00  0.00    +0.017 A 
ATOM     17  C   UNL     1      -3.655  -1.481  25.099  0.00  0.00    +0.081 A 
ATOM     18  C   UNL     1      -3.284  -2.212  25.186  0.00  0.00    +0.019 A 
ATOM     19  C   UNL     1      -3.348  -2.780  24.593  0.00  0.00    +0.002 A 
ATOM     20  C   UNL     1      -3.785  -2.617  23.910  0.00  0.00    +0.000 A 
ATOM     21  C   UNL     1      -4.156  -1.887  23.824  0.00  0.00    +0.001 A 
ATOM     22  N   UNL     1      -3.591  -0.912  25.693  0.00  0.00    -0.244 NA
ATOM     23  C   UNL     1      -3.963  -0.180  25.607  0.00  0.00    +0.096 A 
ENDBRANCH  13  14
ENDBRANCH  12  13
ENDBRANCH   8  12
TORSDOF 7
ENDMDL
MODEL 2
REMARK VINA RESULT:      -9.8      2.504      4.538
REMARK  Name = 
REMARK  7 active torsions:
REMARK  status: ('A' for Active; 'I' for Inactive)
REMARK    1  A    between atoms: O_2  and  C_3
REMARK    2  A    between atoms: C_3  and  C_4
REMARK    3  A    between atoms: C_6  and  C_7
REMARK    4  A    between atoms: C_7  and  C_8
REMARK    5  A    between atoms: C_8  and  N_12
REMARK    6  A    between atoms: N_12  and  C_13
REMARK    7  A    between atoms: C_13  and  C_14
REMARK                            x       y       z     vdW  Elec       q    Type
REMARK                         _______ _______ _______ _____ _____    ______ ____
ROOT
ATOM      8  C   UNL     1      -3.669  -1.386  24.539  0.00  0.00    +0.120 C 
ATOM      9  C   UNL     1      -4.259  -1.410  23.962  0.00  0.00    +0.161 C 
ATOM     10  O   UNL     1      -4.241  -2.234  23.979  0.00  0.00    -0.351 OA
ATOM     11  C   UNL     1      -3.652  -2.210  24.555  0.00  0.00    +0.161 C 
ENDROOT
BRANCH   8   7
ATOM      7  C   UNL     1      -3.079  -1.362  25.115  0.00  0.00    +0.070 C 
BRANCH   7   6
ATOM      4  C   UNL     1      -1.006  -1.313  24.611  0.00  0.00    +0.184 A 
ATOM      5  C   UNL     1      -1.704  -0.930  24.825  0.00  0.00    +0.056 A 
ATOM      6  C   UNL     1      -2.293  -1.502  24.906  0.00  0.00    +0.102 A 
ATOM     24  N   UNL     1      -1.959  -2.238  24.743  0.00  0.00    -0.082 NA
ATOM     25  O   UNL     1      -1.163  -2.121  24.560  0.00  0.00    -0.356 OA
BRANCH   4   3
ATOM      3  C   UNL     1      -0.277  -0.951  24.472  0.00  0.00    +0.209 C 
BRANCH   3   2
ATOM      1  C   UNL     1       0.609  -0.258  23.590  0.00  0.00    +0.175 C 
ATOM      2  O   UNL     1      -0.143  -0.552  23.762  0.00  0.00    -0.343 OA
ENDBRANCH   3   2
ENDBRANCH   4   3
ENDBRANCH   7   6
ENDBRANCH   8   7
BRANCH   8  12
ATOM     12  N   UNL     1      -3.686  -0.561  24.522  0.00  0.00    -0.211 NA
BRANCH  12  13
ATOM     13  C   UNL     1      -4.409  -0.164  24.493  0.00  0.00    +0.117 C 
BRANCH  13  14
ATOM     14  C   UNL     1      -4.431   0.657  24.570  0.00  0.00    +0.014 A 
ATOM     15  C   UNL     1      -4.949   1.007  25.108  0.00  0.00    +0.000 A 
ATOM     16  C   UNL     1      -4.972   1.829  25.185  0.00  0.00    +0.017 A 
ATOM     17  C   UNL     1      -4.476   2.300  24.722  0.00  0.00    +0.081 A 
ATOM     18  C   UNL     1      -4.499   3.121  24.799  0.00  0.00    +0.019 A 
ATOM     19  C   UNL     1      -5.016   3.471  25.337  0.00  0.00    +0.002 A 
ATOM     20  C   UNL     1      -5.512   2.999  25.799  0.00  0.00    +0.000 A 
ATOM     21  C   UNL     1      -5.490   2.179  25.723  0.00  0.00    +0.001 A 
ATOM     22  N   UNL     1      -3.958   1.949  24.184  0.00  0.00    -0.244 NA
ATOM     23  C   UNL     1      -3.935   1.128  24.107  0.00  0.00    +0.096 A 
ENDBRANCH  13  14
ENDBRANCH  12  13
ENDBRANCH   8  12
TORSDOF 7
ENDMDL
MODEL 3
REMARK VINA RESULT:      -9.5      1.562      5.043
REMARK  Name = 
REMARK  7 active torsions:
REMARK  status: ('A' for Active; 'I' for Inactive)
REMARK    1  A    between atoms: O_2  and  C_3
REMARK    2  A    between atoms: C_3  and  C_4
REMARK    3  A    between atoms: C_6  and  C_7
REMARK    4  A    between atoms: C_7  and  C_8
REMARK    5  A    between atoms: C_8  and  N_12
REMARK    6  A    between atoms: N_12  and  C_13
REMARK    7  A    between atoms: C_13  and  C_14
REMARK                            x       y       z     vdW  Elec       q    Type
REMARK                         _______ _______ _______ _____ _____    ______ ____
ROOT
ATOM      8  C   UNL     1      -4.530   1.650  24.893  0.00  0.00    +0.120 C 
ATOM      9  C   UNL     1      -4.867   2.345  24.603  0.00  0.00    +0.161 C 
ATOM     10  O   UNL     1      -5.616   2.007  24.663  0.00  0.00    -0.351 OA
ATOM     11  C   UNL     1      -5.280   1.312  24.953  0.00  0.00    +0.161 C 
ENDROOT
BRANCH   8   7
ATOM      7  C   UNL     1      -4.193   0.955  25.182  0.00  0.00    +0.070 C 
BRANCH   7   6
ATOM      4  C   UNL     1      -4.062  -0.965  24.260  0.00  0.00    +0.184 A 
ATOM      5  C   UNL     1      -4.166  -0.493  24.928  0.00  0.00    +0.056 A 
ATOM      6  C   UNL     1      -4.120   0.296  24.691  0.00  0.00    +0.102 A 
ATOM     24  N   UNL     1      -3.987   0.311  23.877  0.00  0.00    -0.082 NA
ATOM     25  O   UNL     1      -3.952  -0.468  23.611  0.00  0.00    -0.356 OA
BRANCH   4   3
ATOM      3  C   UNL     1      -4.067  -1.791  24.244  0.00  0.00    +0.209 C 
BRANCH   3   2
ATOM      1  C   UNL     1      -3.412  -3.035  24.495  0.00  0.00    +0.175 C 
ATOM      2  O   UNL     1      -3.388  -2.212  24.451  0.00  0.00    -0.343 OA
ENDBRANCH   3   2
ENDBRANCH   4   3
ENDBRANCH   7   6
ENDBRANCH   8   7
BRANCH   8  12
ATOM     12  N   UNL     1      -3.780   1.988  24.832  0.00  0.00    -0.211 NA
BRANCH  12  13
ATOM     13  C   UNL     1      -3.566   2.610  25.331  0.00  0.00    +0.117 C 
BRANCH  13  14
ATOM     14  C   UNL     1      -2.842   2.990  25.228  0.00  0.00    +0.014 A 
ATOM     15  C   UNL     1      -2.801   3.814  25.241  0.00  0.00    +0.000 A 
ATOM     16  C   UNL     1      -2.076   4.194  25.138  0.00  0.00    +0.017 A 
ATOM     17  C   UNL     1      -1.390   3.750  25.023  0.00  0.00    +0.081 A 
ATOM     18  C   UNL     1      -0.665   4.129  24.921  0.00  0.00    +0.019 A 
ATOM     19  C   UNL     1      -0.626   4.953  24.933  0.00  0.00    +0.002 A 
ATOM     20  C   UNL     1      -1.312   5.397  25.048  0.00  0.00    +0.000 A 
ATOM     21  C   UNL     1      -2.037   5.018  25.151  0.00  0.00    +0.001 A 
ATOM     22  N   UNL     1      -1.430   2.926  25.011  0.00  0.00    -0.244 NA
ATOM     23  C   UNL     1      -2.155   2.545  25.113  0.00  0.00    +0.096 A 
ENDBRANCH  13  14
ENDBRANCH  12  13
ENDBRANCH   8  12
TORSDOF 7
ENDMDL
MODEL 4
REMARK VINA RESULT:      -9.4      1.874      2.995
REMARK  Name = 
REMARK  7 active torsions:
REMARK  status: ('A' for Active; 'I' for Inactive)
REMARK    1  A    between atoms: O_2  and  C_3
REMARK    2  A    between atoms: C_3  and  C_4
REMARK    3  A    between atoms: C_6  and  C_7
REMARK    4  A    between atoms: C_7  and  C_8
REMARK    5  A    between atoms: C_8  and  N_12
REMARK    6  A    between atoms: N_12  and  C_13
REMARK    7  A    between atoms: C_13  and  C_14
REMARK                            x       y       z     vdW  Elec       q    Type
REMARK                         _______ _______ _______ _____ _____    ______ ____
ROOT
ATOM      8  C   UNL     1      -0.900   2.049  25.481  0.00  0.00    +0.120 C 
ATOM      9  C   UNL     1      -0.413   1.677  26.035  0.00  0.00    +0.161 C 
ATOM     10  O   UNL     1       0.008   2.378  26.136  0.00  0.00    -0.351 OA
ATOM     11  C   UNL     1      -0.477   2.750  25.583  0.00  0.00    +0.161 C 
ENDROOT
BRANCH   8   7
ATOM      7  C   UNL     1      -1.385   2.421  24.928  0.00  0.00    +0.070 C 
BRANCH   7   6
ATOM      4  C   UNL     1      -3.229   3.433  25.290  0.00  0.00    +0.184 A 
ATOM      5  C   UNL     1      -2.781   2.878  24.876  0.00  0.00    +0.056 A 
ATOM      6  C   UNL     1      -2.015   2.890  25.181  0.00  0.00    +0.102 A 
ATOM     24  N   UNL     1      -1.989   3.452  25.784  0.00  0.00    -0.082 NA
ATOM     25  O   UNL     1      -2.739   3.787  25.851  0.00  0.00    -0.356 OA
BRANCH   4   3
ATOM      3  C   UNL     1      -4.027   3.603  25.165  0.00  0.00    +0.209 C 
BRANCH   3   2
ATOM      1  C   UNL     1      -5.391   3.477  25.570  0.00  0.00    +0.175 C 
ATOM      2  O   UNL     1      -4.587   3.398  25.736  0.00  0.00    -0.343 OA
ENDBRANCH   3   2
ENDBRANCH   4   3
ENDBRANCH   7   6
ENDBRANCH   8   7
BRANCH   8  12
ATOM     12  N   UNL     1      -1.321   1.347  25.380  0.00  0.00    -0.211 NA
BRANCH  12  13
ATOM     13  C   UNL     1      -0.939   0.621  25.460  0.00  0.00    +0.117 C 
BRANCH  13  14
ATOM     14  C   UNL     1      -1.318  -0.072  25.223  0.00  0.00    +0.014 A 
ATOM     15  C   UNL     1      -2.020  -0.305  25.589  0.00  0.00    +0.000 A 
ATOM     16  C   UNL     1      -2.400  -0.999  25.353  0.00  0.00    +0.017 A 
ATOM     17  C   UNL     1      -2.077  -1.460  24.749  0.00  0.00    +0.081 A 
ATOM     18  C   UNL     1      -2.456  -2.153  24.512  0.00  0.00    +0.019 A 
ATOM     19  C   UNL     1      -3.157  -2.385  24.878  0.00  0.00    +0.002 A 
ATOM     20  C   UNL     1      -3.480  -1.924  25.482  0.00  0.00    +0.000 A 
ATOM     21  C   UNL     1      -3.101  -1.231  25.719  0.00  0.00    +0.001 A 
ATOM     22  N   UNL     1      -1.375  -1.227  24.383  0.00  0.00    -0.244 NA
ATOM     23  C   UNL     1      -0.995  -0.534  24.619  0.00  0.00    +0.096 A 
ENDBRANCH  13  14
ENDBRANCH  12  13
ENDBRANCH   8  12
TORSDOF 7
ENDMDL
MODEL 5
REMARK VINA RESULT:      -9.2      2.390      4.650
REMARK  Name = 
REMARK  7 active torsions:
REMARK  status: ('A' for Active; 'I' for Inactive)
REMARK    1  A    between atoms: O_2  and  C_3
REMARK    2  A    between atoms: C_3  and  C_4
REMARK    3  A    between atoms: C_6  and  C_7
REMARK    4  A    between atoms: C_7  and  C_8
REMARK    5  A    between atoms: C_8  and  N_12
REMARK    6  A    between atoms: N_12  and  C_13
REMARK    7  A    between atoms: C_13  and  C_14
REMARK                            x       y       z     vdW  Elec       q    Type
REMARK                         _______ _______ _______ _____ _____    ______ ____
ROOT
ATOM      8  C   UNL     1      -0.911   2.316  24.800  0.00  0.00    +0.120 C 
ATOM      9  C   UNL     1      -0.972   2.941  24.264  0.00  0.00    +0.161 C 
ATOM     10  O   UNL     1      -0.150   2.957  24.191  0.00  0.00    -0.351 OA
ATOM     11  C   UNL     1      -0.089   2.333  24.726  0.00  0.00    +0.161 C 
ENDROOT
BRANCH   8   7
ATOM      7  C   UNL     1      -0.850   1.692  25.336  0.00  0.00    +0.070 C 
BRANCH   7   6
ATOM      4  C   UNL     1      -0.824  -0.404  24.933  0.00  0.00    +0.184 A 
ATOM      5  C   UNL     1      -1.082   0.241  25.378  0.00  0.00    +0.056 A 
ATOM      6  C   UNL     1      -0.741   0.922  25.060  0.00  0.00    +0.102 A 
ATOM     24  N   UNL     1      -0.272   0.698  24.420  0.00  0.00    -0.082 NA
ATOM     25  O   UNL     1      -0.323  -0.121  24.342  0.00  0.00    -0.356 OA
BRANCH   4   3
ATOM      3  C   UNL     1      -1.030  -1.193  25.058  0.00  0.00    +0.209 C 
BRANCH   3   2
ATOM      1  C   UNL     1      -1.752  -2.360  24.661  0.00  0.00    +0.175 C 
ATOM      2  O   UNL     1      -1.510  -1.586  24.514  0.00  0.00    -0.343 OA
ENDBRANCH   3   2
ENDBRANCH   4   3
ENDBRANCH   7   6
ENDBRANCH   8   7
BRANCH   8  12
ATOM     12  N   UNL     1      -1.732   2.300  24.874  0.00  0.00    -0.211 NA
BRANCH  12  13
ATOM     13  C   UNL     1      -2.167   2.998  24.809  0.00  0.00    +0.117 C 
BRANCH  13  14
ATOM     14  C   UNL     1      -2.958   3.014  25.039  0.00  0.00    +0.014 A 
ATOM     15  C   UNL     1      -3.498   2.490  24.701  0.00  0.00    +0.000 A 
ATOM     16  C   UNL     1      -4.290   2.506  24.932  0.00  0.00    +0.017 A 
ATOM     17  C   UNL     1      -4.543   3.047  25.502  0.00  0.00    +0.081 A 
ATOM     18  C   UNL     1      -5.334   3.063  25.732  0.00  0.00    +0.019 A 
ATOM     19  C   UNL     1      -5.873   2.539  25.395  0.00  0.00    +0.002 A 
ATOM     20  C   UNL     1      -5.620   1.997  24.825  0.00  0.00    +0.000 A 
ATOM     21  C   UNL     1      -4.829   1.981  24.594  0.00  0.00    +0.001 A 
ATOM     22  N   UNL     1      -4.003   3.572  25.840  0.00  0.00    -0.244 NA
ATOM     23  C   UNL     1      -3.211   3.556  25.609  0.00  0.00    +0.096 A 
ENDBRANCH  13  14
ENDBRANCH  12  13
ENDBRANCH   8  12
TORSDOF 7
ENDMDL
