MODEL 1
REMARK VINA RESULT:      -9.0      0.000      0.000
REMARK  Name = 
REMARK  3 active torsions:
REMARK  status: ('A' for Active; 'I' for Inactive)
REMARK    1  A    between atoms: O_2  and  C_3
REMARK    2  A    between atoms: N_8  and  C_9
REMARK    3  A    between atoms: C_9  and  C_10
REMARK                            x       y       z     vdW  Elec       q    Type
REMARK                         _______ _______ _______ _____ _____    ______ ____
ROOT
ATOM      3  C   UNL     1      -3.686   2.232  24.834  0.00  0.00    +0.161 C 
ATOM      4  C   UNL     1      -3.105   2.507  24.316  0.00  0.00    +0.173 C 
ATOM      5  O   UNL     1      -2.772   2.122  23.667  0.00  0.00    -0.350 OA
ATOM      6  C   UNL     1      -2.936   1.368  23.376  0.00  0.00    +0.160 C 
ATOM      7  C   UNL     1      -3.475   0.813  23.662  0.00  0.00    +0.105 C 
ATOM      8  N   UNL     1      -3.982   0.873  24.310  0.00  0.00    -0.265 NA
ATOM     17  C   UNL     1      -4.076   1.506  24.832  0.00  0.00    +0.105 C 
ENDROOT
BRANCH   3   2
ATOM      1  C   UNL     1      -4.159   3.516  25.247  0.00  0.00    +0.174 C 
ATOM      2  O   UNL     1      -3.905   2.754  25.435  0.00  0.00    -0.350 OA
ENDBRANCH   3   2
BRANCH   8   9
ATOM      9  C   UNL     1      -4.458   0.216  24.454  0.00  0.00    +0.099 C 
BRANCH   9  10
ATOM     10  C   UNL     1      -4.121  -0.485  24.730  0.00  0.00    -0.005 A 
ATOM     11  C   UNL     1      -3.797  -0.516  25.489  0.00  0.00    -0.003 A 
ATOM     12  C   UNL     1      -3.459  -1.217  25.765  0.00  0.00    +0.001 A 
ATOM     13  C   UNL     1      -3.446  -1.886  25.281  0.00  0.00    +0.011 A 
ATOM     14  C   UNL     1      -3.769  -1.855  24.524  0.00  0.00    +0.057 A 
ATOM     15 CL   UNL     1      -3.756  -2.523  24.041  0.00  0.00    -0.082 Cl
ATOM     16  C   UNL     1      -4.107  -1.154  24.248  0.00  0.00    +0.008 A 
ENDBRANCH   9  10
ENDBRANCH   8   9
TORSDOF 3
ENDMDL
MODEL 2
REMARK VINA RESULT:      -9.0      0.971      1.289
REMARK  Name = 
REMARK  3 active torsions:
REMARK  status: ('A' for Active; 'I' for Inactive)
REMARK    1  A    between atoms: O_2  and  C_3
REMARK    2  A    between atoms: N_8  and  C_9
REMARK    3  A    between atoms: C_9  and  C_10
REMARK                            x       y       z     vdW  Elec       q    Type
REMARK                         _______ _______ _______ _____ _____    ______ ____
ROOT
ATOM      3  C   UNL     1      -3.464   1.766  24.224  0.00  0.00    +0.161 C 
ATOM      4  C   UNL     1      -2.675   1.992  24.142  0.00  0.00    +0.173 C 
ATOM      5  O   UNL     1      -1.998   1.596  24.399  0.00  0.00    -0.350 OA
ATOM      6  C   UNL     1      -1.944   0.878  24.801  0.00  0.00    +0.160 C 
ATOM      7  C   UNL     1      -2.552   0.378  25.045  0.00  0.00    +0.105 C 
ATOM      8  N   UNL     1      -3.366   0.471  24.948  0.00  0.00    -0.265 NA
ATOM     17  C   UNL     1      -3.773   1.090  24.582  0.00  0.00    +0.105 C 
ENDROOT
BRANCH   3   2
ATOM      1  C   UNL     1      -3.886   3.099  23.927  0.00  0.00    +0.174 C 
ATOM      2  O   UNL     1      -4.020   2.285  23.905  0.00  0.00    -0.350 OA
ENDBRANCH   3   2
BRANCH   8   9
ATOM      9  C   UNL     1      -3.835  -0.132  25.257  0.00  0.00    +0.099 C 
BRANCH   9  10
ATOM     10  C   UNL     1      -3.871  -0.863  24.876  0.00  0.00    -0.005 A 
ATOM     11  C   UNL     1      -4.288  -0.939  24.168  0.00  0.00    -0.003 A 
ATOM     12  C   UNL     1      -4.324  -1.670  23.787  0.00  0.00    +0.001 A 
ATOM     13  C   UNL     1      -3.943  -2.325  24.114  0.00  0.00    +0.011 A 
ATOM     14  C   UNL     1      -3.526  -2.249  24.821  0.00  0.00    +0.057 A 
ATOM     15 CL   UNL     1      -3.145  -2.903  25.149  0.00  0.00    -0.082 Cl
ATOM     16  C   UNL     1      -3.490  -1.518  25.202  0.00  0.00    +0.008 A 
ENDBRANCH   9  10
ENDBRANCH   8   9
TORSDOF 3
ENDMDL
MODEL 3
REMARK VINA RESULT:      -8.9      1.314      1.775
REMARK  Name = 
REMARK  3 active torsions:
REMARK  status: ('A' for Active; 'I' for Inactive)
REMARK    1  A    between atoms: O_2  and  C_3
REMARK    2  A    between atoms: N_8  and  C_9
REMARK    3  A    between atoms: C_9  and  C_10
REMARK                            x       y       z     vdW  Elec       q    Type
REMARK                         _______ _______ _______ _____ _____    ______ ____
ROOT
ATOM      3  C   UNL     1      -1.826   0.984  24.837  0.00  0.00    +0.161 C 
ATOM      4  C   UNL     1      -1.726   1.507  24.207  0.00  0.00    +0.173 C 
ATOM      5  O   UNL     1      -2.266   1.710  23.618  0.00  0.00    -0.350 OA
ATOM      6  C   UNL     1      -3.039   1.441  23.513  0.00  0.00    +0.160 C 
ATOM      7  C   UNL     1      -3.462   0.902  23.971  0.00  0.00    +0.105 C 
ATOM      8  N   UNL     1      -3.218   0.498  24.648  0.00  0.00    -0.265 NA
ATOM     17  C   UNL     1      -2.489   0.535  25.034  0.00  0.00    +0.105 C 
ENDROOT
BRANCH   3   2
ATOM      1  C   UNL     1      -0.693   1.547  25.504  0.00  0.00    +0.174 C 
ATOM      2  O   UNL     1      -1.175   0.898  25.337  0.00  0.00    -0.350 OA
ENDBRANCH   3   2
BRANCH   8   9
ATOM      9  C   UNL     1      -3.775  -0.008  24.984  0.00  0.00    +0.099 C 
BRANCH   9  10
ATOM     10  C   UNL     1      -3.823  -0.793  24.733  0.00  0.00    -0.005 A 
ATOM     11  C   UNL     1      -4.192  -0.976  24.017  0.00  0.00    -0.003 A 
ATOM     12  C   UNL     1      -4.240  -1.760  23.767  0.00  0.00    +0.001 A 
ATOM     13  C   UNL     1      -3.919  -2.362  24.232  0.00  0.00    +0.011 A 
ATOM     14  C   UNL     1      -3.551  -2.179  24.946  0.00  0.00    +0.057 A 
ATOM     15 CL   UNL     1      -3.230  -2.781  25.411  0.00  0.00    -0.082 Cl
ATOM     16  C   UNL     1      -3.503  -1.395  25.197  0.00  0.00    +0.008 A 
ENDBRANCH   9  10
ENDBRANCH   8   9
TORSDOF 3
ENDMDL
