MODEL 1
REMARK VINA RESULT:     -14.6      0.000      0.000
REMARK  Name = 
REMARK  3 active torsions:
REMARK  status: ('A' for Active; 'I' for Inactive)
REMARK    1  A    between atoms: C_5  and  C_6
REMARK    2  A    between atoms: N_17  and  S_19
REMARK    3  A    between atoms: S_19  and  C_22
REMARK                            x       y       z     vdW  Elec       q    Type
REMARK                         _______ _______ _______ _____ _____    ______ ____
ROOT
ATOM      1  O   UNL     1      -4.413   2.521  24.927  0.00  0.00    -0.267 OA
ATOM      2  C   UNL     1      -4.284   1.707  24.897  0.00  0.00    +0.261 A 
ATOM      3  C   UNL     1      -4.918   1.185  24.973  0.00  0.00    +0.061 A 
ATOM      4  C   UNL     1      -4.788   0.370  24.943  0.00  0.00    +0.006 A 
ATOM      5  C   UNL     1      -4.024   0.078  24.837  0.00  0.00    +0.013 A 
ATOM     12  C   UNL     1      -3.390   0.600  24.761  0.00  0.00    +0.041 A 
ATOM     13  C   UNL     1      -2.479   0.603  24.640  0.00  0.00    +0.056 C 
ATOM     14  C   UNL     1      -1.932   0.169  24.561  0.00  0.00    +0.011 C 
ATOM     15  C   UNL     1      -2.064   0.973  24.591  0.00  0.00    +0.041 C 
ATOM     16  C   UNL     1      -2.020   1.960  24.601  0.00  0.00    +0.098 C 
ATOM     17  N   UNL     1      -2.829   2.135  24.711  0.00  0.00    -0.155 NA
ATOM     18  C   UNL     1      -2.419   1.556  24.647  0.00  0.00    +0.102 C 
ATOM     28  C   UNL     1      -3.016   0.979  24.717  0.00  0.00    +0.110 C 
ATOM     29  N   UNL     1      -3.519   1.414  24.791  0.00  0.00    -0.299 N 
ENDROOT
BRANCH   5   6
ATOM      6  C   UNL     1      -3.894  -0.736  24.807  0.00  0.00    +0.020 A 
ATOM      7  C   UNL     1      -3.996  -1.144  24.097  0.00  0.00    +0.003 A 
ATOM      8  C   UNL     1      -3.866  -1.959  24.067  0.00  0.00    +0.021 A 
ATOM      9  C   UNL     1      -3.634  -2.365  24.747  0.00  0.00    +0.099 A 
ATOM     10  N   UNL     1      -3.532  -1.957  25.456  0.00  0.00    -0.242 NA
ATOM     11  C   UNL     1      -3.662  -1.143  25.486  0.00  0.00    +0.099 A 
ENDBRANCH   5   6
BRANCH  17  19
ATOM     19  S   UNL     1      -3.512   2.588  24.808  0.00  0.00    +0.063 S 
ATOM     20  O   UNL     1      -4.196   3.041  24.906  0.00  0.00    -0.153 OA
ATOM     21  O   UNL     1      -3.971   1.951  24.553  0.00  0.00    -0.153 OA
BRANCH  19  22
ATOM     22  C   UNL     1      -3.054   3.225  25.064  0.00  0.00    +0.122 A 
ATOM     23  C   UNL     1      -2.680   3.711  24.513  0.00  0.00    +0.020 A 
ATOM     24  C   UNL     1      -2.222   4.348  24.768  0.00  0.00    +0.001 A 
ATOM     25  C   UNL     1      -2.137   4.497  25.575  0.00  0.00    +0.000 A 
ATOM     26  C   UNL     1      -2.511   4.010  26.127  0.00  0.00    +0.001 A 
ATOM     27  C   UNL     1      -2.969   3.374  25.871  0.00  0.00    +0.020 A 
ENDBRANCH  19  22
ENDBRANCH  17  19
TORSDOF 3
ENDMDL
MODEL 2
REMARK VINA RESULT:     -14.3      0.956      3.940
REMARK  Name = 
REMARK  3 active torsions:
REMARK  status: ('A' for Active; 'I' for Inactive)
REMARK    1  A    between atoms: C_5  and  C_6
REMARK    2  A    between atoms: N_17  and  S_19
REMARK    3  A    between atoms: S_19  and  C_22
REMARK                            x       y       z     vdW  Elec       q    Type
REMARK                         _______ _______ _______ _____ _____    ______ ____
ROOT
ATOM      1  O   UNL     1      -4.777   0.538  24.785  0.00  0.00    -0.267 OA
ATOM      2  C   UNL     1      -4.321   1.220  24.871  0.00  0.00    +0.261 A 
ATOM      3  C   UNL     1      -4.685   1.940  25.046  0.00  0.00    +0.061 A 
ATOM      4  C   UNL     1      -4.228   2.622  25.132  0.00  0.00    +0.006 A 
ATOM      5  C   UNL     1      -3.409   2.584  25.044  0.00  0.00    +0.013 A 
ATOM     12  C   UNL     1      -3.046   1.865  24.869  0.00  0.00    +0.041 A 
ATOM     13  C   UNL     1      -2.215   1.503  24.718  0.00  0.00    +0.056 C 
ATOM     14  C   UNL     1      -1.536   1.679  24.684  0.00  0.00    +0.011 C 
ATOM     15  C   UNL     1      -1.989   1.007  24.599  0.00  0.00    +0.041 C 
ATOM     16  C   UNL     1      -2.358   0.101  24.461  0.00  0.00    +0.098 C 
ATOM     17  N   UNL     1      -3.170   0.262  24.572  0.00  0.00    -0.155 NA
ATOM     18  C   UNL     1      -2.556   0.622  24.581  0.00  0.00    +0.102 C 
ATOM     28  C   UNL     1      -2.862   1.376  24.757  0.00  0.00    +0.110 C 
ATOM     29  N   UNL     1      -3.502   1.183  24.783  0.00  0.00    -0.299 N 
ENDROOT
BRANCH   5   6
ATOM      6  C   UNL     1      -2.953   3.266  25.131  0.00  0.00    +0.020 A 
ATOM      7  C   UNL     1      -2.662   3.477  25.873  0.00  0.00    +0.003 A 
ATOM      8  C   UNL     1      -2.206   4.159  25.960  0.00  0.00    +0.021 A 
ATOM      9  C   UNL     1      -2.041   4.631  25.304  0.00  0.00    +0.099 A 
ATOM     10  N   UNL     1      -2.331   4.420  24.561  0.00  0.00    -0.242 NA
ATOM     11  C   UNL     1      -2.787   3.738  24.474  0.00  0.00    +0.099 A 
ENDBRANCH   5   6
BRANCH  17  19
ATOM     19  S   UNL     1      -3.982   0.123  24.626  0.00  0.00    +0.063 S 
ATOM     20  O   UNL     1      -4.794  -0.016  24.679  0.00  0.00    -0.153 OA
ATOM     21  O   UNL     1      -4.126   0.931  24.539  0.00  0.00    -0.153 OA
BRANCH  19  22
ATOM     22  C   UNL     1      -3.838  -0.685  24.713  0.00  0.00    +0.122 A 
ATOM     23  C   UNL     1      -3.701  -1.001  25.463  0.00  0.00    +0.020 A 
ATOM     24  C   UNL     1      -3.557  -1.809  25.550  0.00  0.00    +0.001 A 
ATOM     25  C   UNL     1      -3.550  -2.300  24.887  0.00  0.00    +0.000 A 
ATOM     26  C   UNL     1      -3.688  -1.984  24.137  0.00  0.00    +0.001 A 
ATOM     27  C   UNL     1      -3.831  -1.176  24.051  0.00  0.00    +0.020 A 
ENDBRANCH  19  22
ENDBRANCH  17  19
TORSDOF 3
ENDMDL
MODEL 3
REMARK VINA RESULT:     -14.1      1.375      4.258
REMARK  Name = 
REMARK  3 active torsions:
REMARK  status: ('A' for Active; 'I' for Inactive)
REMARK    1  A    between atoms: C_5  and  C_6
REMARK    2  A    between atoms: N_17  and  S_19
REMARK    3  A    between atoms: S_19  and  C_22
REMARK                            x       y       z     vdW  Elec       q    Type
REMARK                         _______ _______ _______ _____ _____    ______ ____
ROOT
ATOM      1  O   UNL     1      -2.076  -0.246  24.274  0.00  0.00    -0.267 OA
ATOM      2  C   UNL     1      -2.392   0.507  24.395  0.00  0.00    +0.261 A 
ATOM      3  C   UNL     1      -1.905   1.171  24.348  0.00  0.00    +0.061 A 
ATOM      4  C   UNL     1      -2.221   1.923  24.469  0.00  0.00    +0.006 A 
ATOM      5  C   UNL     1      -3.023   2.012  24.638  0.00  0.00    +0.013 A 
ATOM     12  C   UNL     1      -3.510   1.348  24.685  0.00  0.00    +0.041 A 
ATOM     13  C   UNL     1      -4.385   1.114  24.844  0.00  0.00    +0.056 C 
ATOM     14  C   UNL     1      -5.011   1.394  24.992  0.00  0.00    +0.011 C 
ATOM     15  C   UNL     1      -4.696   0.653  24.872  0.00  0.00    +0.041 C 
ATOM     16  C   UNL     1      -4.507  -0.311  24.760  0.00  0.00    +0.098 C 
ATOM     17  N   UNL     1      -3.688  -0.275  24.597  0.00  0.00    -0.155 NA
ATOM     18  C   UNL     1      -4.218   0.180  24.739  0.00  0.00    +0.102 C 
ATOM     28  C   UNL     1      -3.780   0.887  24.705  0.00  0.00    +0.110 C 
ATOM     29  N   UNL     1      -3.194   0.595  24.564  0.00  0.00    -0.299 N 
ENDROOT
BRANCH   5   6
ATOM      6  C   UNL     1      -3.339   2.765  24.759  0.00  0.00    +0.020 A 
ATOM      7  C   UNL     1      -3.339   3.095  25.515  0.00  0.00    +0.003 A 
ATOM      8  C   UNL     1      -3.655   3.847  25.637  0.00  0.00    +0.021 A 
ATOM      9  C   UNL     1      -3.970   4.270  25.002  0.00  0.00    +0.099 A 
ATOM     10  N   UNL     1      -3.970   3.940  24.247  0.00  0.00    -0.242 NA
ATOM     11  C   UNL     1      -3.654   3.187  24.125  0.00  0.00    +0.099 A 
ENDBRANCH   5   6
BRANCH  17  19
ATOM     19  S   UNL     1      -2.926  -0.539  24.423  0.00  0.00    +0.063 S 
ATOM     20  O   UNL     1      -2.164  -0.803  24.248  0.00  0.00    -0.153 OA
ATOM     21  O   UNL     1      -2.703   0.232  24.230  0.00  0.00    -0.153 OA
BRANCH  19  22
ATOM     22  C   UNL     1      -3.149  -1.310  24.615  0.00  0.00    +0.122 A 
ATOM     23  C   UNL     1      -3.000  -1.606  25.370  0.00  0.00    +0.020 A 
ATOM     24  C   UNL     1      -3.223  -2.377  25.562  0.00  0.00    +0.001 A 
ATOM     25  C   UNL     1      -3.595  -2.851  24.999  0.00  0.00    +0.000 A 
ATOM     26  C   UNL     1      -3.744  -2.554  24.243  0.00  0.00    +0.001 A 
ATOM     27  C   UNL     1      -3.521  -1.784  24.052  0.00  0.00    +0.020 A 
ENDBRANCH  19  22
ENDBRANCH  17  19
TORSDOF 3
ENDMDL
