MODEL 1
REMARK VINA RESULT:     -11.6      0.000      0.000
REMARK  Name = 
REMARK  8 active torsions:
REMARK  status: ('A' for Active; 'I' for Inactive)
REMARK    1  A    between atoms: O_2  and  C_3
REMARK    2  A    between atoms: C_6  and  C_7
REMARK    3  A    between atoms: C_7  and  C_8
REMARK    4  A    between atoms: C_13  and  C_14
REMARK    5  A    between atoms: C_14  and  C_15
REMARK    6  A    between atoms: C_18  and  C_19
REMARK    7  A    between atoms: C_19  and  C_20
REMARK    8  A    between atoms: C_20  and  N_21
REMARK                            x       y       z     vdW  Elec       q    Type
REMARK                         _______ _______ _______ _____ _____    ______ ____
ROOT
ATOM      8  C   UNL     1      -3.825   0.583  24.590  0.00  0.00    +0.230 C 
ATOM      9  O   UNL     1      -3.045   0.438  24.364  0.00  0.00    -0.275 OA
ATOM     10  N   UNL     1      -4.060   1.346  24.795  0.00  0.00    -0.279 N 
ATOM     11  C   UNL     1      -4.841   1.491  25.021  0.00  0.00    +0.093 C 
ATOM     12  C   UNL     1      -5.076   2.254  25.227  0.00  0.00    +0.022 C 
ATOM     13  C   UNL     1      -4.530   2.873  25.206  0.00  0.00    +0.015 C 
ATOM     18  C   UNL     1      -3.751   2.729  24.980  0.00  0.00    +0.022 C 
ATOM     27  C   UNL     1      -3.516   1.965  24.774  0.00  0.00    +0.093 C 
ENDROOT
BRANCH   8   7
ATOM      7  C   UNL     1      -4.370  -0.037  24.611  0.00  0.00    +0.112 C 
BRANCH   7   6
ATOM      3  C   UNL     1      -3.580  -2.382  24.581  0.00  0.00    +0.139 A 
ATOM      4  C   UNL     1      -3.481  -1.922  25.258  0.00  0.00    +0.037 A 
ATOM      5  C   UNL     1      -3.745  -1.140  25.268  0.00  0.00    -0.001 A 
ATOM      6  C   UNL     1      -4.107  -0.818  24.601  0.00  0.00    -0.013 A 
ATOM     28  C   UNL     1      -4.206  -1.278  23.923  0.00  0.00    -0.001 A 
ATOM     29  C   UNL     1      -3.942  -2.061  23.913  0.00  0.00    +0.037 A 
BRANCH   3   2
ATOM      1  C   UNL     1      -2.543  -3.336  24.342  0.00  0.00    +0.252 C 
ATOM      2  O   UNL     1      -3.317  -3.164  24.571  0.00  0.00    -0.471 OA
ENDBRANCH   3   2
ENDBRANCH   7   6
ENDBRANCH   8   7
BRANCH  13  14
ATOM     14  C   UNL     1      -4.766   3.637  25.411  0.00  0.00    +0.114 C 
BRANCH  14  15
ATOM     15  C   UNL     1      -5.508   3.763  25.749  0.00  0.00    +0.365 C 
ATOM     16  O   UNL     1      -5.685   3.443  26.488  0.00  0.00    -0.246 OA
ATOM     17  O   UNL     1      -6.074   4.210  25.347  0.00  0.00    -0.246 OA
ENDBRANCH  14  15
ENDBRANCH  13  14
BRANCH  18  19
ATOM     19  C   UNL     1      -3.205   3.348  24.959  0.00  0.00    +0.019 C 
BRANCH  19  20
ATOM     20  C   UNL     1      -2.442   3.234  25.250  0.00  0.00    +0.072 C 
BRANCH  20  21
ATOM     21  N   UNL     1      -1.857   3.798  25.107  0.00  0.00    -0.273 NA
ATOM     22  C   UNL     1      -1.978   4.584  25.327  0.00  0.00    +0.072 C 
ATOM     23  C   UNL     1      -1.393   5.146  25.184  0.00  0.00    +0.017 C 
ATOM     24  C   UNL     1      -0.686   4.925  24.821  0.00  0.00    +0.003 C 
ATOM     25  C   UNL     1      -0.565   4.139  24.601  0.00  0.00    +0.017 C 
ATOM     26  C   UNL     1      -1.151   3.575  24.744  0.00  0.00    +0.072 C 
ENDBRANCH  20  21
ENDBRANCH  19  20
ENDBRANCH  18  19
TORSDOF 8
ENDMDL
MODEL 2
REMARK VINA RESULT:      -9.6      1.493      5.173
REMARK  Name = 
REMARK  8 active torsions:
REMARK  status: ('A' for Active; 'I' for Inactive)
REMARK    1  A    between atoms: O_2  and  C_3
REMARK    2  A    between atoms: C_6  and  C_7
REMARK    3  A    between atoms: C_7  and  C_8
REMARK    4  A    between atoms: C_13  and  C_14
REMARK    5  A    between atoms: C_14  and  C_15
REMARK    6  A    between atoms: C_18  and  C_19
REMARK    7  A    between atoms: C_19  and  C_20
REMARK    8  A    between atoms: C_20  and  N_21
REMARK                            x       y       z     vdW  Elec       q    Type
REMARK                         _______ _______ _______ _____ _____    ______ ____
ROOT
ATOM      8  C   UNL     1      -2.881   2.615  25.377  0.00  0.00    +0.230 C 
ATOM      9  O   UNL     1      -2.187   2.196  25.225  0.00  0.00    -0.275 OA
ATOM     10  N   UNL     1      -3.612   2.245  25.295  0.00  0.00    -0.279 N 
ATOM     11  C   UNL     1      -4.307   2.665  25.447  0.00  0.00    +0.093 C 
ATOM     12  C   UNL     1      -5.039   2.295  25.364  0.00  0.00    +0.022 C 
ATOM     13  C   UNL     1      -5.078   1.505  25.129  0.00  0.00    +0.015 C 
ATOM     18  C   UNL     1      -4.384   1.086  24.977  0.00  0.00    +0.022 C 
ATOM     27  C   UNL     1      -3.652   1.456  25.060  0.00  0.00    +0.093 C 
ENDROOT
BRANCH   8   7
ATOM      7  C   UNL     1      -2.842   3.406  25.613  0.00  0.00    +0.112 C 
BRANCH   7   6
ATOM      3  C   UNL     1      -0.907   4.800  24.950  0.00  0.00    +0.139 A 
ATOM      4  C   UNL     1      -0.784   4.072  25.317  0.00  0.00    +0.037 A 
ATOM      5  C   UNL     1      -1.429   3.607  25.538  0.00  0.00    -0.001 A 
ATOM      6  C   UNL     1      -2.197   3.871  25.392  0.00  0.00    -0.013 A 
ATOM     28  C   UNL     1      -2.321   4.599  25.024  0.00  0.00    -0.001 A 
ATOM     29  C   UNL     1      -1.675   5.064  24.803  0.00  0.00    +0.037 A 
BRANCH   3   2
ATOM      1  C   UNL     1       0.059   5.192  23.972  0.00  0.00    +0.252 C 
ATOM      2  O   UNL     1      -0.262   5.265  24.729  0.00  0.00    -0.471 OA
ENDBRANCH   3   2
ENDBRANCH   7   6
ENDBRANCH   8   7
BRANCH  13  14
ATOM     14  C   UNL     1      -5.810   1.135  25.046  0.00  0.00    +0.114 C 
BRANCH  14  15
ATOM     15  C   UNL     1      -6.505   1.559  25.185  0.00  0.00    +0.365 C 
ATOM     16  O   UNL     1      -6.912   1.900  24.553  0.00  0.00    -0.246 OA
ATOM     17  O   UNL     1      -6.792   1.641  25.954  0.00  0.00    -0.246 OA
ENDBRANCH  14  15
ENDBRANCH  13  14
BRANCH  18  19
ATOM     19  C   UNL     1      -4.423   0.295  24.742  0.00  0.00    +0.019 C 
BRANCH  19  20
ATOM     20  C   UNL     1      -3.728  -0.135  24.631  0.00  0.00    +0.072 C 
BRANCH  20  21
ATOM     21  N   UNL     1      -3.759  -0.955  24.545  0.00  0.00    -0.273 NA
ATOM     22  C   UNL     1      -4.117  -1.288  23.881  0.00  0.00    +0.072 C 
ATOM     23  C   UNL     1      -4.148  -2.107  23.796  0.00  0.00    +0.017 C 
ATOM     24  C   UNL     1      -3.821  -2.595  24.376  0.00  0.00    +0.003 C 
ATOM     25  C   UNL     1      -3.463  -2.262  25.040  0.00  0.00    +0.017 C 
ATOM     26  C   UNL     1      -3.432  -1.442  25.125  0.00  0.00    +0.072 C 
ENDBRANCH  20  21
ENDBRANCH  19  20
ENDBRANCH  18  19
TORSDOF 8
ENDMDL
MODEL 3
REMARK VINA RESULT:      -9.3      1.995      4.967
REMARK  Name = 
REMARK  8 active torsions:
REMARK  status: ('A' for Active; 'I' for Inactive)
REMARK    1  A    between atoms: O_2  and  C_3
REMARK    2  A    between atoms: C_6  and  C_7
REMARK    3  A    between atoms: C_7  and  C_8
REMARK    4  A    between atoms: C_13  and  C_14
REMARK    5  A    between atoms: C_14  and  C_15
REMARK    6  A    between atoms: C_18  and  C_19
REMARK    7  A    between atoms: C_19  and  C_20
REMARK    8  A    between atoms: C_20  and  N_21
REMARK                            x       y       z     vdW  Elec       q    Type
REMARK                         _______ _______ _______ _____ _____    ______ ____
ROOT
ATOM      8  C   UNL     1      -4.057   1.047  24.765  0.00  0.00    +0.230 C 
ATOM      9  O   UNL     1      -3.525   1.678  24.764  0.00  0.00    -0.275 OA
ATOM     10  N   UNL     1      -3.781   0.275  24.683  0.00  0.00    -0.279 N 
ATOM     11  C   UNL     1      -4.314  -0.356  24.683  0.00  0.00    +0.093 C 
ATOM     12  C   UNL     1      -4.039  -1.129  24.602  0.00  0.00    +0.022 C 
ATOM     13  C   UNL     1      -3.230  -1.271  24.520  0.00  0.00    +0.015 C 
ATOM     18  C   UNL     1      -2.698  -0.642  24.519  0.00  0.00    +0.022 C 
ATOM     27  C   UNL     1      -2.973   0.131  24.601  0.00  0.00    +0.093 C 
ENDROOT
BRANCH   8   7
ATOM      7  C   UNL     1      -4.866   1.191  24.847  0.00  0.00    +0.112 C 
BRANCH   7   6
ATOM      3  C   UNL     1      -5.657   3.390  25.660  0.00  0.00    +0.139 A 
ATOM      4  C   UNL     1      -5.171   3.347  24.996  0.00  0.00    +0.037 A 
ATOM      5  C   UNL     1      -4.907   2.613  24.724  0.00  0.00    -0.001 A 
ATOM      6  C   UNL     1      -5.130   1.924  25.118  0.00  0.00    -0.013 A 
ATOM     28  C   UNL     1      -5.616   1.967  25.783  0.00  0.00    -0.001 A 
ATOM     29  C   UNL     1      -5.880   2.701  26.054  0.00  0.00    +0.037 A 
BRANCH   3   2
ATOM      1  C   UNL     1      -5.930   4.773  25.422  0.00  0.00    +0.252 C 
ATOM      2  O   UNL     1      -5.921   4.124  25.931  0.00  0.00    -0.471 OA
ENDBRANCH   3   2
ENDBRANCH   7   6
ENDBRANCH   8   7
BRANCH  13  14
ATOM     14  C   UNL     1      -2.954  -2.045  24.438  0.00  0.00    +0.114 C 
BRANCH  14  15
ATOM     15  C   UNL     1      -3.458  -2.681  24.588  0.00  0.00    +0.365 C 
ATOM     16  O   UNL     1      -3.899  -3.011  23.974  0.00  0.00    -0.246 OA
ATOM     17  O   UNL     1      -3.521  -2.986  25.352  0.00  0.00    -0.246 OA
ENDBRANCH  14  15
ENDBRANCH  13  14
BRANCH  18  19
ATOM     19  C   UNL     1      -1.889  -0.784  24.438  0.00  0.00    +0.019 C 
BRANCH  19  20
ATOM     20  C   UNL     1      -1.348  -0.177  24.574  0.00  0.00    +0.072 C 
BRANCH  20  21
ATOM     21  N   UNL     1      -0.619  -0.178  24.187  0.00  0.00    -0.273 NA
ATOM     22  C   UNL     1      -0.148  -0.855  24.196  0.00  0.00    +0.072 C 
ATOM     23  C   UNL     1       0.580  -0.855  23.809  0.00  0.00    +0.017 C 
ATOM     24  C   UNL     1       0.837  -0.178  23.413  0.00  0.00    +0.003 C 
ATOM     25  C   UNL     1       0.366   0.499  23.404  0.00  0.00    +0.017 C 
ATOM     26  C   UNL     1      -0.363   0.499  23.792  0.00  0.00    +0.072 C 
ENDBRANCH  20  21
ENDBRANCH  19  20
ENDBRANCH  18  19
TORSDOF 8
ENDMDL
MODEL 4
REMARK VINA RESULT:      -8.9      3.128      4.608
REMARK  Name = 
REMARK  8 active torsions:
REMARK  status: ('A' for Active; 'I' for Inactive)
REMARK    1  A    between atoms: O_2  and  C_3
REMARK    2  A    between atoms: C_6  and  C_7
REMARK    3  A    between atoms: C_7  and  C_8
REMARK    4  A    between atoms: C_13  and  C_14
REMARK    5  A    between atoms: C_14  and  C_15
REMARK    6  A    between atoms: C_18  and  C_19
REMARK    7  A    between atoms: C_19  and  C_20
REMARK    8  A    between atoms: C_20  and  N_21
REMARK                            x       y       z     vdW  Elec       q    Type
REMARK                         _______ _______ _______ _____ _____    ______ ____
ROOT
ATOM      8  C   UNL     1      -0.531   0.309  23.869  0.00  0.00    +0.230 C 
ATOM      9  O   UNL     1      -0.386   1.081  23.616  0.00  0.00    -0.275 OA
ATOM     10  N   UNL     1      -1.252   0.119  24.220  0.00  0.00    -0.279 N 
ATOM     11  C   UNL     1      -1.397  -0.653  24.474  0.00  0.00    +0.093 C 
ATOM     12  C   UNL     1      -2.119  -0.844  24.825  0.00  0.00    +0.022 C 
ATOM     13  C   UNL     1      -2.696  -0.262  24.922  0.00  0.00    +0.015 C 
ATOM     18  C   UNL     1      -2.552   0.509  24.669  0.00  0.00    +0.022 C 
ATOM     27  C   UNL     1      -1.830   0.700  24.318  0.00  0.00    +0.093 C 
ENDROOT
BRANCH   8   7
ATOM      7  C   UNL     1       0.047  -0.272  23.772  0.00  0.00    +0.112 C 
BRANCH   7   6
ATOM      3  C   UNL     1       2.142   0.255  22.565  0.00  0.00    +0.139 A 
ATOM      4  C   UNL     1       2.006   0.573  23.313  0.00  0.00    +0.037 A 
ATOM      5  C   UNL     1       1.307   0.397  23.716  0.00  0.00    -0.001 A 
ATOM      6  C   UNL     1       0.745  -0.096  23.370  0.00  0.00    -0.013 A 
ATOM     28  C   UNL     1       0.880  -0.415  22.620  0.00  0.00    -0.001 A 
ATOM     29  C   UNL     1       1.580  -0.239  22.218  0.00  0.00    +0.037 A 
BRANCH   3   2
ATOM      1  C   UNL     1       3.502   0.698  22.580  0.00  0.00    +0.252 C 
ATOM      2  O   UNL     1       2.841   0.431  22.163  0.00  0.00    -0.471 OA
ENDBRANCH   3   2
ENDBRANCH   7   6
ENDBRANCH   8   7
BRANCH  13  14
ATOM     14  C   UNL     1      -3.418  -0.452  25.273  0.00  0.00    +0.114 C 
BRANCH  14  15
ATOM     15  C   UNL     1      -3.569  -1.228  25.513  0.00  0.00    +0.365 C 
ATOM     16  O   UNL     1      -3.394  -1.461  26.285  0.00  0.00    -0.246 OA
ATOM     17  O   UNL     1      -3.893  -1.769  24.982  0.00  0.00    -0.246 OA
ENDBRANCH  14  15
ENDBRANCH  13  14
BRANCH  18  19
ATOM     19  C   UNL     1      -3.129   1.091  24.766  0.00  0.00    +0.019 C 
BRANCH  19  20
ATOM     20  C   UNL     1      -2.957   1.877  24.582  0.00  0.00    +0.072 C 
BRANCH  20  21
ATOM     21  N   UNL     1      -3.494   2.473  24.774  0.00  0.00    -0.273 NA
ATOM     22  C   UNL     1      -4.234   2.495  24.410  0.00  0.00    +0.072 C 
ATOM     23  C   UNL     1      -4.770   3.091  24.602  0.00  0.00    +0.017 C 
ATOM     24  C   UNL     1      -4.567   3.666  25.159  0.00  0.00    +0.003 C 
ATOM     25  C   UNL     1      -3.827   3.643  25.523  0.00  0.00    +0.017 C 
ATOM     26  C   UNL     1      -3.290   3.046  25.331  0.00  0.00    +0.072 C 
ENDBRANCH  20  21
ENDBRANCH  19  20
ENDBRANCH  18  19
TORSDOF 8
ENDMDL
MODEL 5
REMARK VINA RESULT:      -8.7      2.355      6.211
REMARK  Name = 
REMARK  8 active torsions:
REMARK  status: ('A' for Active; 'I' for Inactive)
REMARK    1  A    between atoms: O_2  and  C_3
REMARK    2  A    between atoms: C_6  and  C_7
REMARK    3  A    between atoms: C_7  and  C_8
REMARK    4  A    between atoms: C_13  and  C_14
REMARK    5  A    between atoms: C_14  and  C_15
REMARK    6  A    between atoms: C_18  and  C_19
REMARK    7  A    between atoms: C_19  and  C_20
REMARK    8  A    between atoms: C_20  and  N_21
REMARK                            x       y       z     vdW  Elec       q    Type
REMARK                         _______ _______ _______ _____ _____    ______ ____
ROOT
ATOM      8  C   UNL     1      -1.381   2.029  25.438  0.00  0.00    +0.230 C 
ATOM      9  O   UNL     1      -2.170   2.052  25.679  0.00  0.00    -0.275 OA
ATOM     10  N   UNL     1      -1.092   1.371  25.034  0.00  0.00    -0.279 N 
ATOM     11  C   UNL     1      -0.302   1.349  24.793  0.00  0.00    +0.093 C 
ATOM     12  C   UNL     1      -0.013   0.690  24.389  0.00  0.00    +0.022 C 
ATOM     13  C   UNL     1      -0.513   0.054  24.226  0.00  0.00    +0.015 C 
ATOM     18  C   UNL     1      -1.301   0.077  24.466  0.00  0.00    +0.022 C 
ATOM     27  C   UNL     1      -1.591   0.735  24.870  0.00  0.00    +0.093 C 
ENDROOT
BRANCH   8   7
ATOM      7  C   UNL     1      -0.881   2.665  25.602  0.00  0.00    +0.112 C 
BRANCH   7   6
ATOM      3  C   UNL     1      -1.703   4.985  25.335  0.00  0.00    +0.139 A 
ATOM      4  C   UNL     1      -0.995   4.755  24.981  0.00  0.00    +0.037 A 
ATOM      5  C   UNL     1      -0.721   3.981  25.070  0.00  0.00    -0.001 A 
ATOM      6  C   UNL     1      -1.155   3.439  25.513  0.00  0.00    -0.013 A 
ATOM     28  C   UNL     1      -1.864   3.668  25.867  0.00  0.00    -0.001 A 
ATOM     29  C   UNL     1      -2.138   4.442  25.778  0.00  0.00    +0.037 A 
BRANCH   3   2
ATOM      1  C   UNL     1      -1.726   6.213  24.604  0.00  0.00    +0.252 C 
ATOM      2  O   UNL     1      -1.977   5.758  25.246  0.00  0.00    -0.471 OA
ENDBRANCH   3   2
ENDBRANCH   7   6
ENDBRANCH   8   7
BRANCH  13  14
ATOM     14  C   UNL     1      -0.224  -0.604  23.822  0.00  0.00    +0.114 C 
BRANCH  14  15
ATOM     15  C   UNL     1       0.503  -0.563  23.432  0.00  0.00    +0.365 C 
ATOM     16  O   UNL     1       1.188  -0.824  23.811  0.00  0.00    -0.246 OA
ATOM     17  O   UNL     1       0.544  -0.261  22.666  0.00  0.00    -0.246 OA
ENDBRANCH  14  15
ENDBRANCH  13  14
BRANCH  18  19
ATOM     19  C   UNL     1      -1.801  -0.559  24.303  0.00  0.00    +0.019 C 
BRANCH  19  20
ATOM     20  C   UNL     1      -2.501  -0.653  24.730  0.00  0.00    +0.072 C 
BRANCH  20  21
ATOM     21  N   UNL     1      -3.026  -1.259  24.534  0.00  0.00    -0.273 NA
ATOM     22  C   UNL     1      -3.685  -1.098  24.066  0.00  0.00    +0.072 C 
ATOM     23  C   UNL     1      -4.210  -1.704  23.871  0.00  0.00    +0.017 C 
ATOM     24  C   UNL     1      -4.075  -2.471  24.144  0.00  0.00    +0.003 C 
ATOM     25  C   UNL     1      -3.416  -2.631  24.613  0.00  0.00    +0.017 C 
ATOM     26  C   UNL     1      -2.890  -2.025  24.808  0.00  0.00    +0.072 C 
ENDBRANCH  20  21
ENDBRANCH  19  20
ENDBRANCH  18  19
TORSDOF 8
ENDMDL
MODEL 6
REMARK VINA RESULT:      -8.3      2.151      5.807
REMARK  Name = 
REMARK  8 active torsions:
REMARK  status: ('A' for Active; 'I' for Inactive)
REMARK    1  A    between atoms: O_2  and  C_3
REMARK    2  A    between atoms: C_6  and  C_7
REMARK    3  A    between atoms: C_7  and  C_8
REMARK    4  A    between atoms: C_13  and  C_14
REMARK    5  A    between atoms: C_14  and  C_15
REMARK    6  A    between atoms: C_18  and  C_19
REMARK    7  A    between atoms: C_19  and  C_20
REMARK    8  A    between atoms: C_20  and  N_21
REMARK                            x       y       z     vdW  Elec       q    Type
REMARK                         _______ _______ _______ _____ _____    ______ ____
ROOT
ATOM      8  C   UNL     1      -2.571   1.794  24.746  0.00  0.00    +0.230 C 
ATOM      9  O   UNL     1      -3.271   1.449  25.013  0.00  0.00    -0.275 OA
ATOM     10  N   UNL     1      -1.929   1.320  24.543  0.00  0.00    -0.279 N 
ATOM     11  C   UNL     1      -1.228   1.665  24.276  0.00  0.00    +0.093 C 
ATOM     12  C   UNL     1      -0.585   1.190  24.073  0.00  0.00    +0.022 C 
ATOM     13  C   UNL     1      -0.643   0.369  24.137  0.00  0.00    +0.015 C 
ATOM     18  C   UNL     1      -1.342   0.024  24.404  0.00  0.00    +0.022 C 
ATOM     27  C   UNL     1      -1.985   0.499  24.607  0.00  0.00    +0.093 C 
ENDROOT
BRANCH   8   7
ATOM      7  C   UNL     1      -2.515   2.615  24.683  0.00  0.00    +0.112 C 
BRANCH   7   6
ATOM      3  C   UNL     1      -4.478   4.035  25.188  0.00  0.00    +0.139 A 
ATOM      4  C   UNL     1      -4.365   3.745  24.425  0.00  0.00    +0.037 A 
ATOM      5  C   UNL     1      -3.709   3.271  24.256  0.00  0.00    -0.001 A 
ATOM      6  C   UNL     1      -3.169   3.089  24.851  0.00  0.00    -0.013 A 
ATOM     28  C   UNL     1      -3.282   3.378  25.615  0.00  0.00    -0.001 A 
ATOM     29  C   UNL     1      -3.937   3.852  25.784  0.00  0.00    +0.037 A 
BRANCH   3   2
ATOM      1  C   UNL     1      -5.832   4.164  25.628  0.00  0.00    +0.252 C 
ATOM      2  O   UNL     1      -5.132   4.508  25.356  0.00  0.00    -0.471 OA
ENDBRANCH   3   2
ENDBRANCH   7   6
ENDBRANCH   8   7
BRANCH  13  14
ATOM     14  C   UNL     1       0.000  -0.106  23.934  0.00  0.00    +0.114 C 
BRANCH  14  15
ATOM     15  C   UNL     1       0.571   0.175  23.407  0.00  0.00    +0.365 C 
ATOM     16  O   UNL     1       0.562  -0.071  22.620  0.00  0.00    -0.246 OA
ATOM     17  O   UNL     1       1.150   0.701  23.669  0.00  0.00    -0.246 OA
ENDBRANCH  14  15
ENDBRANCH  13  14
BRANCH  18  19
ATOM     19  C   UNL     1      -1.400  -0.797  24.468  0.00  0.00    +0.019 C 
BRANCH  19  20
ATOM     20  C   UNL     1      -1.896  -1.132  25.035  0.00  0.00    +0.072 C 
BRANCH  20  21
ATOM     21  N   UNL     1      -2.301  -1.831  24.868  0.00  0.00    -0.273 NA
ATOM     22  C   UNL     1      -3.086  -1.920  25.107  0.00  0.00    +0.072 C 
ATOM     23  C   UNL     1      -3.490  -2.618  24.940  0.00  0.00    +0.017 C 
ATOM     24  C   UNL     1      -3.111  -3.229  24.534  0.00  0.00    +0.003 C 
ATOM     25  C   UNL     1      -2.326  -3.139  24.295  0.00  0.00    +0.017 C 
ATOM     26  C   UNL     1      -1.921  -2.440  24.463  0.00  0.00    +0.072 C 
ENDBRANCH  20  21
ENDBRANCH  19  20
ENDBRANCH  18  19
TORSDOF 8
ENDMDL
MODEL 7
REMARK VINA RESULT:      -7.9      1.866      3.136
REMARK  Name = 
REMARK  8 active torsions:
REMARK  status: ('A' for Active; 'I' for Inactive)
REMARK    1  A    between atoms: O_2  and  C_3
REMARK    2  A    between atoms: C_6  and  C_7
REMARK    3  A    between atoms: C_7  and  C_8
REMARK    4  A    between atoms: C_13  and  C_14
REMARK    5  A    between atoms: C_14  and  C_15
REMARK    6  A    between atoms: C_18  and  C_19
REMARK    7  A    between atoms: C_19  and  C_20
REMARK    8  A    between atoms: C_20  and  N_21
REMARK                            x       y       z     vdW  Elec       q    Type
REMARK                         _______ _______ _______ _____ _____    ______ ____
ROOT
ATOM      8  C   UNL     1      -2.428  -0.190  25.204  0.00  0.00    +0.230 C 
ATOM      9  O   UNL     1      -3.228  -0.143  25.007  0.00  0.00    -0.275 OA
ATOM     10  N   UNL     1      -1.984   0.497  25.296  0.00  0.00    -0.279 N 
ATOM     11  C   UNL     1      -1.184   0.449  25.493  0.00  0.00    +0.093 C 
ATOM     12  C   UNL     1      -0.739   1.138  25.585  0.00  0.00    +0.022 C 
ATOM     13  C   UNL     1      -1.095   1.875  25.481  0.00  0.00    +0.015 C 
ATOM     18  C   UNL     1      -1.894   1.924  25.285  0.00  0.00    +0.022 C 
ATOM     27  C   UNL     1      -2.339   1.235  25.193  0.00  0.00    +0.093 C 
ENDROOT
BRANCH   8   7
ATOM      7  C   UNL     1      -2.073  -0.928  25.307  0.00  0.00    +0.112 C 
BRANCH   7   6
ATOM      3  C   UNL     1      -3.218  -2.976  24.519  0.00  0.00    +0.139 A 
ATOM      4  C   UNL     1      -2.514  -2.735  24.164  0.00  0.00    +0.037 A 
ATOM      5  C   UNL     1      -2.132  -2.051  24.427  0.00  0.00    -0.001 A 
ATOM      6  C   UNL     1      -2.455  -1.611  25.044  0.00  0.00    -0.013 A 
ATOM     28  C   UNL     1      -3.159  -1.852  25.400  0.00  0.00    -0.001 A 
ATOM     29  C   UNL     1      -3.541  -2.535  25.137  0.00  0.00    +0.037 A 
BRANCH   3   2
ATOM      1  C   UNL     1      -4.277  -3.598  23.787  0.00  0.00    +0.252 C 
ATOM      2  O   UNL     1      -3.600  -3.658  24.256  0.00  0.00    -0.471 OA
ENDBRANCH   3   2
ENDBRANCH   7   6
ENDBRANCH   8   7
BRANCH  13  14
ATOM     14  C   UNL     1      -0.651   2.564  25.574  0.00  0.00    +0.114 C 
BRANCH  14  15
ATOM     15  C   UNL     1       0.164   2.516  25.697  0.00  0.00    +0.365 C 
ATOM     16  O   UNL     1       0.469   2.559  26.462  0.00  0.00    -0.246 OA
ATOM     17  O   UNL     1       0.674   2.425  25.054  0.00  0.00    -0.246 OA
ENDBRANCH  14  15
ENDBRANCH  13  14
BRANCH  18  19
ATOM     19  C   UNL     1      -2.250   2.661  25.181  0.00  0.00    +0.019 C 
BRANCH  19  20
ATOM     20  C   UNL     1      -2.932   2.728  24.722  0.00  0.00    +0.072 C 
BRANCH  20  21
ATOM     21  N   UNL     1      -3.471   3.335  24.868  0.00  0.00    -0.273 NA
ATOM     22  C   UNL     1      -4.159   3.181  25.298  0.00  0.00    +0.072 C 
ATOM     23  C   UNL     1      -4.697   3.788  25.445  0.00  0.00    +0.017 C 
ATOM     24  C   UNL     1      -4.549   4.549  25.162  0.00  0.00    +0.003 C 
ATOM     25  C   UNL     1      -3.862   4.703  24.732  0.00  0.00    +0.017 C 
ATOM     26  C   UNL     1      -3.322   4.095  24.585  0.00  0.00    +0.072 C 
ENDBRANCH  20  21
ENDBRANCH  19  20
ENDBRANCH  18  19
TORSDOF 8
ENDMDL
MODEL 8
REMARK VINA RESULT:      -7.7      2.174      3.484
REMARK  Name = 
REMARK  8 active torsions:
REMARK  status: ('A' for Active; 'I' for Inactive)
REMARK    1  A    between atoms: O_2  and  C_3
REMARK    2  A    between atoms: C_6  and  C_7
REMARK    3  A    between atoms: C_7  and  C_8
REMARK    4  A    between atoms: C_13  and  C_14
REMARK    5  A    between atoms: C_14  and  C_15
REMARK    6  A    between atoms: C_18  and  C_19
REMARK    7  A    between atoms: C_19  and  C_20
REMARK    8  A    between atoms: C_20  and  N_21
REMARK                            x       y       z     vdW  Elec       q    Type
REMARK                         _______ _______ _______ _____ _____    ______ ____
ROOT
ATOM      8  C   UNL     1      -1.648   1.161  25.215  0.00  0.00    +0.230 C 
ATOM      9  O   UNL     1      -2.329   0.712  25.332  0.00  0.00    -0.275 OA
ATOM     10  N   UNL     1      -1.704   1.977  25.110  0.00  0.00    -0.279 N 
ATOM     11  C   UNL     1      -1.021   2.426  24.992  0.00  0.00    +0.093 C 
ATOM     12  C   UNL     1      -1.077   3.242  24.887  0.00  0.00    +0.022 C 
ATOM     13  C   UNL     1      -1.816   3.609  24.900  0.00  0.00    +0.015 C 
ATOM     18  C   UNL     1      -2.498   3.161  25.018  0.00  0.00    +0.022 C 
ATOM     27  C   UNL     1      -2.442   2.345  25.123  0.00  0.00    +0.093 C 
ENDROOT
BRANCH   8   7
ATOM      7  C   UNL     1      -0.909   0.793  25.202  0.00  0.00    +0.112 C 
BRANCH   7   6
ATOM      3  C   UNL     1      -0.755  -1.667  24.977  0.00  0.00    +0.139 A 
ATOM      4  C   UNL     1      -0.891  -1.329  25.716  0.00  0.00    +0.037 A 
ATOM      5  C   UNL     1      -0.942  -0.508  25.791  0.00  0.00    -0.001 A 
ATOM      6  C   UNL     1      -0.858  -0.027  25.127  0.00  0.00    -0.013 A 
ATOM     28  C   UNL     1      -0.722  -0.365  24.386  0.00  0.00    -0.001 A 
ATOM     29  C   UNL     1      -0.671  -1.186  24.311  0.00  0.00    +0.037 A 
BRANCH   3   2
ATOM      1  C   UNL     1      -1.305  -2.905  24.520  0.00  0.00    +0.252 C 
ATOM      2  O   UNL     1      -0.704  -2.487  24.901  0.00  0.00    -0.471 OA
ENDBRANCH   3   2
ENDBRANCH   7   6
ENDBRANCH   8   7
BRANCH  13  14
ATOM     14  C   UNL     1      -1.872   4.426  24.795  0.00  0.00    +0.114 C 
BRANCH  14  15
ATOM     15  C   UNL     1      -1.205   4.902  24.895  0.00  0.00    +0.365 C 
ATOM     16  O   UNL     1      -1.145   5.395  25.554  0.00  0.00    -0.246 OA
ATOM     17  O   UNL     1      -0.598   4.884  24.336  0.00  0.00    -0.246 OA
ENDBRANCH  14  15
ENDBRANCH  13  14
BRANCH  18  19
ATOM     19  C   UNL     1      -3.237   3.529  25.031  0.00  0.00    +0.019 C 
BRANCH  19  20
ATOM     20  C   UNL     1      -3.877   3.179  24.646  0.00  0.00    +0.072 C 
BRANCH  20  21
ATOM     21  N   UNL     1      -4.630   3.217  24.980  0.00  0.00    -0.273 NA
ATOM     22  C   UNL     1      -5.122   2.555  24.967  0.00  0.00    +0.072 C 
ATOM     23  C   UNL     1      -5.875   2.594  25.301  0.00  0.00    +0.017 C 
ATOM     24  C   UNL     1      -6.137   3.295  25.648  0.00  0.00    +0.003 C 
ATOM     25  C   UNL     1      -5.646   3.957  25.660  0.00  0.00    +0.017 C 
ATOM     26  C   UNL     1      -4.892   3.919  25.326  0.00  0.00    +0.072 C 
ENDBRANCH  20  21
ENDBRANCH  19  20
ENDBRANCH  18  19
TORSDOF 8
ENDMDL
