MODEL 1
REMARK VINA RESULT:     -12.4      0.000      0.000
REMARK  Name = 
REMARK  5 active torsions:
REMARK  status: ('A' for Active; 'I' for Inactive)
REMARK    1  A    between atoms: C_2  and  C_3
REMARK    2  A    between atoms: C_10  and  C_11
REMARK    3  A    between atoms: C_11  and  O_12
REMARK    4  A    between atoms: O_12  and  C_13
REMARK    5  A    between atoms: N_15  and  C_16
REMARK                            x       y       z     vdW  Elec       q    Type
REMARK                         _______ _______ _______ _____ _____    ______ ____
ROOT
ATOM     13  C   UNL     1      -2.113   0.452  25.005  0.00  0.00    +0.425 C 
ATOM     14  O   UNL     1      -1.323   0.231  24.905  0.00  0.00    -0.224 OA
ATOM     15  N   UNL     1      -2.707  -0.118  24.975  0.00  0.00    -0.142 NA
ENDROOT
BRANCH  15  16
ATOM     16  C   UNL     1      -2.514  -0.910  24.846  0.00  0.00    +0.077 A 
ATOM     17  C   UNL     1      -1.756  -1.184  25.028  0.00  0.00    +0.017 A 
ATOM     18  C   UNL     1      -1.563  -1.975  24.899  0.00  0.00    +0.001 A 
ATOM     19  C   UNL     1      -2.125  -2.493  24.590  0.00  0.00    +0.000 A 
ATOM     20  C   UNL     1      -2.883  -2.218  24.408  0.00  0.00    +0.001 A 
ATOM     21  C   UNL     1      -3.446  -2.736  24.099  0.00  0.00    +0.000 A 
ATOM     22  C   UNL     1      -4.202  -2.462  23.918  0.00  0.00    +0.000 A 
ATOM     23  C   UNL     1      -4.397  -1.670  24.046  0.00  0.00    +0.000 A 
ATOM     24  C   UNL     1      -3.833  -1.153  24.356  0.00  0.00    +0.001 A 
ATOM     25  C   UNL     1      -3.076  -1.427  24.537  0.00  0.00    +0.015 A 
ENDBRANCH  15  16
BRANCH  13  12
ATOM     12  O   UNL     1      -2.306   1.244  25.134  0.00  0.00    -0.432 OA
BRANCH  12  11
ATOM     11  C   UNL     1      -1.729   1.828  25.054  0.00  0.00    +0.226 C 
BRANCH  11  10
ATOM      3  C   UNL     1      -1.475   4.184  25.129  0.00  0.00    +0.016 C 
ATOM      4  C   UNL     1      -0.909   3.768  24.793  0.00  0.00    +0.072 C 
ATOM      5  N   UNL     1      -1.598   3.467  25.131  0.00  0.00    -0.271 NA
ATOM      6  C   UNL     1      -2.147   4.283  25.494  0.00  0.00    +0.072 C 
ATOM      7  C   UNL     1      -2.675   4.523  25.794  0.00  0.00    +0.017 C 
ATOM      8  C   UNL     1      -2.149   3.879  25.459  0.00  0.00    +0.004 C 
ATOM      9  C   UNL     1      -2.445   3.057  25.542  0.00  0.00    +0.020 C 
ATOM     10  C   UNL     1      -1.913   2.615  25.221  0.00  0.00    +0.102 C 
BRANCH   3   2
ATOM      1  C   UNL     1      -0.726   5.353  24.791  0.00  0.00    +0.000 C 
ATOM      2  C   UNL     1      -1.380   5.003  25.151  0.00  0.00    +0.001 C 
ENDBRANCH   3   2
ENDBRANCH  11  10
ENDBRANCH  12  11
ENDBRANCH  13  12
TORSDOF 5
ENDMDL
MODEL 2
REMARK VINA RESULT:     -12.2      1.227      5.695
REMARK  Name = 
REMARK  5 active torsions:
REMARK  status: ('A' for Active; 'I' for Inactive)
REMARK    1  A    between atoms: C_2  and  C_3
REMARK    2  A    between atoms: C_10  and  C_11
REMARK    3  A    between atoms: C_11  and  O_12
REMARK    4  A    between atoms: O_12  and  C_13
REMARK    5  A    between atoms: N_15  and  C_16
REMARK                            x       y       z     vdW  Elec       q    Type
REMARK                         _______ _______ _______ _____ _____    ______ ____
ROOT
ATOM     13  C   UNL     1      -3.761   1.956  24.910  0.00  0.00    +0.425 C 
ATOM     14  O   UNL     1      -4.322   2.272  25.428  0.00  0.00    -0.224 OA
ATOM     15  N   UNL     1      -3.070   2.374  24.746  0.00  0.00    -0.142 NA
ENDROOT
BRANCH  15  16
ATOM     16  C   UNL     1      -2.936   3.107  25.100  0.00  0.00    +0.077 A 
ATOM     17  C   UNL     1      -3.542   3.478  25.521  0.00  0.00    +0.017 A 
ATOM     18  C   UNL     1      -3.409   4.211  25.875  0.00  0.00    +0.001 A 
ATOM     19  C   UNL     1      -2.672   4.573  25.808  0.00  0.00    +0.000 A 
ATOM     20  C   UNL     1      -2.066   4.202  25.387  0.00  0.00    +0.001 A 
ATOM     21  C   UNL     1      -1.328   4.566  25.321  0.00  0.00    +0.000 A 
ATOM     22  C   UNL     1      -0.723   4.195  24.901  0.00  0.00    +0.000 A 
ATOM     23  C   UNL     1      -0.855   3.461  24.546  0.00  0.00    +0.000 A 
ATOM     24  C   UNL     1      -1.593   3.099  24.613  0.00  0.00    +0.001 A 
ATOM     25  C   UNL     1      -2.199   3.470  25.034  0.00  0.00    +0.015 A 
ENDBRANCH  15  16
BRANCH  13  12
ATOM     12  O   UNL     1      -3.895   1.222  24.556  0.00  0.00    -0.432 OA
BRANCH  12  11
ATOM     11  C   UNL     1      -4.102   0.572  25.019  0.00  0.00    +0.226 C 
BRANCH  11  10
ATOM      3  C   UNL     1      -3.678  -1.754  24.846  0.00  0.00    +0.016 C 
ATOM      4  C   UNL     1      -3.437  -1.387  25.489  0.00  0.00    +0.072 C 
ATOM      5  N   UNL     1      -3.831  -1.043  24.853  0.00  0.00    -0.271 NA
ATOM      6  C   UNL     1      -4.014  -1.802  24.153  0.00  0.00    +0.072 C 
ATOM      7  C   UNL     1      -4.257  -1.999  23.580  0.00  0.00    +0.017 C 
ATOM      8  C   UNL     1      -4.065  -1.406  24.225  0.00  0.00    +0.004 C 
ATOM      9  C   UNL     1      -4.320  -0.580  24.077  0.00  0.00    +0.020 C 
ATOM     10  C   UNL     1      -4.099  -0.185  24.692  0.00  0.00    +0.102 C 
BRANCH   3   2
ATOM      1  C   UNL     1      -3.125  -2.949  25.400  0.00  0.00    +0.000 C 
ATOM      2  C   UNL     1      -3.528  -2.563  24.793  0.00  0.00    +0.001 C 
ENDBRANCH   3   2
ENDBRANCH  11  10
ENDBRANCH  12  11
ENDBRANCH  13  12
TORSDOF 5
ENDMDL
MODEL 3
REMARK VINA RESULT:     -12.1      0.895      1.559
REMARK  Name = 
REMARK  5 active torsions:
REMARK  status: ('A' for Active; 'I' for Inactive)
REMARK    1  A    between atoms: C_2  and  C_3
REMARK    2  A    between atoms: C_10  and  C_11
REMARK    3  A    between atoms: C_11  and  O_12
REMARK    4  A    between atoms: O_12  and  C_13
REMARK    5  A    between atoms: N_15  and  C_16
REMARK                            x       y       z     vdW  Elec       q    Type
REMARK                         _______ _______ _______ _____ _____    ______ ____
ROOT
ATOM     13  C   UNL     1      -3.663   0.666  24.709  0.00  0.00    +0.425 C 
ATOM     14  O   UNL     1      -4.029   0.624  23.970  0.00  0.00    -0.224 OA
ATOM     15  N   UNL     1      -3.417  -0.024  25.087  0.00  0.00    -0.142 NA
ENDROOT
BRANCH  15  16
ATOM     16  C   UNL     1      -3.536  -0.757  24.727  0.00  0.00    +0.077 A 
ATOM     17  C   UNL     1      -4.252  -0.921  24.351  0.00  0.00    +0.017 A 
ATOM     18  C   UNL     1      -4.371  -1.653  23.991  0.00  0.00    +0.001 A 
ATOM     19  C   UNL     1      -3.774  -2.222  24.006  0.00  0.00    +0.000 A 
ATOM     20  C   UNL     1      -3.057  -2.058  24.382  0.00  0.00    +0.001 A 
ATOM     21  C   UNL     1      -2.461  -2.627  24.397  0.00  0.00    +0.000 A 
ATOM     22  C   UNL     1      -1.745  -2.464  24.773  0.00  0.00    +0.000 A 
ATOM     23  C   UNL     1      -1.625  -1.731  25.134  0.00  0.00    +0.000 A 
ATOM     24  C   UNL     1      -2.223  -1.162  25.118  0.00  0.00    +0.001 A 
ATOM     25  C   UNL     1      -2.939  -1.326  24.742  0.00  0.00    +0.015 A 
ENDBRANCH  15  16
BRANCH  13  12
ATOM     12  O   UNL     1      -3.545   1.399  25.070  0.00  0.00    -0.432 OA
BRANCH  12  11
ATOM     11  C   UNL     1      -3.267   2.036  24.627  0.00  0.00    +0.226 C 
BRANCH  11  10
ATOM      3  C   UNL     1      -2.040   3.996  25.153  0.00  0.00    +0.016 C 
ATOM      4  C   UNL     1      -1.749   3.520  24.611  0.00  0.00    +0.072 C 
ATOM      5  N   UNL     1      -2.452   3.410  25.027  0.00  0.00    -0.271 NA
ATOM      6  C   UNL     1      -2.558   4.224  25.678  0.00  0.00    +0.072 C 
ATOM      7  C   UNL     1      -2.893   4.543  26.139  0.00  0.00    +0.017 C 
ATOM      8  C   UNL     1      -2.733   3.880  25.557  0.00  0.00    +0.004 C 
ATOM      9  C   UNL     1      -3.333   3.240  25.526  0.00  0.00    +0.020 C 
ATOM     10  C   UNL     1      -3.080   2.749  25.000  0.00  0.00    +0.102 C 
BRANCH   3   2
ATOM      1  C   UNL     1      -0.905   4.835  24.931  0.00  0.00    +0.000 C 
ATOM      2  C   UNL     1      -1.608   4.676  25.331  0.00  0.00    +0.001 C 
ENDBRANCH   3   2
ENDBRANCH  11  10
ENDBRANCH  12  11
ENDBRANCH  13  12
TORSDOF 5
ENDMDL
MODEL 4
REMARK VINA RESULT:     -11.4      0.813      5.551
REMARK  Name = 
REMARK  5 active torsions:
REMARK  status: ('A' for Active; 'I' for Inactive)
REMARK    1  A    between atoms: C_2  and  C_3
REMARK    2  A    between atoms: C_10  and  C_11
REMARK    3  A    between atoms: C_11  and  O_12
REMARK    4  A    between atoms: O_12  and  C_13
REMARK    5  A    between atoms: N_15  and  C_16
REMARK                            x       y       z     vdW  Elec       q    Type
REMARK                         _______ _______ _______ _____ _____    ______ ____
ROOT
ATOM     13  C   UNL     1      -1.500   1.434  24.959  0.00  0.00    +0.425 C 
ATOM     14  O   UNL     1      -1.005   1.465  24.298  0.00  0.00    -0.224 OA
ATOM     15  N   UNL     1      -1.635   2.115  25.404  0.00  0.00    -0.142 NA
ENDROOT
BRANCH  15  16
ATOM     16  C   UNL     1      -1.277   2.827  25.190  0.00  0.00    +0.077 A 
ATOM     17  C   UNL     1      -0.539   2.822  24.819  0.00  0.00    +0.017 A 
ATOM     18  C   UNL     1      -0.181   3.533  24.605  0.00  0.00    +0.001 A 
ATOM     19  C   UNL     1      -0.560   4.249  24.761  0.00  0.00    +0.000 A 
ATOM     20  C   UNL     1      -1.298   4.253  25.131  0.00  0.00    +0.001 A 
ATOM     21  C   UNL     1      -1.676   4.970  25.287  0.00  0.00    +0.000 A 
ATOM     22  C   UNL     1      -2.413   4.975  25.658  0.00  0.00    +0.000 A 
ATOM     23  C   UNL     1      -2.772   4.263  25.872  0.00  0.00    +0.000 A 
ATOM     24  C   UNL     1      -2.393   3.547  25.716  0.00  0.00    +0.001 A 
ATOM     25  C   UNL     1      -1.656   3.542  25.346  0.00  0.00    +0.015 A 
ENDBRANCH  15  16
BRANCH  13  12
ATOM     12  O   UNL     1      -1.858   0.722  25.173  0.00  0.00    -0.432 OA
BRANCH  12  11
ATOM     11  C   UNL     1      -2.228   0.258  24.602  0.00  0.00    +0.226 C 
BRANCH  11  10
ATOM      3  C   UNL     1      -3.579  -1.681  24.408  0.00  0.00    +0.016 C 
ATOM      4  C   UNL     1      -3.572  -1.182  23.811  0.00  0.00    +0.072 C 
ATOM      5  N   UNL     1      -3.150  -1.103  24.514  0.00  0.00    -0.271 NA
ATOM      6  C   UNL     1      -3.375  -1.938  25.106  0.00  0.00    +0.072 C 
ATOM      7  C   UNL     1      -3.303  -2.279  25.659  0.00  0.00    +0.017 C 
ATOM      8  C   UNL     1      -3.160  -1.595  25.096  0.00  0.00    +0.004 C 
ATOM      9  C   UNL     1      -2.610  -0.972  25.378  0.00  0.00    +0.020 C 
ATOM     10  C   UNL     1      -2.578  -0.459  24.815  0.00  0.00    +0.102 C 
BRANCH   3   2
ATOM      1  C   UNL     1      -4.443  -2.506  23.625  0.00  0.00    +0.000 C 
ATOM      2  C   UNL     1      -4.050  -2.354  24.334  0.00  0.00    +0.001 C 
ENDBRANCH   3   2
ENDBRANCH  11  10
ENDBRANCH  12  11
ENDBRANCH  13  12
TORSDOF 5
ENDMDL
