MODEL 1
REMARK VINA RESULT:      -9.7      0.000      0.000
REMARK  Name = 
REMARK  6 active torsions:
REMARK  status: ('A' for Active; 'I' for Inactive)
REMARK    1  A    between atoms: C_4  and  C_6
REMARK    2  A    between atoms: C_6  and  N_7
REMARK    3  A    between atoms: C_8  and  C_9
REMARK    4  A    between atoms: C_11  and  C_16
REMARK    5  A    between atoms: C_19  and  N_20
REMARK    6  A    between atoms: N_20  and  S_21
REMARK                            x       y       z     vdW  Elec       q    Type
REMARK                         _______ _______ _______ _____ _____    ______ ____
ROOT
ATOM      7  N   UNL     1      -4.069   2.267  24.758  0.00  0.00    -0.265 N 
ATOM      8  C   UNL     1      -3.847   1.474  24.773  0.00  0.00    +0.140 C 
ATOM     11  C   UNL     1      -4.421   0.886  24.850  0.00  0.00    +0.159 C 
ATOM     12  O   UNL     1      -5.217   1.092  24.912  0.00  0.00    -0.341 OA
ATOM     13  C   UNL     1      -5.440   1.887  24.896  0.00  0.00    +0.227 C 
ATOM     14  C   UNL     1      -4.866   2.475  24.819  0.00  0.00    +0.256 C 
ATOM     15  O   UNL     1      -5.089   3.269  24.803  0.00  0.00    -0.272 OA
ENDROOT
BRANCH  11  16
ATOM     16  C   UNL     1      -4.199   0.092  24.866  0.00  0.00    +0.006 A 
ATOM     17  C   UNL     1      -3.918  -0.244  25.567  0.00  0.00    -0.001 A 
ATOM     18  C   UNL     1      -3.697  -1.038  25.582  0.00  0.00    +0.018 A 
ATOM     19  C   UNL     1      -3.755  -1.497  24.900  0.00  0.00    +0.091 A 
ATOM     25  C   UNL     1      -4.035  -1.162  24.200  0.00  0.00    +0.018 A 
ATOM     26  C   UNL     1      -4.257  -0.366  24.184  0.00  0.00    -0.001 A 
BRANCH  19  20
ATOM     20  N   UNL     1      -3.533  -2.292  24.916  0.00  0.00    -0.101 NA
BRANCH  20  21
ATOM     21  S   UNL     1      -2.808  -2.523  24.597  0.00  0.00    +0.075 S 
ATOM     22  C   UNL     1      -2.084  -2.756  24.276  0.00  0.00    +0.202 C 
ATOM     23  O   UNL     1      -3.193  -2.784  23.914  0.00  0.00    -0.153 OA
ATOM     24  O   UNL     1      -2.424  -2.264  25.278  0.00  0.00    -0.153 OA
ENDBRANCH  20  21
ENDBRANCH  19  20
ENDBRANCH  11  16
BRANCH   8   9
ATOM      9  C   UNL     1      -3.051   1.267  24.712  0.00  0.00    +0.205 C 
ATOM     10  O   UNL     1      -2.664   1.326  23.986  0.00  0.00    -0.218 OA
ENDBRANCH   8   9
BRANCH   7   6
ATOM      6  C   UNL     1      -3.495   2.856  24.680  0.00  0.00    +0.179 C 
BRANCH   6   4
ATOM      1  C   UNL     1      -2.574   4.429  25.882  0.00  0.00    +0.115 C 
ATOM      2  N   UNL     1      -2.763   3.949  25.237  0.00  0.00    -0.275 N 
ATOM      3  C   UNL     1      -2.408   4.085  24.504  0.00  0.00    +0.115 C 
ATOM      4  C   UNL     1      -3.306   3.335  25.325  0.00  0.00    +0.246 C 
ATOM      5  O   UNL     1      -3.660   3.200  26.058  0.00  0.00    -0.273 OA
ENDBRANCH   6   4
ENDBRANCH   7   6
TORSDOF 6
ENDMDL
MODEL 2
REMARK VINA RESULT:      -8.4      2.525      4.627
REMARK  Name = 
REMARK  6 active torsions:
REMARK  status: ('A' for Active; 'I' for Inactive)
REMARK    1  A    between atoms: C_4  and  C_6
REMARK    2  A    between atoms: C_6  and  N_7
REMARK    3  A    between atoms: C_8  and  C_9
REMARK    4  A    between atoms: C_11  and  C_16
REMARK    5  A    between atoms: C_19  and  N_20
REMARK    6  A    between atoms: N_20  and  S_21
REMARK                            x       y       z     vdW  Elec       q    Type
REMARK                         _______ _______ _______ _____ _____    ______ ____
ROOT
ATOM      7  N   UNL     1      -0.822   1.671  24.563  0.00  0.00    -0.265 N 
ATOM      8  C   UNL     1      -1.625   1.833  24.654  0.00  0.00    +0.140 C 
ATOM     11  C   UNL     1      -1.887   2.615  24.691  0.00  0.00    +0.159 C 
ATOM     12  O   UNL     1      -1.345   3.235  24.635  0.00  0.00    -0.341 OA
ATOM     13  C   UNL     1      -0.541   3.072  24.544  0.00  0.00    +0.227 C 
ATOM     14  C   UNL     1      -0.279   2.291  24.507  0.00  0.00    +0.256 C 
ATOM     15  O   UNL     1       0.525   2.129  24.416  0.00  0.00    -0.272 OA
ENDROOT
BRANCH  11  16
ATOM     16  C   UNL     1      -2.690   2.778  24.782  0.00  0.00    +0.006 A 
ATOM     17  C   UNL     1      -2.977   3.037  25.511  0.00  0.00    -0.001 A 
ATOM     18  C   UNL     1      -3.781   3.200  25.603  0.00  0.00    +0.018 A 
ATOM     19  C   UNL     1      -4.296   3.104  24.968  0.00  0.00    +0.091 A 
ATOM     25  C   UNL     1      -4.010   2.845  24.239  0.00  0.00    +0.018 A 
ATOM     26  C   UNL     1      -3.206   2.682  24.147  0.00  0.00    -0.001 A 
BRANCH  19  20
ATOM     20  N   UNL     1      -5.100   3.267  25.060  0.00  0.00    -0.101 NA
BRANCH  20  21
ATOM     21  S   UNL     1      -5.589   2.725  25.443  0.00  0.00    +0.075 S 
ATOM     22  C   UNL     1      -6.078   2.183  25.828  0.00  0.00    +0.202 C 
ATOM     23  O   UNL     1      -5.509   3.150  26.146  0.00  0.00    -0.153 OA
ATOM     24  O   UNL     1      -5.669   2.300  24.741  0.00  0.00    -0.153 OA
ENDBRANCH  20  21
ENDBRANCH  19  20
ENDBRANCH  11  16
BRANCH   8   9
ATOM      9  C   UNL     1      -2.167   1.215  24.709  0.00  0.00    +0.205 C 
ATOM     10  O   UNL     1      -2.197   0.751  25.392  0.00  0.00    -0.218 OA
ENDBRANCH   8   9
BRANCH   7   6
ATOM      6  C   UNL     1      -0.560   0.889  24.526  0.00  0.00    +0.179 C 
BRANCH   6   4
ATOM      1  C   UNL     1       0.349  -0.480  23.088  0.00  0.00    +0.115 C 
ATOM      2  N   UNL     1       0.050  -0.177  23.796  0.00  0.00    -0.275 N 
ATOM      3  C   UNL     1       0.063  -0.638  24.480  0.00  0.00    +0.115 C 
ATOM      4  C   UNL     1      -0.262   0.587  23.818  0.00  0.00    +0.246 C 
ATOM      5  O   UNL     1      -0.275   1.047  23.134  0.00  0.00    -0.273 OA
ENDBRANCH   6   4
ENDBRANCH   7   6
TORSDOF 6
ENDMDL
MODEL 3
REMARK VINA RESULT:      -8.4      1.879      4.436
REMARK  Name = 
REMARK  6 active torsions:
REMARK  status: ('A' for Active; 'I' for Inactive)
REMARK    1  A    between atoms: C_4  and  C_6
REMARK    2  A    between atoms: C_6  and  N_7
REMARK    3  A    between atoms: C_8  and  C_9
REMARK    4  A    between atoms: C_11  and  C_16
REMARK    5  A    between atoms: C_19  and  N_20
REMARK    6  A    between atoms: N_20  and  S_21
REMARK                            x       y       z     vdW  Elec       q    Type
REMARK                         _______ _______ _______ _____ _____    ______ ____
ROOT
ATOM      7  N   UNL     1      -2.754  -0.875  24.400  0.00  0.00    -0.265 N 
ATOM      8  C   UNL     1      -3.144  -0.163  24.547  0.00  0.00    +0.140 C 
ATOM     11  C   UNL     1      -3.968  -0.132  24.524  0.00  0.00    +0.159 C 
ATOM     12  O   UNL     1      -4.402  -0.811  24.353  0.00  0.00    -0.341 OA
ATOM     13  C   UNL     1      -4.012  -1.524  24.205  0.00  0.00    +0.227 C 
ATOM     14  C   UNL     1      -3.188  -1.555  24.229  0.00  0.00    +0.256 C 
ATOM     15  O   UNL     1      -2.799  -2.268  24.081  0.00  0.00    -0.272 OA
ENDROOT
BRANCH  11  16
ATOM     16  C   UNL     1      -4.358   0.580  24.671  0.00  0.00    +0.006 A 
ATOM     17  C   UNL     1      -4.729   0.704  25.398  0.00  0.00    -0.001 A 
ATOM     18  C   UNL     1      -5.119   1.415  25.546  0.00  0.00    +0.018 A 
ATOM     19  C   UNL     1      -5.139   2.002  24.968  0.00  0.00    +0.091 A 
ATOM     25  C   UNL     1      -4.769   1.879  24.241  0.00  0.00    +0.018 A 
ATOM     26  C   UNL     1      -4.378   1.167  24.093  0.00  0.00    -0.001 A 
BRANCH  19  20
ATOM     20  N   UNL     1      -5.530   2.714  25.116  0.00  0.00    -0.101 NA
BRANCH  20  21
ATOM     21  S   UNL     1      -5.149   3.314  25.534  0.00  0.00    +0.075 S 
ATOM     22  C   UNL     1      -4.768   3.914  25.954  0.00  0.00    +0.202 C 
ATOM     23  O   UNL     1      -5.531   3.074  26.226  0.00  0.00    -0.153 OA
ATOM     24  O   UNL     1      -4.767   3.554  24.844  0.00  0.00    -0.153 OA
ENDBRANCH  20  21
ENDBRANCH  19  20
ENDBRANCH  11  16
BRANCH   8   9
ATOM      9  C   UNL     1      -2.710   0.517  24.719  0.00  0.00    +0.205 C 
ATOM     10  O   UNL     1      -2.272   0.888  24.126  0.00  0.00    -0.218 OA
ENDBRANCH   8   9
BRANCH   7   6
ATOM      6  C   UNL     1      -1.929  -0.906  24.424  0.00  0.00    +0.179 C 
BRANCH   6   4
ATOM      1  C   UNL     1      -0.353  -1.780  25.657  0.00  0.00    +0.115 C 
ATOM      2  N   UNL     1      -0.734  -1.406  25.027  0.00  0.00    -0.275 N 
ATOM      3  C   UNL     1      -0.299  -1.157  24.371  0.00  0.00    +0.115 C 
ATOM      4  C   UNL     1      -1.549  -1.281  25.054  0.00  0.00    +0.246 C 
ATOM      5  O   UNL     1      -1.983  -1.530  25.710  0.00  0.00    -0.273 OA
ENDBRANCH   6   4
ENDBRANCH   7   6
TORSDOF 6
ENDMDL
MODEL 4
REMARK VINA RESULT:      -8.3      2.454      5.314
REMARK  Name = 
REMARK  6 active torsions:
REMARK  status: ('A' for Active; 'I' for Inactive)
REMARK    1  A    between atoms: C_4  and  C_6
REMARK    2  A    between atoms: C_6  and  N_7
REMARK    3  A    between atoms: C_8  and  C_9
REMARK    4  A    between atoms: C_11  and  C_16
REMARK    5  A    between atoms: C_19  and  N_20
REMARK    6  A    between atoms: N_20  and  S_21
REMARK                            x       y       z     vdW  Elec       q    Type
REMARK                         _______ _______ _______ _____ _____    ______ ____
ROOT
ATOM      7  N   UNL     1      -1.673  -0.460  24.456  0.00  0.00    -0.265 N 
ATOM      8  C   UNL     1      -1.607   0.342  24.638  0.00  0.00    +0.140 C 
ATOM     11  C   UNL     1      -0.862   0.689  24.708  0.00  0.00    +0.159 C 
ATOM     12  O   UNL     1      -0.183   0.234  24.595  0.00  0.00    -0.341 OA
ATOM     13  C   UNL     1      -0.249  -0.568  24.413  0.00  0.00    +0.227 C 
ATOM     14  C   UNL     1      -0.994  -0.915  24.343  0.00  0.00    +0.256 C 
ATOM     15  O   UNL     1      -1.060  -1.717  24.161  0.00  0.00    -0.272 OA
ENDROOT
BRANCH  11  16
ATOM     16  C   UNL     1      -0.795   1.490  24.890  0.00  0.00    +0.006 A 
ATOM     17  C   UNL     1      -0.694   2.043  24.285  0.00  0.00    -0.001 A 
ATOM     18  C   UNL     1      -0.627   2.845  24.467  0.00  0.00    +0.018 A 
ATOM     19  C   UNL     1      -0.662   3.094  25.252  0.00  0.00    +0.091 A 
ATOM     25  C   UNL     1      -0.763   2.542  25.856  0.00  0.00    +0.018 A 
ATOM     26  C   UNL     1      -0.830   1.739  25.674  0.00  0.00    -0.001 A 
BRANCH  19  20
ATOM     20  N   UNL     1      -0.595   3.897  25.434  0.00  0.00    -0.101 NA
BRANCH  20  21
ATOM     21  S   UNL     1      -1.195   4.419  25.216  0.00  0.00    +0.075 S 
ATOM     22  C   UNL     1      -1.794   4.943  24.998  0.00  0.00    +0.202 C 
ATOM     23  O   UNL     1      -0.712   4.725  24.620  0.00  0.00    -0.153 OA
ATOM     24  O   UNL     1      -1.677   4.115  25.812  0.00  0.00    -0.153 OA
ENDBRANCH  20  21
ENDBRANCH  19  20
ENDBRANCH  11  16
BRANCH   8   9
ATOM      9  C   UNL     1      -2.286   0.796  24.750  0.00  0.00    +0.205 C 
ATOM     10  O   UNL     1      -2.763   0.993  24.106  0.00  0.00    -0.218 OA
ENDBRANCH   8   9
BRANCH   7   6
ATOM      6  C   UNL     1      -2.419  -0.807  24.386  0.00  0.00    +0.179 C 
BRANCH   6   4
ATOM      1  C   UNL     1      -3.594  -2.360  25.373  0.00  0.00    +0.115 C 
ATOM      2  N   UNL     1      -3.335  -1.821  24.804  0.00  0.00    -0.275 N 
ATOM      3  C   UNL     1      -3.733  -1.759  24.083  0.00  0.00    +0.115 C 
ATOM      4  C   UNL     1      -2.678  -1.346  24.955  0.00  0.00    +0.246 C 
ATOM      5  O   UNL     1      -2.281  -1.409  25.676  0.00  0.00    -0.273 OA
ENDBRANCH   6   4
ENDBRANCH   7   6
TORSDOF 6
ENDMDL
MODEL 5
REMARK VINA RESULT:      -8.2      1.396      2.113
REMARK  Name = 
REMARK  6 active torsions:
REMARK  status: ('A' for Active; 'I' for Inactive)
REMARK    1  A    between atoms: C_4  and  C_6
REMARK    2  A    between atoms: C_6  and  N_7
REMARK    3  A    between atoms: C_8  and  C_9
REMARK    4  A    between atoms: C_11  and  C_16
REMARK    5  A    between atoms: C_19  and  N_20
REMARK    6  A    between atoms: N_20  and  S_21
REMARK                            x       y       z     vdW  Elec       q    Type
REMARK                         _______ _______ _______ _____ _____    ______ ____
ROOT
ATOM      7  N   UNL     1      -2.303   2.220  24.844  0.00  0.00    -0.265 N 
ATOM      8  C   UNL     1      -2.444   1.408  24.819  0.00  0.00    +0.140 C 
ATOM     11  C   UNL     1      -1.892   0.884  25.136  0.00  0.00    +0.159 C 
ATOM     12  O   UNL     1      -1.198   1.171  25.478  0.00  0.00    -0.341 OA
ATOM     13  C   UNL     1      -1.058   1.985  25.504  0.00  0.00    +0.227 C 
ATOM     14  C   UNL     1      -1.610   2.509  25.186  0.00  0.00    +0.256 C 
ATOM     15  O   UNL     1      -1.468   3.322  25.212  0.00  0.00    -0.272 OA
ENDROOT
BRANCH  11  16
ATOM     16  C   UNL     1      -2.032   0.072  25.111  0.00  0.00    +0.006 A 
ATOM     17  C   UNL     1      -1.640  -0.398  24.556  0.00  0.00    -0.001 A 
ATOM     18  C   UNL     1      -1.780  -1.210  24.531  0.00  0.00    +0.018 A 
ATOM     19  C   UNL     1      -2.311  -1.553  25.060  0.00  0.00    +0.091 A 
ATOM     25  C   UNL     1      -2.702  -1.085  25.615  0.00  0.00    +0.018 A 
ATOM     26  C   UNL     1      -2.562  -0.272  25.640  0.00  0.00    -0.001 A 
BRANCH  19  20
ATOM     20  N   UNL     1      -2.451  -2.367  25.035  0.00  0.00    -0.101 NA
BRANCH  20  21
ATOM     21  S   UNL     1      -3.114  -2.658  24.640  0.00  0.00    +0.075 S 
ATOM     22  C   UNL     1      -3.779  -2.950  24.247  0.00  0.00    +0.202 C 
ATOM     23  O   UNL     1      -3.550  -2.611  25.340  0.00  0.00    -0.153 OA
ATOM     24  O   UNL     1      -2.679  -2.706  23.942  0.00  0.00    -0.153 OA
ENDBRANCH  20  21
ENDBRANCH  19  20
ENDBRANCH  11  16
BRANCH   8   9
ATOM      9  C   UNL     1      -3.136   1.120  24.477  0.00  0.00    +0.205 C 
ATOM     10  O   UNL     1      -3.222   1.117  23.656  0.00  0.00    -0.218 OA
ENDBRANCH   8   9
BRANCH   7   6
ATOM      6  C   UNL     1      -2.856   2.745  24.527  0.00  0.00    +0.179 C 
BRANCH   6   4
ATOM      1  C   UNL     1      -4.372   4.159  25.214  0.00  0.00    +0.115 C 
ATOM      2  N   UNL     1      -3.877   3.728  24.713  0.00  0.00    -0.275 N 
ATOM      3  C   UNL     1      -3.908   3.850  23.897  0.00  0.00    +0.115 C 
ATOM      4  C   UNL     1      -3.351   3.175  25.028  0.00  0.00    +0.246 C 
ATOM      5  O   UNL     1      -3.320   3.054  25.843  0.00  0.00    -0.273 OA
ENDBRANCH   6   4
ENDBRANCH   7   6
TORSDOF 6
ENDMDL
MODEL 6
REMARK VINA RESULT:      -8.1      1.757      2.698
REMARK  Name = 
REMARK  6 active torsions:
REMARK  status: ('A' for Active; 'I' for Inactive)
REMARK    1  A    between atoms: C_4  and  C_6
REMARK    2  A    between atoms: C_6  and  N_7
REMARK    3  A    between atoms: C_8  and  C_9
REMARK    4  A    between atoms: C_11  and  C_16
REMARK    5  A    between atoms: C_19  and  N_20
REMARK    6  A    between atoms: N_20  and  S_21
REMARK                            x       y       z     vdW  Elec       q    Type
REMARK                         _______ _______ _______ _____ _____    ______ ____
ROOT
ATOM      7  N   UNL     1      -3.783   2.506  24.613  0.00  0.00    -0.265 N 
ATOM      8  C   UNL     1      -3.242   1.886  24.657  0.00  0.00    +0.140 C 
ATOM     11  C   UNL     1      -2.434   2.037  24.586  0.00  0.00    +0.159 C 
ATOM     12  O   UNL     1      -2.167   2.808  24.471  0.00  0.00    -0.341 OA
ATOM     13  C   UNL     1      -2.708   3.430  24.427  0.00  0.00    +0.227 C 
ATOM     14  C   UNL     1      -3.516   3.279  24.498  0.00  0.00    +0.256 C 
ATOM     15  O   UNL     1      -4.057   3.901  24.454  0.00  0.00    -0.272 OA
ENDROOT
BRANCH  11  16
ATOM     16  C   UNL     1      -1.893   1.416  24.630  0.00  0.00    +0.006 A 
ATOM     17  C   UNL     1      -1.617   1.060  23.937  0.00  0.00    -0.001 A 
ATOM     18  C   UNL     1      -1.076   0.439  23.981  0.00  0.00    +0.018 A 
ATOM     19  C   UNL     1      -0.810   0.175  24.715  0.00  0.00    +0.091 A 
ATOM     25  C   UNL     1      -1.085   0.530  25.407  0.00  0.00    +0.018 A 
ATOM     26  C   UNL     1      -1.627   1.151  25.363  0.00  0.00    -0.001 A 
BRANCH  19  20
ATOM     20  N   UNL     1      -0.268  -0.447  24.758  0.00  0.00    -0.101 NA
BRANCH  20  21
ATOM     21  S   UNL     1      -0.536  -1.226  24.785  0.00  0.00    +0.075 S 
ATOM     22  C   UNL     1      -0.805  -2.006  24.810  0.00  0.00    +0.202 C 
ATOM     23  O   UNL     1      -0.465  -1.278  23.964  0.00  0.00    -0.153 OA
ATOM     24  O   UNL     1      -0.607  -1.175  25.605  0.00  0.00    -0.153 OA
ENDBRANCH  20  21
ENDBRANCH  19  20
ENDBRANCH  11  16
BRANCH   8   9
ATOM      9  C   UNL     1      -3.508   1.114  24.772  0.00  0.00    +0.205 C 
ATOM     10  O   UNL     1      -3.864   0.703  24.151  0.00  0.00    -0.218 OA
ENDBRANCH   8   9
BRANCH   7   6
ATOM      6  C   UNL     1      -4.591   2.355  24.684  0.00  0.00    +0.179 C 
BRANCH   6   4
ATOM      1  C   UNL     1      -6.176   2.530  26.176  0.00  0.00    +0.115 C 
ATOM      2  N   UNL     1      -5.781   2.344  25.475  0.00  0.00    -0.275 N 
ATOM      3  C   UNL     1      -6.183   1.959  24.865  0.00  0.00    +0.115 C 
ATOM      4  C   UNL     1      -4.985   2.542  25.385  0.00  0.00    +0.246 C 
ATOM      5  O   UNL     1      -4.584   2.926  25.995  0.00  0.00    -0.273 OA
ENDBRANCH   6   4
ENDBRANCH   7   6
TORSDOF 6
ENDMDL
