MODEL 1
REMARK VINA RESULT:     -12.0      0.000      0.000
REMARK  Name = 
REMARK  6 active torsions:
REMARK  status: ('A' for Active; 'I' for Inactive)
REMARK    1  A    between atoms: C_5  and  N_8
REMARK    2  A    between atoms: N_8  and  C_9
REMARK    3  A    between atoms: C_9  and  C_10
REMARK    4  A    between atoms: C_12  and  C_13
REMARK    5  A    between atoms: C_13  and  C_14
REMARK    6  A    between atoms: C_17  and  C_19
REMARK                            x       y       z     vdW  Elec       q    Type
REMARK                         _______ _______ _______ _____ _____    ______ ____
ROOT
ATOM     10  C   UNL     1      -4.471   2.992  25.245  0.00  0.00    +0.163 C 
ATOM     11  O   UNL     1      -4.418   2.269  24.851  0.00  0.00    -0.354 OA
ATOM     12  C   UNL     1      -5.062   1.754  24.845  0.00  0.00    +0.121 C 
ATOM     26  C   UNL     1      -5.760   1.962  25.233  0.00  0.00    +0.033 C 
ATOM     27  C   UNL     1      -5.814   2.684  25.627  0.00  0.00    +0.038 C 
ATOM     28  C   UNL     1      -5.168   3.200  25.633  0.00  0.00    +0.180 C 
ATOM     29  O   UNL     1      -5.222   3.922  26.027  0.00  0.00    -0.220 OA
ENDROOT
BRANCH  10   9
ATOM      9  C   UNL     1      -3.827   3.507  25.251  0.00  0.00    +0.121 C 
BRANCH   9   8
ATOM      8  N   UNL     1      -3.092   3.246  25.520  0.00  0.00    -0.217 NA
BRANCH   8   5
ATOM      1  C   UNL     1      -0.357   4.924  24.747  0.00  0.00    +0.090 C 
ATOM      2  N   UNL     1      -1.041   4.504  24.940  0.00  0.00    -0.271 NA
ATOM      3  C   UNL     1      -1.093   3.699  24.769  0.00  0.00    +0.074 C 
ATOM      4  C   UNL     1      -1.777   3.279  24.962  0.00  0.00    +0.035 C 
ATOM      5  C   UNL     1      -2.409   3.665  25.327  0.00  0.00    +0.076 C 
ATOM      6  C   UNL     1      -2.356   4.471  25.498  0.00  0.00    +0.035 C 
ATOM      7  C   UNL     1      -1.673   4.890  25.305  0.00  0.00    +0.074 C 
ENDBRANCH   8   5
ENDBRANCH   9   8
ENDBRANCH  10   9
BRANCH  12  13
ATOM     13  C   UNL     1      -5.009   1.031  24.451  0.00  0.00    +0.079 C 
BRANCH  13  14
ATOM     14  C   UNL     1      -4.595   0.404  24.794  0.00  0.00    +0.103 A 
ATOM     15  N   UNL     1      -4.668   0.143  25.572  0.00  0.00    -0.081 NA
ATOM     16  O   UNL     1      -4.154  -0.494  25.677  0.00  0.00    -0.354 OA
ATOM     17  C   UNL     1      -3.763  -0.626  24.962  0.00  0.00    +0.177 A 
ATOM     18  C   UNL     1      -4.036  -0.070  24.416  0.00  0.00    +0.058 A 
BRANCH  17  19
ATOM     19  C   UNL     1      -3.199  -1.211  24.819  0.00  0.00    +0.037 A 
ATOM     20  C   UNL     1      -3.438  -1.977  24.633  0.00  0.00    +0.005 A 
ATOM     21  C   UNL     1      -2.874  -2.562  24.489  0.00  0.00    +0.030 A 
ATOM     22  C   UNL     1      -2.070  -2.379  24.533  0.00  0.00    +0.140 A 
ATOM     23  F   UNL     1      -1.505  -2.964  24.390  0.00  0.00    -0.204 F 
ATOM     24  C   UNL     1      -1.831  -1.612  24.719  0.00  0.00    +0.030 A 
ATOM     25  C   UNL     1      -2.396  -1.027  24.862  0.00  0.00    +0.005 A 
ENDBRANCH  17  19
ENDBRANCH  13  14
ENDBRANCH  12  13
TORSDOF 6
ENDMDL
MODEL 2
REMARK VINA RESULT:     -11.9      1.616      4.578
REMARK  Name = 
REMARK  6 active torsions:
REMARK  status: ('A' for Active; 'I' for Inactive)
REMARK    1  A    between atoms: C_5  and  N_8
REMARK    2  A    between atoms: N_8  and  C_9
REMARK    3  A    between atoms: C_9  and  C_10
REMARK    4  A    between atoms: C_12  and  C_13
REMARK    5  A    between atoms: C_13  and  C_14
REMARK    6  A    between atoms: C_17  and  C_19
REMARK                            x       y       z     vdW  Elec       q    Type
REMARK                         _______ _______ _______ _____ _____    ______ ____
ROOT
ATOM     10  C   UNL     1      -5.102   1.656  25.157  0.00  0.00    +0.163 C 
ATOM     11  O   UNL     1      -4.544   2.204  24.897  0.00  0.00    -0.354 OA
ATOM     12  C   UNL     1      -4.669   3.010  25.016  0.00  0.00    +0.121 C 
ATOM     26  C   UNL     1      -5.354   3.269  25.396  0.00  0.00    +0.033 C 
ATOM     27  C   UNL     1      -5.914   2.721  25.657  0.00  0.00    +0.038 C 
ATOM     28  C   UNL     1      -5.788   1.914  25.537  0.00  0.00    +0.180 C 
ATOM     29  O   UNL     1      -6.347   1.367  25.797  0.00  0.00    -0.220 OA
ENDROOT
BRANCH  10   9
ATOM      9  C   UNL     1      -4.977   0.850  25.037  0.00  0.00    +0.121 C 
BRANCH   9   8
ATOM      8  N   UNL     1      -4.247   0.582  24.760  0.00  0.00    -0.217 NA
BRANCH   8   5
ATOM      1  C   UNL     1      -3.601  -2.653  24.666  0.00  0.00    +0.090 C 
ATOM      2  N   UNL     1      -3.762  -1.844  24.690  0.00  0.00    -0.271 NA
ATOM      3  C   UNL     1      -3.547  -1.400  25.350  0.00  0.00    +0.074 C 
ATOM      4  C   UNL     1      -3.708  -0.591  25.374  0.00  0.00    +0.035 C 
ATOM      5  C   UNL     1      -4.086  -0.226  24.737  0.00  0.00    +0.076 C 
ATOM      6  C   UNL     1      -4.301  -0.671  24.076  0.00  0.00    +0.035 C 
ATOM      7  C   UNL     1      -4.140  -1.480  24.052  0.00  0.00    +0.074 C 
ENDBRANCH   8   5
ENDBRANCH   9   8
ENDBRANCH  10   9
BRANCH  12  13
ATOM     13  C   UNL     1      -4.111   3.558  24.756  0.00  0.00    +0.079 C 
BRANCH  13  14
ATOM     14  C   UNL     1      -3.406   3.660  25.175  0.00  0.00    +0.103 A 
ATOM     15  N   UNL     1      -3.279   4.201  25.784  0.00  0.00    -0.081 NA
ATOM     16  O   UNL     1      -2.500   4.114  26.043  0.00  0.00    -0.354 OA
ATOM     17  C   UNL     1      -2.147   3.518  25.594  0.00  0.00    +0.177 A 
ATOM     18  C   UNL     1      -2.708   3.237  25.057  0.00  0.00    +0.058 A 
BRANCH  17  19
ATOM     19  C   UNL     1      -1.370   3.251  25.669  0.00  0.00    +0.037 A 
ATOM     20  C   UNL     1      -0.763   3.629  25.259  0.00  0.00    +0.005 A 
ATOM     21  C   UNL     1       0.015   3.361  25.334  0.00  0.00    +0.030 A 
ATOM     22  C   UNL     1       0.183   2.715  25.820  0.00  0.00    +0.140 A 
ATOM     23  F   UNL     1       0.960   2.448  25.895  0.00  0.00    -0.204 F 
ATOM     24  C   UNL     1      -0.425   2.338  26.230  0.00  0.00    +0.030 A 
ATOM     25  C   UNL     1      -1.202   2.606  26.155  0.00  0.00    +0.005 A 
ENDBRANCH  17  19
ENDBRANCH  13  14
ENDBRANCH  12  13
TORSDOF 6
ENDMDL
MODEL 3
REMARK VINA RESULT:     -11.8      1.661      2.189
REMARK  Name = 
REMARK  6 active torsions:
REMARK  status: ('A' for Active; 'I' for Inactive)
REMARK    1  A    between atoms: C_5  and  N_8
REMARK    2  A    between atoms: N_8  and  C_9
REMARK    3  A    between atoms: C_9  and  C_10
REMARK    4  A    between atoms: C_12  and  C_13
REMARK    5  A    between atoms: C_13  and  C_14
REMARK    6  A    between atoms: C_17  and  C_19
REMARK                            x       y       z     vdW  Elec       q    Type
REMARK                         _______ _______ _______ _____ _____    ______ ____
ROOT
ATOM     10  C   UNL     1      -2.695   2.968  24.766  0.00  0.00    +0.163 C 
ATOM     11  O   UNL     1      -3.228   2.392  24.510  0.00  0.00    -0.354 OA
ATOM     12  C   UNL     1      -4.037   2.496  24.629  0.00  0.00    +0.121 C 
ATOM     26  C   UNL     1      -4.314   3.175  25.006  0.00  0.00    +0.033 C 
ATOM     27  C   UNL     1      -3.782   3.751  25.263  0.00  0.00    +0.038 C 
ATOM     28  C   UNL     1      -2.972   3.647  25.143  0.00  0.00    +0.180 C 
ATOM     29  O   UNL     1      -2.441   4.223  25.400  0.00  0.00    -0.220 OA
ENDROOT
BRANCH  10   9
ATOM      9  C   UNL     1      -1.886   2.864  24.646  0.00  0.00    +0.121 C 
BRANCH   9   8
ATOM      8  N   UNL     1      -1.497   2.220  24.984  0.00  0.00    -0.217 NA
BRANCH   8   5
ATOM      1  C   UNL     1       1.281   1.068  23.624  0.00  0.00    +0.090 C 
ATOM      2  N   UNL     1       0.587   1.356  23.964  0.00  0.00    -0.271 NA
ATOM      3  C   UNL     1       0.581   2.096  24.327  0.00  0.00    +0.074 C 
ATOM      4  C   UNL     1      -0.113   2.385  24.668  0.00  0.00    +0.035 C 
ATOM      5  C   UNL     1      -0.803   1.932  24.644  0.00  0.00    +0.076 C 
ATOM      6  C   UNL     1      -0.797   1.191  24.280  0.00  0.00    +0.035 C 
ATOM      7  C   UNL     1      -0.104   0.903  23.941  0.00  0.00    +0.074 C 
ENDBRANCH   8   5
ENDBRANCH   9   8
ENDBRANCH  10   9
BRANCH  12  13
ATOM     13  C   UNL     1      -4.569   1.921  24.373  0.00  0.00    +0.079 C 
BRANCH  13  14
ATOM     14  C   UNL     1      -4.542   1.161  24.696  0.00  0.00    +0.103 A 
ATOM     15  N   UNL     1      -4.816   0.941  25.441  0.00  0.00    -0.081 NA
ATOM     16  O   UNL     1      -4.680   0.133  25.535  0.00  0.00    -0.354 OA
ATOM     17  C   UNL     1      -4.322  -0.147  24.846  0.00  0.00    +0.177 A 
ATOM     18  C   UNL     1      -4.236   0.489  24.327  0.00  0.00    +0.058 A 
BRANCH  17  19
ATOM     19  C   UNL     1      -4.090  -0.926  24.702  0.00  0.00    +0.037 A 
ATOM     20  C   UNL     1      -4.372  -1.324  24.037  0.00  0.00    +0.005 A 
ATOM     21  C   UNL     1      -4.139  -2.103  23.893  0.00  0.00    +0.030 A 
ATOM     22  C   UNL     1      -3.625  -2.482  24.415  0.00  0.00    +0.140 A 
ATOM     23  F   UNL     1      -3.393  -3.261  24.271  0.00  0.00    -0.204 F 
ATOM     24  C   UNL     1      -3.344  -2.084  25.080  0.00  0.00    +0.030 A 
ATOM     25  C   UNL     1      -3.576  -1.305  25.224  0.00  0.00    +0.005 A 
ENDBRANCH  17  19
ENDBRANCH  13  14
ENDBRANCH  12  13
TORSDOF 6
ENDMDL
MODEL 4
REMARK VINA RESULT:     -11.6      1.848      3.364
REMARK  Name = 
REMARK  6 active torsions:
REMARK  status: ('A' for Active; 'I' for Inactive)
REMARK    1  A    between atoms: C_5  and  N_8
REMARK    2  A    between atoms: N_8  and  C_9
REMARK    3  A    between atoms: C_9  and  C_10
REMARK    4  A    between atoms: C_12  and  C_13
REMARK    5  A    between atoms: C_13  and  C_14
REMARK    6  A    between atoms: C_17  and  C_19
REMARK                            x       y       z     vdW  Elec       q    Type
REMARK                         _______ _______ _______ _____ _____    ______ ____
ROOT
ATOM     10  C   UNL     1      -1.503   2.335  25.031  0.00  0.00    +0.163 C 
ATOM     11  O   UNL     1      -1.554   1.578  25.355  0.00  0.00    -0.354 OA
ATOM     12  C   UNL     1      -0.892   1.087  25.365  0.00  0.00    +0.121 C 
ATOM     26  C   UNL     1      -0.177   1.353  25.051  0.00  0.00    +0.033 C 
ATOM     27  C   UNL     1      -0.124   2.110  24.727  0.00  0.00    +0.038 C 
ATOM     28  C   UNL     1      -0.788   2.601  24.717  0.00  0.00    +0.180 C 
ATOM     29  O   UNL     1      -0.735   3.358  24.393  0.00  0.00    -0.220 OA
ENDROOT
BRANCH  10   9
ATOM      9  C   UNL     1      -2.165   2.825  25.021  0.00  0.00    +0.121 C 
BRANCH   9   8
ATOM      8  N   UNL     1      -2.838   2.603  24.598  0.00  0.00    -0.217 NA
BRANCH   8   5
ATOM      1  C   UNL     1      -5.824   3.588  25.601  0.00  0.00    +0.090 C 
ATOM      2  N   UNL     1      -5.077   3.341  25.350  0.00  0.00    -0.271 NA
ATOM      3  C   UNL     1      -4.987   2.609  24.981  0.00  0.00    +0.074 C 
ATOM      4  C   UNL     1      -4.240   2.363  24.730  0.00  0.00    +0.035 C 
ATOM      5  C   UNL     1      -3.584   2.849  24.848  0.00  0.00    +0.076 C 
ATOM      6  C   UNL     1      -3.675   3.582  25.218  0.00  0.00    +0.035 C 
ATOM      7  C   UNL     1      -4.421   3.828  25.468  0.00  0.00    +0.074 C 
ENDBRANCH   8   5
ENDBRANCH   9   8
ENDBRANCH  10   9
BRANCH  12  13
ATOM     13  C   UNL     1      -0.943   0.331  25.689  0.00  0.00    +0.079 C 
BRANCH  13  14
ATOM     14  C   UNL     1      -1.237  -0.293  25.235  0.00  0.00    +0.103 A 
ATOM     15  N   UNL     1      -0.796  -0.778  24.735  0.00  0.00    -0.081 NA
ATOM     16  O   UNL     1      -1.310  -1.326  24.393  0.00  0.00    -0.354 OA
ATOM     17  C   UNL     1      -2.068  -1.179  24.681  0.00  0.00    +0.177 A 
ATOM     18  C   UNL     1      -2.024  -0.540  25.203  0.00  0.00    +0.058 A 
BRANCH  17  19
ATOM     19  C   UNL     1      -2.752  -1.597  24.484  0.00  0.00    +0.037 A 
ATOM     20  C   UNL     1      -3.400  -1.200  24.164  0.00  0.00    +0.005 A 
ATOM     21  C   UNL     1      -4.084  -1.619  23.967  0.00  0.00    +0.030 A 
ATOM     22  C   UNL     1      -4.118  -2.434  24.090  0.00  0.00    +0.140 A 
ATOM     23  F   UNL     1      -4.801  -2.853  23.892  0.00  0.00    -0.204 F 
ATOM     24  C   UNL     1      -3.469  -2.830  24.409  0.00  0.00    +0.030 A 
ATOM     25  C   UNL     1      -2.786  -2.412  24.607  0.00  0.00    +0.005 A 
ENDBRANCH  17  19
ENDBRANCH  13  14
ENDBRANCH  12  13
TORSDOF 6
ENDMDL
MODEL 5
REMARK VINA RESULT:     -11.6      2.204      5.059
REMARK  Name = 
REMARK  6 active torsions:
REMARK  status: ('A' for Active; 'I' for Inactive)
REMARK    1  A    between atoms: C_5  and  N_8
REMARK    2  A    between atoms: N_8  and  C_9
REMARK    3  A    between atoms: C_9  and  C_10
REMARK    4  A    between atoms: C_12  and  C_13
REMARK    5  A    between atoms: C_13  and  C_14
REMARK    6  A    between atoms: C_17  and  C_19
REMARK                            x       y       z     vdW  Elec       q    Type
REMARK                         _______ _______ _______ _____ _____    ______ ____
ROOT
ATOM     10  C   UNL     1      -0.590   1.870  24.941  0.00  0.00    +0.163 C 
ATOM     11  O   UNL     1      -1.202   2.260  25.332  0.00  0.00    -0.354 OA
ATOM     12  C   UNL     1      -1.199   3.082  25.389  0.00  0.00    +0.121 C 
ATOM     26  C   UNL     1      -0.583   3.516  25.053  0.00  0.00    +0.033 C 
ATOM     27  C   UNL     1       0.030   3.127  24.661  0.00  0.00    +0.038 C 
ATOM     28  C   UNL     1       0.026   2.303  24.605  0.00  0.00    +0.180 C 
ATOM     29  O   UNL     1       0.639   1.915  24.213  0.00  0.00    -0.220 OA
ENDROOT
BRANCH  10   9
ATOM      9  C   UNL     1      -0.593   1.047  24.884  0.00  0.00    +0.121 C 
BRANCH   9   8
ATOM      8  N   UNL     1      -1.087   0.602  25.373  0.00  0.00    -0.217 NA
BRANCH   8   5
ATOM      1  C   UNL     1      -1.834  -2.511  24.570  0.00  0.00    +0.090 C 
ATOM      2  N   UNL     1      -1.647  -1.733  24.771  0.00  0.00    -0.271 NA
ATOM      3  C   UNL     1      -0.906  -1.555  25.086  0.00  0.00    +0.074 C 
ATOM      4  C   UNL     1      -0.719  -0.776  25.287  0.00  0.00    +0.035 C 
ATOM      5  C   UNL     1      -1.274  -0.176  25.172  0.00  0.00    +0.076 C 
ATOM      6  C   UNL     1      -2.015  -0.355  24.857  0.00  0.00    +0.035 C 
ATOM      7  C   UNL     1      -2.202  -1.132  24.656  0.00  0.00    +0.074 C 
ENDBRANCH   8   5
ENDBRANCH   9   8
ENDBRANCH  10   9
BRANCH  12  13
ATOM     13  C   UNL     1      -1.811   3.472  25.780  0.00  0.00    +0.079 C 
BRANCH  13  14
ATOM     14  C   UNL     1      -2.564   3.503  25.441  0.00  0.00    +0.103 A 
ATOM     15  N   UNL     1      -2.817   4.045  24.874  0.00  0.00    -0.081 NA
ATOM     16  O   UNL     1      -3.604   3.874  24.693  0.00  0.00    -0.354 OA
ATOM     17  C   UNL     1      -3.836   3.227  25.149  0.00  0.00    +0.177 A 
ATOM     18  C   UNL     1      -3.193   2.997  25.612  0.00  0.00    +0.058 A 
BRANCH  17  19
ATOM     19  C   UNL     1      -4.581   2.872  25.143  0.00  0.00    +0.037 A 
ATOM     20  C   UNL     1      -5.186   3.175  25.614  0.00  0.00    +0.005 A 
ATOM     21  C   UNL     1      -5.931   2.820  25.608  0.00  0.00    +0.030 A 
ATOM     22  C   UNL     1      -6.070   2.161  25.130  0.00  0.00    +0.140 A 
ATOM     23  F   UNL     1      -6.815   1.806  25.124  0.00  0.00    -0.204 F 
ATOM     24  C   UNL     1      -5.465   1.858  24.659  0.00  0.00    +0.030 A 
ATOM     25  C   UNL     1      -4.719   2.214  24.665  0.00  0.00    +0.005 A 
ENDBRANCH  17  19
ENDBRANCH  13  14
ENDBRANCH  12  13
TORSDOF 6
ENDMDL
MODEL 6
REMARK VINA RESULT:     -11.1      2.115      4.136
REMARK  Name = 
REMARK  6 active torsions:
REMARK  status: ('A' for Active; 'I' for Inactive)
REMARK    1  A    between atoms: C_5  and  N_8
REMARK    2  A    between atoms: N_8  and  C_9
REMARK    3  A    between atoms: C_9  and  C_10
REMARK    4  A    between atoms: C_12  and  C_13
REMARK    5  A    between atoms: C_13  and  C_14
REMARK    6  A    between atoms: C_17  and  C_19
REMARK                            x       y       z     vdW  Elec       q    Type
REMARK                         _______ _______ _______ _____ _____    ______ ____
ROOT
ATOM     10  C   UNL     1      -1.128  -0.316  24.739  0.00  0.00    +0.163 C 
ATOM     11  O   UNL     1      -1.897  -0.334  25.036  0.00  0.00    -0.354 OA
ATOM     12  C   UNL     1      -2.302  -1.050  25.092  0.00  0.00    +0.121 C 
ATOM     26  C   UNL     1      -1.937  -1.749  24.851  0.00  0.00    +0.033 C 
ATOM     27  C   UNL     1      -1.168  -1.733  24.554  0.00  0.00    +0.038 C 
ATOM     28  C   UNL     1      -0.763  -1.015  24.497  0.00  0.00    +0.180 C 
ATOM     29  O   UNL     1       0.006  -0.999  24.200  0.00  0.00    -0.220 OA
ENDROOT
BRANCH  10   9
ATOM      9  C   UNL     1      -0.723   0.400  24.682  0.00  0.00    +0.121 C 
BRANCH   9   8
ATOM      8  N   UNL     1      -0.667   0.896  25.340  0.00  0.00    -0.217 NA
BRANCH   8   5
ATOM      1  C   UNL     1      -0.622   4.172  24.942  0.00  0.00    +0.090 C 
ATOM      2  N   UNL     1      -0.634   3.353  25.042  0.00  0.00    -0.271 NA
ATOM      3  C   UNL     1      -0.806   3.029  25.780  0.00  0.00    +0.074 C 
ATOM      4  C   UNL     1      -0.817   2.210  25.880  0.00  0.00    +0.035 C 
ATOM      5  C   UNL     1      -0.656   1.714  25.240  0.00  0.00    +0.076 C 
ATOM      6  C   UNL     1      -0.484   2.038  24.501  0.00  0.00    +0.035 C 
ATOM      7  C   UNL     1      -0.473   2.857  24.401  0.00  0.00    +0.074 C 
ENDBRANCH   8   5
ENDBRANCH   9   8
ENDBRANCH  10   9
BRANCH  12  13
ATOM     13  C   UNL     1      -3.071  -1.067  25.389  0.00  0.00    +0.079 C 
BRANCH  13  14
ATOM     14  C   UNL     1      -3.643  -0.557  25.082  0.00  0.00    +0.103 A 
ATOM     15  N   UNL     1      -4.103  -0.692  24.412  0.00  0.00    -0.081 NA
ATOM     16  O   UNL     1      -4.599  -0.041  24.308  0.00  0.00    -0.354 OA
ATOM     17  C   UNL     1      -4.446   0.496  24.915  0.00  0.00    +0.177 A 
ATOM     18  C   UNL     1      -3.854   0.177  25.394  0.00  0.00    +0.058 A 
BRANCH  17  19
ATOM     19  C   UNL     1      -4.818   1.225  25.024  0.00  0.00    +0.037 A 
ATOM     20  C   UNL     1      -4.472   1.913  24.730  0.00  0.00    +0.005 A 
ATOM     21  C   UNL     1      -4.845   2.641  24.839  0.00  0.00    +0.030 A 
ATOM     22  C   UNL     1      -5.564   2.680  25.242  0.00  0.00    +0.140 A 
ATOM     23  F   UNL     1      -5.936   3.409  25.351  0.00  0.00    -0.204 F 
ATOM     24  C   UNL     1      -5.909   1.992  25.536  0.00  0.00    +0.030 A 
ATOM     25  C   UNL     1      -5.537   1.263  25.427  0.00  0.00    +0.005 A 
ENDBRANCH  17  19
ENDBRANCH  13  14
ENDBRANCH  12  13
TORSDOF 6
ENDMDL
MODEL 7
REMARK VINA RESULT:      -9.2     16.114     19.023
REMARK  Name = 
REMARK  6 active torsions:
REMARK  status: ('A' for Active; 'I' for Inactive)
REMARK    1  A    between atoms: C_5  and  N_8
REMARK    2  A    between atoms: N_8  and  C_9
REMARK    3  A    between atoms: C_9  and  C_10
REMARK    4  A    between atoms: C_12  and  C_13
REMARK    5  A    between atoms: C_13  and  C_14
REMARK    6  A    between atoms: C_17  and  C_19
REMARK                            x       y       z     vdW  Elec       q    Type
REMARK                         _______ _______ _______ _____ _____    ______ ____
ROOT
ATOM     10  C   UNL     1      14.178   7.853  18.206  0.00  0.00    +0.163 C 
ATOM     11  O   UNL     1      13.619   8.355  18.548  0.00  0.00    -0.354 OA
ATOM     12  C   UNL     1      12.958   8.592  18.117  0.00  0.00    +0.121 C 
ATOM     26  C   UNL     1      12.854   8.327  17.343  0.00  0.00    +0.033 C 
ATOM     27  C   UNL     1      13.412   7.825  17.000  0.00  0.00    +0.038 C 
ATOM     28  C   UNL     1      14.074   7.588  17.432  0.00  0.00    +0.180 C 
ATOM     29  O   UNL     1      14.632   7.086  17.089  0.00  0.00    -0.220 OA
ENDROOT
BRANCH  10   9
ATOM      9  C   UNL     1      14.839   7.616  18.638  0.00  0.00    +0.121 C 
BRANCH   9   8
ATOM      8  N   UNL     1      14.843   7.686  19.460  0.00  0.00    -0.217 NA
BRANCH   8   5
ATOM      1  C   UNL     1      17.382   6.506  21.207  0.00  0.00    +0.090 C 
ATOM      2  N   UNL     1      16.747   6.802  20.770  0.00  0.00    -0.271 NA
ATOM      3  C   UNL     1      16.796   7.548  20.424  0.00  0.00    +0.074 C 
ATOM      4  C   UNL     1      16.162   7.844  19.987  0.00  0.00    +0.035 C 
ATOM      5  C   UNL     1      15.477   7.391  19.897  0.00  0.00    +0.076 C 
ATOM      6  C   UNL     1      15.428   6.644  20.243  0.00  0.00    +0.035 C 
ATOM      7  C   UNL     1      16.062   6.349  20.680  0.00  0.00    +0.074 C 
ENDBRANCH   8   5
ENDBRANCH   9   8
ENDBRANCH  10   9
BRANCH  12  13
ATOM     13  C   UNL     1      12.400   9.093  18.459  0.00  0.00    +0.079 C 
BRANCH  13  14
ATOM     14  C   UNL     1      11.824   8.786  18.966  0.00  0.00    +0.103 A 
ATOM     15  N   UNL     1      11.131   8.404  18.736  0.00  0.00    -0.081 NA
ATOM     16  O   UNL     1      10.720   8.190  19.419  0.00  0.00    -0.354 OA
ATOM     17  C   UNL     1      11.161   8.440  20.070  0.00  0.00    +0.177 A 
ATOM     18  C   UNL     1      11.844   8.809  19.790  0.00  0.00    +0.058 A 
BRANCH  17  19
ATOM     19  C   UNL     1      10.954   8.338  20.863  0.00  0.00    +0.037 A 
ATOM     20  C   UNL     1      10.838   8.996  21.346  0.00  0.00    +0.005 A 
ATOM     21  C   UNL     1      10.631   8.895  22.139  0.00  0.00    +0.030 A 
ATOM     22  C   UNL     1      10.541   8.134  22.447  0.00  0.00    +0.140 A 
ATOM     23  F   UNL     1      10.334   8.033  23.239  0.00  0.00    -0.204 F 
ATOM     24  C   UNL     1      10.657   7.477  21.963  0.00  0.00    +0.030 A 
ATOM     25  C   UNL     1      10.864   7.578  21.170  0.00  0.00    +0.005 A 
ENDBRANCH  17  19
ENDBRANCH  13  14
ENDBRANCH  12  13
TORSDOF 6
ENDMDL
MODEL 8
REMARK VINA RESULT:      -8.6     17.030     18.954
REMARK  Name = 
REMARK  6 active torsions:
REMARK  status: ('A' for Active; 'I' for Inactive)
REMARK    1  A    between atoms: C_5  and  N_8
REMARK    2  A    between atoms: N_8  and  C_9
REMARK    3  A    between atoms: C_9  and  C_10
REMARK    4  A    between atoms: C_12  and  C_13
REMARK    5  A    between atoms: C_13  and  C_14
REMARK    6  A    between atoms: C_17  and  C_19
REMARK                            x       y       z     vdW  Elec       q    Type
REMARK                         _______ _______ _______ _____ _____    ______ ____
ROOT
ATOM     10  C   UNL     1      11.644   8.565  20.078  0.00  0.00    +0.163 C 
ATOM     11  O   UNL     1      12.434   8.630  20.310  0.00  0.00    -0.354 OA
ATOM     12  C   UNL     1      12.645   8.499  21.096  0.00  0.00    +0.121 C 
ATOM     26  C   UNL     1      12.068   8.303  21.651  0.00  0.00    +0.033 C 
ATOM     27  C   UNL     1      11.278   8.238  21.421  0.00  0.00    +0.038 C 
ATOM     28  C   UNL     1      11.067   8.369  20.633  0.00  0.00    +0.180 C 
ATOM     29  O   UNL     1      10.277   8.304  20.403  0.00  0.00    -0.220 OA
ENDROOT
BRANCH  10   9
ATOM      9  C   UNL     1      11.433   8.696  19.292  0.00  0.00    +0.121 C 
BRANCH   9   8
ATOM      8  N   UNL     1      11.768   8.239  18.692  0.00  0.00    -0.217 NA
BRANCH   8   5
ATOM      1  C   UNL     1      11.349   9.094  15.532  0.00  0.00    +0.090 C 
ATOM      2  N   UNL     1      11.454   8.880  16.322  0.00  0.00    -0.271 NA
ATOM      3  C   UNL     1      12.203   8.920  16.665  0.00  0.00    +0.074 C 
ATOM      4  C   UNL     1      12.309   8.707  17.455  0.00  0.00    +0.035 C 
ATOM      5  C   UNL     1      11.663   8.452  17.903  0.00  0.00    +0.076 C 
ATOM      6  C   UNL     1      10.914   8.412  17.560  0.00  0.00    +0.035 C 
ATOM      7  C   UNL     1      10.809   8.625  16.770  0.00  0.00    +0.074 C 
ENDBRANCH   8   5
ENDBRANCH   9   8
ENDBRANCH  10   9
BRANCH  12  13
ATOM     13  C   UNL     1      13.434   8.564  21.327  0.00  0.00    +0.079 C 
BRANCH  13  14
ATOM     14  C   UNL     1      13.950   7.928  21.219  0.00  0.00    +0.103 A 
ATOM     15  N   UNL     1      13.969   7.239  21.671  0.00  0.00    -0.081 NA
ATOM     16  O   UNL     1      14.567   6.755  21.371  0.00  0.00    -0.354 OA
ATOM     17  C   UNL     1      14.917   7.146  20.735  0.00  0.00    +0.177 A 
ATOM     18  C   UNL     1      14.535   7.872  20.640  0.00  0.00    +0.058 A 
BRANCH  17  19
ATOM     19  C   UNL     1      15.539   6.862  20.273  0.00  0.00    +0.037 A 
ATOM     20  C   UNL     1      16.276   6.723  20.616  0.00  0.00    +0.005 A 
ATOM     21  C   UNL     1      16.899   6.438  20.155  0.00  0.00    +0.030 A 
ATOM     22  C   UNL     1      16.782   6.293  19.350  0.00  0.00    +0.140 A 
ATOM     23  F   UNL     1      17.405   6.009  18.889  0.00  0.00    -0.204 F 
ATOM     24  C   UNL     1      16.046   6.432  19.008  0.00  0.00    +0.030 A 
ATOM     25  C   UNL     1      15.423   6.717  19.470  0.00  0.00    +0.005 A 
ENDBRANCH  17  19
ENDBRANCH  13  14
ENDBRANCH  12  13
TORSDOF 6
ENDMDL
