MODEL 1
REMARK VINA RESULT:     -12.1      0.000      0.000
REMARK  Name = 
REMARK  8 active torsions:
REMARK  status: ('A' for Active; 'I' for Inactive)
REMARK    1  A    between atoms: O_2  and  C_3
REMARK    2  A    between atoms: C_3  and  C_5
REMARK    3  A    between atoms: C_18  and  N_29
REMARK    4  A    between atoms: C_20  and  C_22
REMARK    5  A    between atoms: N_29  and  C_30
REMARK    6  A    between atoms: C_30  and  C_31
REMARK    7  A    between atoms: C_31  and  C_32
REMARK    8  A    between atoms: C_32  and  N_33
REMARK                            x       y       z     vdW  Elec       q    Type
REMARK                         _______ _______ _______ _____ _____    ______ ____
ROOT
ATOM      5  C   UNL     1      -2.824   1.238  24.779  0.00  0.00    +0.162 C 
ATOM      6  C   UNL     1      -2.877   2.046  24.932  0.00  0.00    +0.055 C 
ATOM      7  C   UNL     1      -2.198   2.515  24.912  0.00  0.00    -0.004 A 
ATOM      8  C   UNL     1      -1.466   2.176  24.740  0.00  0.00    +0.070 A 
ATOM      9  N   UNL     1      -0.897   2.772  24.760  0.00  0.00    -0.249 NA
ATOM     10  C   UNL     1      -1.276   3.481  24.945  0.00  0.00    +0.081 A 
ATOM     11  C   UNL     1      -2.081   3.322  25.039  0.00  0.00    +0.015 A 
ATOM     12  C   UNL     1      -2.602   3.933  25.228  0.00  0.00    +0.001 A 
ATOM     13  C   UNL     1      -2.320   4.702  25.323  0.00  0.00    +0.000 A 
ATOM     14  C   UNL     1      -1.515   4.861  25.229  0.00  0.00    +0.002 A 
ATOM     15  C   UNL     1      -0.993   4.250  25.040  0.00  0.00    +0.019 A 
ATOM     16  C   UNL     1      -1.413   1.366  24.587  0.00  0.00    +0.100 C 
ATOM     17  C   UNL     1      -0.682   1.026  24.414  0.00  0.00    +0.040 C 
ATOM     18  C   UNL     1      -0.629   0.217  24.261  0.00  0.00    +0.076 C 
ATOM     19  C   UNL     1      -1.308  -0.251  24.280  0.00  0.00    +0.038 C 
ATOM     20  C   UNL     1      -2.039   0.089  24.453  0.00  0.00    +0.082 C 
ATOM     21  N   UNL     1      -2.092   0.897  24.606  0.00  0.00    -0.258 NA
ENDROOT
BRANCH  20  22
ATOM     22  C   UNL     1      -2.718  -0.381  24.472  0.00  0.00    -0.007 A 
ATOM     23  C   UNL     1      -3.250  -0.362  23.843  0.00  0.00    -0.003 A 
ATOM     24  C   UNL     1      -3.928  -0.832  23.863  0.00  0.00    +0.001 A 
ATOM     25  C   UNL     1      -4.073  -1.320  24.513  0.00  0.00    +0.011 A 
ATOM     26  C   UNL     1      -3.540  -1.339  25.142  0.00  0.00    +0.057 A 
ATOM     27 CL   UNL     1      -3.685  -1.827  25.791  0.00  0.00    -0.082 Cl
ATOM     28  C   UNL     1      -2.862  -0.869  25.122  0.00  0.00    +0.008 A 
ENDBRANCH  20  22
BRANCH   5   3
ATOM      3  C   UNL     1      -3.503   0.769  24.798  0.00  0.00    +0.332 C 
ATOM      4  O   UNL     1      -4.003   0.158  24.560  0.00  0.00    -0.249 OA
BRANCH   3   2
ATOM      1  C   UNL     1      -4.776   1.329  25.123  0.00  0.00    +0.256 C 
ATOM      2  O   UNL     1      -4.095   0.923  25.351  0.00  0.00    -0.443 OA
ENDBRANCH   3   2
ENDBRANCH   5   3
BRANCH  18  29
ATOM     29  N   UNL     1       0.102  -0.123  24.088  0.00  0.00    -0.219 NA
BRANCH  29  30
ATOM     30  C   UNL     1       0.500   0.083  23.396  0.00  0.00    +0.091 C 
BRANCH  30  31
ATOM     31  C   UNL     1       1.301  -0.097  23.310  0.00  0.00    +0.043 C 
BRANCH  31  32
ATOM     32  C   UNL     1       1.716   0.175  22.651  0.00  0.00    +0.109 C 
BRANCH  32  33
ATOM     33  N   UNL     1       2.536   0.262  22.688  0.00  0.00    -0.308 N 
ATOM     34  C   UNL     1       2.945   0.974  22.771  0.00  0.00    +0.098 A 
ATOM     35  C   UNL     1       3.753   0.804  22.783  0.00  0.00    +0.119 A 
ATOM     36  N   UNL     1       3.842  -0.014  22.707  0.00  0.00    -0.222 NA
ATOM     37  C   UNL     1       3.090  -0.348  22.649  0.00  0.00    +0.179 A 
ENDBRANCH  32  33
ENDBRANCH  31  32
ENDBRANCH  30  31
ENDBRANCH  29  30
ENDBRANCH  18  29
TORSDOF 8
ENDMDL
MODEL 2
REMARK VINA RESULT:     -11.7      1.342      3.502
REMARK  Name = 
REMARK  8 active torsions:
REMARK  status: ('A' for Active; 'I' for Inactive)
REMARK    1  A    between atoms: O_2  and  C_3
REMARK    2  A    between atoms: C_3  and  C_5
REMARK    3  A    between atoms: C_18  and  N_29
REMARK    4  A    between atoms: C_20  and  C_22
REMARK    5  A    between atoms: N_29  and  C_30
REMARK    6  A    between atoms: C_30  and  C_31
REMARK    7  A    between atoms: C_31  and  C_32
REMARK    8  A    between atoms: C_32  and  N_33
REMARK                            x       y       z     vdW  Elec       q    Type
REMARK                         _______ _______ _______ _____ _____    ______ ____
ROOT
ATOM      5  C   UNL     1      -3.278   0.941  24.584  0.00  0.00    +0.162 C 
ATOM      6  C   UNL     1      -3.623   0.193  24.608  0.00  0.00    +0.055 C 
ATOM      7  C   UNL     1      -3.151  -0.482  24.547  0.00  0.00    -0.004 A 
ATOM      8  C   UNL     1      -2.334  -0.408  24.460  0.00  0.00    +0.070 A 
ATOM      9  N   UNL     1      -2.013  -1.165  24.413  0.00  0.00    -0.249 NA
ATOM     10  C   UNL     1      -2.630  -1.709  24.470  0.00  0.00    +0.081 A 
ATOM     11  C   UNL     1      -3.335  -1.286  24.553  0.00  0.00    +0.015 A 
ATOM     12  C   UNL     1      -4.052  -1.688  24.623  0.00  0.00    +0.001 A 
ATOM     13  C   UNL     1      -4.065  -2.514  24.610  0.00  0.00    +0.000 A 
ATOM     14  C   UNL     1      -3.360  -2.936  24.528  0.00  0.00    +0.002 A 
ATOM     15  C   UNL     1      -2.643  -2.534  24.458  0.00  0.00    +0.019 A 
ATOM     16  C   UNL     1      -1.988   0.342  24.436  0.00  0.00    +0.100 C 
ATOM     17  C   UNL     1      -1.172   0.417  24.350  0.00  0.00    +0.040 C 
ATOM     18  C   UNL     1      -0.827   1.165  24.326  0.00  0.00    +0.076 C 
ATOM     19  C   UNL     1      -1.298   1.839  24.387  0.00  0.00    +0.038 C 
ATOM     20  C   UNL     1      -2.115   1.764  24.474  0.00  0.00    +0.082 C 
ATOM     21  N   UNL     1      -2.460   1.016  24.498  0.00  0.00    -0.258 NA
ENDROOT
BRANCH  20  22
ATOM     22  C   UNL     1      -2.586   2.439  24.535  0.00  0.00    -0.007 A 
ATOM     23  C   UNL     1      -3.036   2.689  23.891  0.00  0.00    -0.003 A 
ATOM     24  C   UNL     1      -3.506   3.364  23.954  0.00  0.00    +0.001 A 
ATOM     25  C   UNL     1      -3.527   3.788  24.661  0.00  0.00    +0.011 A 
ATOM     26  C   UNL     1      -3.077   3.538  25.305  0.00  0.00    +0.057 A 
ATOM     27 CL   UNL     1      -3.098   3.963  26.013  0.00  0.00    -0.082 Cl
ATOM     28  C   UNL     1      -2.607   2.863  25.243  0.00  0.00    +0.008 A 
ENDBRANCH  20  22
BRANCH   5   3
ATOM      3  C   UNL     1      -3.749   1.615  24.646  0.00  0.00    +0.332 C 
ATOM      4  O   UNL     1      -3.991   2.384  24.471  0.00  0.00    -0.249 OA
BRANCH   3   2
ATOM      1  C   UNL     1      -5.153   1.512  24.888  0.00  0.00    +0.256 C 
ATOM      2  O   UNL     1      -4.387   1.626  25.169  0.00  0.00    -0.443 OA
ENDBRANCH   3   2
ENDBRANCH   5   3
BRANCH  18  29
ATOM     29  N   UNL     1      -0.009   1.240  24.239  0.00  0.00    -0.219 NA
BRANCH  29  30
ATOM     30  C   UNL     1       0.375   0.872  23.608  0.00  0.00    +0.091 C 
BRANCH  30  31
ATOM     31  C   UNL     1       1.195   0.926  23.536  0.00  0.00    +0.043 C 
BRANCH  31  32
ATOM     32  C   UNL     1       1.595   0.434  23.009  0.00  0.00    +0.109 C 
BRANCH  32  33
ATOM     33  N   UNL     1       2.401   0.546  22.872  0.00  0.00    -0.308 N 
ATOM     34  C   UNL     1       2.883   0.071  22.399  0.00  0.00    +0.098 A 
ATOM     35  C   UNL     1       3.647   0.383  22.420  0.00  0.00    +0.119 A 
ATOM     36  N   UNL     1       3.637   1.051  22.905  0.00  0.00    -0.222 NA
ATOM     37  C   UNL     1       2.867   1.151  23.185  0.00  0.00    +0.179 A 
ENDBRANCH  32  33
ENDBRANCH  31  32
ENDBRANCH  30  31
ENDBRANCH  29  30
ENDBRANCH  18  29
TORSDOF 8
ENDMDL
MODEL 3
REMARK VINA RESULT:     -10.0      2.737      3.706
REMARK  Name = 
REMARK  8 active torsions:
REMARK  status: ('A' for Active; 'I' for Inactive)
REMARK    1  A    between atoms: O_2  and  C_3
REMARK    2  A    between atoms: C_3  and  C_5
REMARK    3  A    between atoms: C_18  and  N_29
REMARK    4  A    between atoms: C_20  and  C_22
REMARK    5  A    between atoms: N_29  and  C_30
REMARK    6  A    between atoms: C_30  and  C_31
REMARK    7  A    between atoms: C_31  and  C_32
REMARK    8  A    between atoms: C_32  and  N_33
REMARK                            x       y       z     vdW  Elec       q    Type
REMARK                         _______ _______ _______ _____ _____    ______ ____
ROOT
ATOM      5  C   UNL     1      -3.857   3.191  25.083  0.00  0.00    +0.162 C 
ATOM      6  C   UNL     1      -3.391   3.868  25.139  0.00  0.00    +0.055 C 
ATOM      7  C   UNL     1      -2.581   3.825  24.986  0.00  0.00    -0.004 A 
ATOM      8  C   UNL     1      -2.238   3.105  24.776  0.00  0.00    +0.070 A 
ATOM      9  N   UNL     1      -1.432   3.231  24.658  0.00  0.00    -0.249 NA
ATOM     10  C   UNL     1      -1.275   4.030  24.794  0.00  0.00    +0.081 A 
ATOM     11  C   UNL     1      -1.987   4.397  24.997  0.00  0.00    +0.015 A 
ATOM     12  C   UNL     1      -2.000   5.204  25.165  0.00  0.00    +0.001 A 
ATOM     13  C   UNL     1      -1.303   5.645  25.131  0.00  0.00    +0.000 A 
ATOM     14  C   UNL     1      -0.592   5.277  24.928  0.00  0.00    +0.002 A 
ATOM     15  C   UNL     1      -0.578   4.470  24.760  0.00  0.00    +0.019 A 
ATOM     16  C   UNL     1      -2.705   2.427  24.720  0.00  0.00    +0.100 C 
ATOM     17  C   UNL     1      -2.363   1.706  24.511  0.00  0.00    +0.040 C 
ATOM     18  C   UNL     1      -2.830   1.029  24.455  0.00  0.00    +0.076 C 
ATOM     19  C   UNL     1      -3.639   1.071  24.608  0.00  0.00    +0.038 C 
ATOM     20  C   UNL     1      -3.981   1.792  24.818  0.00  0.00    +0.082 C 
ATOM     21  N   UNL     1      -3.515   2.469  24.874  0.00  0.00    -0.258 NA
ENDROOT
BRANCH  20  22
ATOM     22  C   UNL     1      -4.791   1.834  24.971  0.00  0.00    -0.007 A 
ATOM     23  C   UNL     1      -5.306   2.120  24.395  0.00  0.00    -0.003 A 
ATOM     24  C   UNL     1      -6.116   2.161  24.549  0.00  0.00    +0.001 A 
ATOM     25  C   UNL     1      -6.410   1.917  25.281  0.00  0.00    +0.011 A 
ATOM     26  C   UNL     1      -5.894   1.631  25.857  0.00  0.00    +0.057 A 
ATOM     27 CL   UNL     1      -6.188   1.387  26.589  0.00  0.00    -0.082 Cl
ATOM     28  C   UNL     1      -5.085   1.590  25.703  0.00  0.00    +0.008 A 
ENDBRANCH  20  22
BRANCH   5   3
ATOM      3  C   UNL     1      -4.667   3.233  25.237  0.00  0.00    +0.332 C 
ATOM      4  O   UNL     1      -5.464   3.043  25.139  0.00  0.00    -0.249 OA
BRANCH   3   2
ATOM      1  C   UNL     1      -5.319   4.448  25.609  0.00  0.00    +0.256 C 
ATOM      2  O   UNL     1      -4.950   3.742  25.821  0.00  0.00    -0.443 OA
ENDBRANCH   3   2
ENDBRANCH   5   3
BRANCH  18  29
ATOM     29  N   UNL     1      -2.487   0.308  24.245  0.00  0.00    -0.219 NA
BRANCH  29  30
ATOM     30  C   UNL     1      -2.311  -0.250  24.827  0.00  0.00    +0.091 C 
BRANCH  30  31
ATOM     31  C   UNL     1      -2.168  -1.035  24.616  0.00  0.00    +0.043 C 
BRANCH  31  32
ATOM     32  C   UNL     1      -2.384  -1.644  25.129  0.00  0.00    +0.109 C 
BRANCH  32  33
ATOM     33  N   UNL     1      -2.706  -2.341  24.826  0.00  0.00    -0.308 N 
ATOM     34  C   UNL     1      -3.473  -2.618  24.957  0.00  0.00    +0.098 A 
ATOM     35  C   UNL     1      -3.559  -3.332  24.551  0.00  0.00    +0.119 A 
ATOM     36  N   UNL     1      -2.846  -3.496  24.169  0.00  0.00    -0.222 NA
ATOM     37  C   UNL     1      -2.319  -2.883  24.339  0.00  0.00    +0.179 A 
ENDBRANCH  32  33
ENDBRANCH  31  32
ENDBRANCH  30  31
ENDBRANCH  29  30
ENDBRANCH  18  29
TORSDOF 8
ENDMDL
MODEL 4
REMARK VINA RESULT:      -9.9      2.273      4.947
REMARK  Name = 
REMARK  8 active torsions:
REMARK  status: ('A' for Active; 'I' for Inactive)
REMARK    1  A    between atoms: O_2  and  C_3
REMARK    2  A    between atoms: C_3  and  C_5
REMARK    3  A    between atoms: C_18  and  N_29
REMARK    4  A    between atoms: C_20  and  C_22
REMARK    5  A    between atoms: N_29  and  C_30
REMARK    6  A    between atoms: C_30  and  C_31
REMARK    7  A    between atoms: C_31  and  C_32
REMARK    8  A    between atoms: C_32  and  N_33
REMARK                            x       y       z     vdW  Elec       q    Type
REMARK                         _______ _______ _______ _____ _____    ______ ____
ROOT
ATOM      5  C   UNL     1      -2.080  -0.602  24.658  0.00  0.00    +0.162 C 
ATOM      6  C   UNL     1      -1.368  -0.193  24.588  0.00  0.00    +0.055 C 
ATOM      7  C   UNL     1      -1.371   0.628  24.499  0.00  0.00    -0.004 A 
ATOM      8  C   UNL     1      -2.086   1.038  24.481  0.00  0.00    +0.070 A 
ATOM      9  N   UNL     1      -1.918   1.840  24.388  0.00  0.00    -0.249 NA
ATOM     10  C   UNL     1      -1.098   1.927  24.349  0.00  0.00    +0.081 A 
ATOM     11  C   UNL     1      -0.760   1.176  24.418  0.00  0.00    +0.015 A 
ATOM     12  C   UNL     1       0.060   1.091  24.398  0.00  0.00    +0.001 A 
ATOM     13  C   UNL     1       0.543   1.755  24.309  0.00  0.00    +0.000 A 
ATOM     14  C   UNL     1       0.204   2.505  24.240  0.00  0.00    +0.002 A 
ATOM     15  C   UNL     1      -0.617   2.590  24.260  0.00  0.00    +0.019 A 
ATOM     16  C   UNL     1      -2.799   0.628  24.550  0.00  0.00    +0.100 C 
ATOM     17  C   UNL     1      -3.515   1.037  24.532  0.00  0.00    +0.040 C 
ATOM     18  C   UNL     1      -4.227   0.627  24.602  0.00  0.00    +0.076 C 
ATOM     19  C   UNL     1      -4.223  -0.193  24.690  0.00  0.00    +0.038 C 
ATOM     20  C   UNL     1      -3.508  -0.602  24.709  0.00  0.00    +0.082 C 
ATOM     21  N   UNL     1      -2.796  -0.192  24.639  0.00  0.00    -0.258 NA
ENDROOT
BRANCH  20  22
ATOM     22  C   UNL     1      -3.505  -1.423  24.797  0.00  0.00    -0.007 A 
ATOM     23  C   UNL     1      -3.307  -1.759  25.523  0.00  0.00    -0.003 A 
ATOM     24  C   UNL     1      -3.305  -2.580  25.611  0.00  0.00    +0.001 A 
ATOM     25  C   UNL     1      -3.501  -3.063  24.972  0.00  0.00    +0.011 A 
ATOM     26  C   UNL     1      -3.699  -2.727  24.245  0.00  0.00    +0.057 A 
ATOM     27 CL   UNL     1      -3.894  -3.211  23.606  0.00  0.00    -0.082 Cl
ATOM     28  C   UNL     1      -3.701  -1.907  24.158  0.00  0.00    +0.008 A 
ENDBRANCH  20  22
BRANCH   5   3
ATOM      3  C   UNL     1      -2.076  -1.423  24.746  0.00  0.00    +0.332 C 
ATOM      4  O   UNL     1      -2.339  -2.151  25.031  0.00  0.00    -0.249 OA
BRANCH   3   2
ATOM      1  C   UNL     1      -0.840  -2.138  24.759  0.00  0.00    +0.256 C 
ATOM      2  O   UNL     1      -1.510  -1.878  24.355  0.00  0.00    -0.443 OA
ENDBRANCH   3   2
ENDBRANCH   5   3
BRANCH  18  29
ATOM     29  N   UNL     1      -4.943   1.037  24.583  0.00  0.00    -0.219 NA
BRANCH  29  30
ATOM     30  C   UNL     1      -5.193   1.460  25.246  0.00  0.00    +0.091 C 
BRANCH  30  31
ATOM     31  C   UNL     1      -5.578   2.184  25.152  0.00  0.00    +0.043 C 
BRANCH  31  32
ATOM     32  C   UNL     1      -5.691   2.677  25.804  0.00  0.00    +0.109 C 
BRANCH  32  33
ATOM     33  N   UNL     1      -5.655   3.496  25.712  0.00  0.00    -0.308 N 
ATOM     34  C   UNL     1      -4.970   3.940  25.591  0.00  0.00    +0.098 A 
ATOM     35  C   UNL     1      -5.188   4.734  25.529  0.00  0.00    +0.119 A 
ATOM     36  N   UNL     1      -6.008   4.780  25.613  0.00  0.00    -0.222 NA
ATOM     37  C   UNL     1      -6.296   4.015  25.726  0.00  0.00    +0.179 A 
ENDBRANCH  32  33
ENDBRANCH  31  32
ENDBRANCH  30  31
ENDBRANCH  29  30
ENDBRANCH  18  29
TORSDOF 8
ENDMDL
