MODEL 1
REMARK VINA RESULT:     -11.1      0.000      0.000
REMARK  Name = 
REMARK  2 active torsions:
REMARK  status: ('A' for Active; 'I' for Inactive)
REMARK    1  A    between atoms: C_6  and  N_10
REMARK    2  A    between atoms: C_14  and  C_15
REMARK                            x       y       z     vdW  Elec       q    Type
REMARK                         _______ _______ _______ _____ _____    ______ ____
ROOT
ATOM     10  N   UNL     1      -4.032   1.546  24.483  0.00  0.00    -0.210 N 
ATOM     11  N   UNL     1      -4.499   2.226  24.509  0.00  0.00    -0.043 NA
ATOM     12  N   UNL     1      -5.230   2.022  24.833  0.00  0.00    -0.023 NA
ATOM     13  N   UNL     1      -5.215   1.216  25.007  0.00  0.00    -0.108 NA
ATOM     14  C   UNL     1      -4.475   0.922  24.790  0.00  0.00    +0.184 A 
ENDROOT
BRANCH  14  15
ATOM     15  C   UNL     1      -4.222   0.141  24.868  0.00  0.00    +0.041 A 
ATOM     16  C   UNL     1      -4.356  -0.399  24.259  0.00  0.00    +0.043 A 
ATOM     17  C   UNL     1      -4.102  -1.181  24.336  0.00  0.00    +0.172 A 
ATOM     18  C   UNL     1      -3.715  -1.423  25.024  0.00  0.00    +0.172 A 
ATOM     19  O   UNL     1      -3.461  -2.203  25.102  0.00  0.00    -0.468 OA
ATOM     20  C   UNL     1      -3.595  -2.743  24.493  0.00  0.00    +0.253 C 
ATOM     21  C   UNL     1      -3.983  -2.501  23.805  0.00  0.00    +0.253 C 
ATOM     22  O   UNL     1      -4.236  -1.721  23.728  0.00  0.00    -0.468 OA
ATOM     23  C   UNL     1      -3.581  -0.882  25.633  0.00  0.00    +0.040 A 
ATOM     24  C   UNL     1      -3.834  -0.101  25.556  0.00  0.00    +0.006 A 
ENDBRANCH  14  15
BRANCH  10   6
ATOM      1  O   UNL     1      -0.502   1.961  24.136  0.00  0.00    -0.218 OA
ATOM      2  C   UNL     1      -1.275   2.008  24.420  0.00  0.00    +0.211 C 
ATOM      3  C   UNL     1      -1.519   2.412  25.096  0.00  0.00    +0.178 C 
ATOM      4  O   UNL     1      -2.335   2.313  25.171  0.00  0.00    -0.349 OA
ATOM      5  C   UNL     1      -2.594   1.848  24.541  0.00  0.00    +0.170 C 
ATOM      6  C   UNL     1      -3.259   1.499  24.199  0.00  0.00    +0.167 C 
ATOM      7  C   UNL     1      -3.015   1.095  23.522  0.00  0.00    +0.169 C 
ATOM      8  O   UNL     1      -2.199   1.195  23.447  0.00  0.00    -0.349 OA
ATOM      9  C   UNL     1      -1.939   1.660  24.077  0.00  0.00    +0.177 C 
ENDBRANCH  10   6
TORSDOF 2
ENDMDL
MODEL 2
REMARK VINA RESULT:     -10.6      2.091      3.445
REMARK  Name = 
REMARK  2 active torsions:
REMARK  status: ('A' for Active; 'I' for Inactive)
REMARK    1  A    between atoms: C_6  and  N_10
REMARK    2  A    between atoms: C_14  and  C_15
REMARK                            x       y       z     vdW  Elec       q    Type
REMARK                         _______ _______ _______ _____ _____    ______ ____
ROOT
ATOM     10  N   UNL     1      -3.515  -1.621  24.535  0.00  0.00    -0.210 N 
ATOM     11  N   UNL     1      -3.725  -2.383  24.299  0.00  0.00    -0.043 NA
ATOM     12  N   UNL     1      -4.397  -2.325  23.821  0.00  0.00    -0.023 NA
ATOM     13  N   UNL     1      -4.600  -1.527  23.764  0.00  0.00    -0.108 NA
ATOM     14  C   UNL     1      -4.055  -1.093  24.205  0.00  0.00    +0.184 A 
ENDROOT
BRANCH  14  15
ATOM     15  C   UNL     1      -4.050  -0.274  24.300  0.00  0.00    +0.041 A 
ATOM     16  C   UNL     1      -3.634   0.201  23.769  0.00  0.00    +0.043 A 
ATOM     17  C   UNL     1      -3.629   1.021  23.863  0.00  0.00    +0.172 A 
ATOM     18  C   UNL     1      -4.042   1.367  24.489  0.00  0.00    +0.172 A 
ATOM     19  O   UNL     1      -4.038   2.186  24.584  0.00  0.00    -0.468 OA
ATOM     20  C   UNL     1      -3.622   2.660  24.053  0.00  0.00    +0.253 C 
ATOM     21  C   UNL     1      -3.209   2.314  23.427  0.00  0.00    +0.253 C 
ATOM     22  O   UNL     1      -3.213   1.495  23.332  0.00  0.00    -0.468 OA
ATOM     23  C   UNL     1      -4.459   0.892  25.020  0.00  0.00    +0.040 A 
ATOM     24  C   UNL     1      -4.463   0.072  24.926  0.00  0.00    +0.006 A 
ENDBRANCH  14  15
BRANCH  10   6
ATOM      1  O   UNL     1      -0.194  -1.141  25.761  0.00  0.00    -0.218 OA
ATOM      2  C   UNL     1      -0.833  -1.339  25.278  0.00  0.00    +0.211 C 
ATOM      3  C   UNL     1      -0.786  -1.663  24.521  0.00  0.00    +0.178 C 
ATOM      4  O   UNL     1      -1.556  -1.772  24.243  0.00  0.00    -0.349 OA
ATOM      5  C   UNL     1      -2.077  -1.515  24.828  0.00  0.00    +0.170 C 
ATOM      6  C   UNL     1      -2.875  -1.423  25.018  0.00  0.00    +0.167 C 
ATOM      7  C   UNL     1      -2.921  -1.099  25.775  0.00  0.00    +0.169 C 
ATOM      8  O   UNL     1      -2.152  -0.990  26.053  0.00  0.00    -0.349 OA
ATOM      9  C   UNL     1      -1.630  -1.247  25.468  0.00  0.00    +0.177 C 
ENDBRANCH  10   6
TORSDOF 2
ENDMDL
MODEL 3
REMARK VINA RESULT:     -10.5      2.035      3.388
REMARK  Name = 
REMARK  2 active torsions:
REMARK  status: ('A' for Active; 'I' for Inactive)
REMARK    1  A    between atoms: C_6  and  N_10
REMARK    2  A    between atoms: C_14  and  C_15
REMARK                            x       y       z     vdW  Elec       q    Type
REMARK                         _______ _______ _______ _____ _____    ______ ____
ROOT
ATOM     10  N   UNL     1      -2.317   1.745  23.527  0.00  0.00    -0.210 N 
ATOM     11  N   UNL     1      -1.972   1.638  22.785  0.00  0.00    -0.043 NA
ATOM     12  N   UNL     1      -2.446   2.019  22.226  0.00  0.00    -0.023 NA
ATOM     13  N   UNL     1      -3.083   2.361  22.623  0.00  0.00    -0.108 NA
ATOM     14  C   UNL     1      -3.003   2.191  23.427  0.00  0.00    +0.184 A 
ENDROOT
BRANCH  14  15
ATOM     15  C   UNL     1      -3.519   2.426  24.026  0.00  0.00    +0.041 A 
ATOM     16  C   UNL     1      -4.177   1.963  24.210  0.00  0.00    +0.043 A 
ATOM     17  C   UNL     1      -4.693   2.197  24.809  0.00  0.00    +0.172 A 
ATOM     18  C   UNL     1      -4.552   2.897  25.225  0.00  0.00    +0.172 A 
ATOM     19  O   UNL     1      -5.068   3.132  25.823  0.00  0.00    -0.468 OA
ATOM     20  C   UNL     1      -5.725   2.669  26.007  0.00  0.00    +0.253 C 
ATOM     21  C   UNL     1      -5.866   1.970  25.592  0.00  0.00    +0.253 C 
ATOM     22  O   UNL     1      -5.350   1.734  24.993  0.00  0.00    -0.468 OA
ATOM     23  C   UNL     1      -3.894   3.360  25.040  0.00  0.00    +0.040 A 
ATOM     24  C   UNL     1      -3.378   3.125  24.441  0.00  0.00    +0.006 A 
ENDBRANCH  14  15
BRANCH  10   6
ATOM      1  O   UNL     1      -1.317  -0.460  26.153  0.00  0.00    -0.218 OA
ATOM      2  C   UNL     1      -1.608  -0.170  25.438  0.00  0.00    +0.211 C 
ATOM      3  C   UNL     1      -1.903  -0.625  24.815  0.00  0.00    +0.178 C 
ATOM      4  O   UNL     1      -2.132  -0.110  24.212  0.00  0.00    -0.349 OA
ATOM      5  C   UNL     1      -1.979   0.661  24.461  0.00  0.00    +0.170 C 
ATOM      6  C   UNL     1      -2.026   1.455  24.242  0.00  0.00    +0.167 C 
ATOM      7  C   UNL     1      -1.731   1.909  24.865  0.00  0.00    +0.169 C 
ATOM      8  O   UNL     1      -1.502   1.394  25.469  0.00  0.00    -0.349 OA
ATOM      9  C   UNL     1      -1.655   0.623  25.219  0.00  0.00    +0.177 C 
ENDBRANCH  10   6
TORSDOF 2
ENDMDL
MODEL 4
REMARK VINA RESULT:     -10.4      1.693      2.411
REMARK  Name = 
REMARK  2 active torsions:
REMARK  status: ('A' for Active; 'I' for Inactive)
REMARK    1  A    between atoms: C_6  and  N_10
REMARK    2  A    between atoms: C_14  and  C_15
REMARK                            x       y       z     vdW  Elec       q    Type
REMARK                         _______ _______ _______ _____ _____    ______ ____
ROOT
ATOM     10  N   UNL     1      -3.632   1.945  23.764  0.00  0.00    -0.210 N 
ATOM     11  N   UNL     1      -3.423   2.530  23.221  0.00  0.00    -0.043 NA
ATOM     12  N   UNL     1      -2.758   2.267  22.808  0.00  0.00    -0.023 NA
ATOM     13  N   UNL     1      -2.557   1.521  23.097  0.00  0.00    -0.108 NA
ATOM     14  C   UNL     1      -3.098   1.323  23.688  0.00  0.00    +0.184 A 
ENDROOT
BRANCH  14  15
ATOM     15  C   UNL     1      -3.102   0.624  24.125  0.00  0.00    +0.041 A 
ATOM     16  C   UNL     1      -3.507  -0.038  23.844  0.00  0.00    +0.043 A 
ATOM     17  C   UNL     1      -3.512  -0.737  24.281  0.00  0.00    +0.172 A 
ATOM     18  C   UNL     1      -3.111  -0.775  25.002  0.00  0.00    +0.172 A 
ATOM     19  O   UNL     1      -3.116  -1.474  25.440  0.00  0.00    -0.468 OA
ATOM     20  C   UNL     1      -3.520  -2.135  25.158  0.00  0.00    +0.253 C 
ATOM     21  C   UNL     1      -3.921  -2.097  24.437  0.00  0.00    +0.253 C 
ATOM     22  O   UNL     1      -3.916  -1.398  23.999  0.00  0.00    -0.468 OA
ATOM     23  C   UNL     1      -2.706  -0.114  25.284  0.00  0.00    +0.040 A 
ATOM     24  C   UNL     1      -2.701   0.586  24.847  0.00  0.00    +0.006 A 
ENDBRANCH  14  15
BRANCH  10   6
ATOM      1  O   UNL     1      -5.811   2.956  26.408  0.00  0.00    -0.218 OA
ATOM      2  C   UNL     1      -5.178   2.922  25.881  0.00  0.00    +0.211 C 
ATOM      3  C   UNL     1      -4.536   3.442  25.859  0.00  0.00    +0.178 C 
ATOM      4  O   UNL     1      -4.037   3.203  25.247  0.00  0.00    -0.349 OA
ATOM      5  C   UNL     1      -4.369   2.538  24.891  0.00  0.00    +0.170 C 
ATOM      6  C   UNL     1      -4.266   1.979  24.292  0.00  0.00    +0.167 C 
ATOM      7  C   UNL     1      -4.907   1.461  24.314  0.00  0.00    +0.169 C 
ATOM      8  O   UNL     1      -5.406   1.699  24.926  0.00  0.00    -0.349 OA
ATOM      9  C   UNL     1      -5.074   2.365  25.283  0.00  0.00    +0.177 C 
ENDBRANCH  10   6
TORSDOF 2
ENDMDL
MODEL 5
REMARK VINA RESULT:     -10.4      2.895      3.540
REMARK  Name = 
REMARK  2 active torsions:
REMARK  status: ('A' for Active; 'I' for Inactive)
REMARK    1  A    between atoms: C_6  and  N_10
REMARK    2  A    between atoms: C_14  and  C_15
REMARK                            x       y       z     vdW  Elec       q    Type
REMARK                         _______ _______ _______ _____ _____    ______ ____
ROOT
ATOM     10  N   UNL     1      -1.655   3.459  24.829  0.00  0.00    -0.210 N 
ATOM     11  N   UNL     1      -1.085   4.017  25.040  0.00  0.00    -0.043 NA
ATOM     12  N   UNL     1      -1.475   4.712  25.255  0.00  0.00    -0.023 NA
ATOM     13  N   UNL     1      -2.286   4.583  25.178  0.00  0.00    -0.108 NA
ATOM     14  C   UNL     1      -2.397   3.808  24.915  0.00  0.00    +0.184 A 
ENDROOT
BRANCH  14  15
ATOM     15  C   UNL     1      -3.123   3.447  24.764  0.00  0.00    +0.041 A 
ATOM     16  C   UNL     1      -3.576   3.154  25.388  0.00  0.00    +0.043 A 
ATOM     17  C   UNL     1      -4.303   2.792  25.237  0.00  0.00    +0.172 A 
ATOM     18  C   UNL     1      -4.576   2.724  24.461  0.00  0.00    +0.172 A 
ATOM     19  O   UNL     1      -5.302   2.363  24.310  0.00  0.00    -0.468 OA
ATOM     20  C   UNL     1      -5.754   2.070  24.933  0.00  0.00    +0.253 C 
ATOM     21  C   UNL     1      -5.481   2.138  25.709  0.00  0.00    +0.253 C 
ATOM     22  O   UNL     1      -4.755   2.499  25.860  0.00  0.00    -0.468 OA
ATOM     23  C   UNL     1      -4.123   3.018  23.837  0.00  0.00    +0.040 A 
ATOM     24  C   UNL     1      -3.397   3.380  23.988  0.00  0.00    +0.006 A 
ENDBRANCH  14  15
BRANCH  10   6
ATOM      1  O   UNL     1      -0.689   0.021  24.777  0.00  0.00    -0.218 OA
ATOM      2  C   UNL     1      -0.835   0.793  25.028  0.00  0.00    +0.211 C 
ATOM      3  C   UNL     1      -0.698   1.090  25.786  0.00  0.00    +0.178 C 
ATOM      4  O   UNL     1      -0.923   1.884  25.792  0.00  0.00    -0.349 OA
ATOM      5  C   UNL     1      -1.199   2.077  25.039  0.00  0.00    +0.170 C 
ATOM      6  C   UNL     1      -1.509   2.687  24.578  0.00  0.00    +0.167 C 
ATOM      7  C   UNL     1      -1.646   2.390  23.821  0.00  0.00    +0.169 C 
ATOM      8  O   UNL     1      -1.421   1.596  23.815  0.00  0.00    -0.349 OA
ATOM      9  C   UNL     1      -1.145   1.403  24.568  0.00  0.00    +0.177 C 
ENDBRANCH  10   6
TORSDOF 2
ENDMDL
MODEL 6
REMARK VINA RESULT:     -10.4      2.600      3.542
REMARK  Name = 
REMARK  2 active torsions:
REMARK  status: ('A' for Active; 'I' for Inactive)
REMARK    1  A    between atoms: C_6  and  N_10
REMARK    2  A    between atoms: C_14  and  C_15
REMARK                            x       y       z     vdW  Elec       q    Type
REMARK                         _______ _______ _______ _____ _____    ______ ____
ROOT
ATOM     10  N   UNL     1      -2.598   3.661  24.866  0.00  0.00    -0.210 N 
ATOM     11  N   UNL     1      -2.573   4.445  25.121  0.00  0.00    -0.043 NA
ATOM     12  N   UNL     1      -1.796   4.617  25.341  0.00  0.00    -0.023 NA
ATOM     13  N   UNL     1      -1.342   3.938  25.222  0.00  0.00    -0.108 NA
ATOM     14  C   UNL     1      -1.838   3.348  24.928  0.00  0.00    +0.184 A 
ENDROOT
BRANCH  14  15
ATOM     15  C   UNL     1      -1.613   2.579  24.732  0.00  0.00    +0.041 A 
ATOM     16  C   UNL     1      -1.597   1.992  25.312  0.00  0.00    +0.043 A 
ATOM     17  C   UNL     1      -1.372   1.223  25.115  0.00  0.00    +0.172 A 
ATOM     18  C   UNL     1      -1.163   1.040  24.338  0.00  0.00    +0.172 A 
ATOM     19  O   UNL     1      -0.938   0.272  24.141  0.00  0.00    -0.468 OA
ATOM     20  C   UNL     1      -0.922  -0.314  24.721  0.00  0.00    +0.253 C 
ATOM     21  C   UNL     1      -1.131  -0.131  25.499  0.00  0.00    +0.253 C 
ATOM     22  O   UNL     1      -1.356   0.637  25.695  0.00  0.00    -0.468 OA
ATOM     23  C   UNL     1      -1.179   1.627  23.758  0.00  0.00    +0.040 A 
ATOM     24  C   UNL     1      -1.404   2.396  23.954  0.00  0.00    +0.006 A 
ENDBRANCH  14  15
BRANCH  10   6
ATOM      1  O   UNL     1      -5.815   2.114  24.726  0.00  0.00    -0.218 OA
ATOM      2  C   UNL     1      -5.146   2.514  24.996  0.00  0.00    +0.211 C 
ATOM      3  C   UNL     1      -5.035   2.814  25.756  0.00  0.00    +0.178 C 
ATOM      4  O   UNL     1      -4.291   3.170  25.783  0.00  0.00    -0.349 OA
ATOM      5  C   UNL     1      -3.943   3.090  25.039  0.00  0.00    +0.170 C 
ATOM      6  C   UNL     1      -3.267   3.261  24.596  0.00  0.00    +0.167 C 
ATOM      7  C   UNL     1      -3.379   2.960  23.836  0.00  0.00    +0.169 C 
ATOM      8  O   UNL     1      -4.123   2.604  23.810  0.00  0.00    -0.349 OA
ATOM      9  C   UNL     1      -4.471   2.685  24.553  0.00  0.00    +0.177 C 
ENDBRANCH  10   6
TORSDOF 2
ENDMDL
MODEL 7
REMARK VINA RESULT:     -10.2      0.890      3.566
REMARK  Name = 
REMARK  2 active torsions:
REMARK  status: ('A' for Active; 'I' for Inactive)
REMARK    1  A    between atoms: C_6  and  N_10
REMARK    2  A    between atoms: C_14  and  C_15
REMARK                            x       y       z     vdW  Elec       q    Type
REMARK                         _______ _______ _______ _____ _____    ______ ____
ROOT
ATOM     10  N   UNL     1      -4.522   1.003  24.769  0.00  0.00    -0.210 N 
ATOM     11  N   UNL     1      -5.295   1.060  25.051  0.00  0.00    -0.043 NA
ATOM     12  N   UNL     1      -5.455   1.856  25.199  0.00  0.00    -0.023 NA
ATOM     13  N   UNL     1      -4.780   2.291  25.009  0.00  0.00    -0.108 NA
ATOM     14  C   UNL     1      -4.204   1.763  24.743  0.00  0.00    +0.184 A 
ENDROOT
BRANCH  14  15
ATOM     15  C   UNL     1      -3.443   1.962  24.495  0.00  0.00    +0.041 A 
ATOM     16  C   UNL     1      -2.834   2.034  25.047  0.00  0.00    +0.043 A 
ATOM     17  C   UNL     1      -2.072   2.233  24.799  0.00  0.00    +0.172 A 
ATOM     18  C   UNL     1      -1.919   2.359  23.998  0.00  0.00    +0.172 A 
ATOM     19  O   UNL     1      -1.159   2.557  23.750  0.00  0.00    -0.468 OA
ATOM     20  C   UNL     1      -0.550   2.630  24.301  0.00  0.00    +0.253 C 
ATOM     21  C   UNL     1      -0.703   2.503  25.103  0.00  0.00    +0.253 C 
ATOM     22  O   UNL     1      -1.464   2.305  25.351  0.00  0.00    -0.468 OA
ATOM     23  C   UNL     1      -2.528   2.287  23.446  0.00  0.00    +0.040 A 
ATOM     24  C   UNL     1      -3.290   2.088  23.693  0.00  0.00    +0.006 A 
ENDBRANCH  14  15
BRANCH  10   6
ATOM      1  O   UNL     1      -2.938  -2.196  24.899  0.00  0.00    -0.218 OA
ATOM      2  C   UNL     1      -3.325  -1.501  25.117  0.00  0.00    +0.211 C 
ATOM      3  C   UNL     1      -3.560  -1.296  25.881  0.00  0.00    +0.178 C 
ATOM      4  O   UNL     1      -3.925  -0.556  25.845  0.00  0.00    -0.349 OA
ATOM      5  C   UNL     1      -3.915  -0.305  25.059  0.00  0.00    +0.170 C 
ATOM      6  C   UNL     1      -4.135   0.308  24.551  0.00  0.00    +0.167 C 
ATOM      7  C   UNL     1      -3.900   0.102  23.788  0.00  0.00    +0.169 C 
ATOM      8  O   UNL     1      -3.535  -0.637  23.824  0.00  0.00    -0.349 OA
ATOM      9  C   UNL     1      -3.545  -0.889  24.610  0.00  0.00    +0.177 C 
ENDBRANCH  10   6
TORSDOF 2
ENDMDL
