MODEL 1
REMARK VINA RESULT:     -13.3      0.000      0.000
REMARK  Name = 
REMARK  5 active torsions:
REMARK  status: ('A' for Active; 'I' for Inactive)
REMARK    1  A    between atoms: C_6  and  C_9
REMARK    2  A    between atoms: C_12  and  C_14
REMARK    3  A    between atoms: N_19  and  C_20
REMARK    4  A    between atoms: C_20  and  C_21
REMARK    5  A    between atoms: C_24  and  S_27
REMARK                            x       y       z     vdW  Elec       q    Type
REMARK                         _______ _______ _______ _____ _____    ______ ____
ROOT
ATOM     14  C   UNL     1      -4.670   2.374  25.252  0.00  0.00    +0.140 C 
ATOM     15  C   UNL     1      -5.470   2.558  25.169  0.00  0.00    +0.060 C 
ATOM     16  C   UNL     1      -5.860   1.885  24.893  0.00  0.00    +0.170 C 
ATOM     17  O   UNL     1      -6.667   1.823  24.733  0.00  0.00    -0.222 OA
ATOM     18  C   UNL     1      -5.300   1.284  24.806  0.00  0.00    +0.106 C 
ATOM     19  N   UNL     1      -4.565   1.587  25.028  0.00  0.00    -0.260 NA
ENDROOT
BRANCH  14  12
ATOM      9  C   UNL     1      -2.983   3.647  25.549  0.00  0.00    +0.203 A 
ATOM     10  N   UNL     1      -3.357   3.705  26.283  0.00  0.00    -0.056 NA
ATOM     11  O   UNL     1      -4.035   3.234  26.261  0.00  0.00    -0.336 OA
ATOM     12  C   UNL     1      -4.080   2.887  25.514  0.00  0.00    +0.251 A 
ATOM     13  N   UNL     1      -3.429   3.142  25.074  0.00  0.00    -0.190 NA
BRANCH   9   6
ATOM      1  C   UNL     1      -0.191   5.173  24.672  0.00  0.00    +0.033 C 
ATOM      2  C   UNL     1      -0.889   4.791  24.891  0.00  0.00    +0.006 A 
ATOM      3  C   UNL     1      -1.547   5.233  25.122  0.00  0.00    +0.136 A 
ATOM      4  F   UNL     1      -1.506   6.058  25.133  0.00  0.00    -0.205 F 
ATOM      5  C   UNL     1      -2.245   4.852  25.341  0.00  0.00    +0.032 A 
ATOM      6  C   UNL     1      -2.285   4.029  25.330  0.00  0.00    +0.041 A 
ATOM      7  C   UNL     1      -1.628   3.586  25.100  0.00  0.00    +0.003 A 
ATOM      8  C   UNL     1      -0.930   3.967  24.880  0.00  0.00    -0.002 A 
ENDBRANCH   9   6
ENDBRANCH  14  12
BRANCH  19  20
ATOM     20  C   UNL     1      -3.851   1.175  25.025  0.00  0.00    +0.100 C 
BRANCH  20  21
ATOM     21  C   UNL     1      -3.840   0.369  24.850  0.00  0.00    -0.006 A 
ATOM     22  C   UNL     1      -3.925  -0.186  25.454  0.00  0.00    -0.002 A 
ATOM     23  C   UNL     1      -3.914  -0.993  25.278  0.00  0.00    +0.018 A 
ATOM     24  C   UNL     1      -3.818  -1.243  24.498  0.00  0.00    +0.106 A 
ATOM     25  C   UNL     1      -3.732  -0.688  23.894  0.00  0.00    +0.018 A 
ATOM     26  C   UNL     1      -3.743   0.118  24.069  0.00  0.00    -0.002 A 
BRANCH  24  27
ATOM     27  S   UNL     1      -3.807  -2.049  24.322  0.00  0.00    +0.010 S 
ATOM     28  C   UNL     1      -3.795  -2.855  24.147  0.00  0.00    +0.182 C 
ATOM     29  O   UNL     1      -3.132  -2.141  24.788  0.00  0.00    -0.169 OA
ATOM     30  O   UNL     1      -4.481  -1.957  23.856  0.00  0.00    -0.169 OA
ENDBRANCH  24  27
ENDBRANCH  20  21
ENDBRANCH  19  20
TORSDOF 5
ENDMDL
MODEL 2
REMARK VINA RESULT:     -12.8      2.262      3.182
REMARK  Name = 
REMARK  5 active torsions:
REMARK  status: ('A' for Active; 'I' for Inactive)
REMARK    1  A    between atoms: C_6  and  C_9
REMARK    2  A    between atoms: C_12  and  C_14
REMARK    3  A    between atoms: N_19  and  C_20
REMARK    4  A    between atoms: C_20  and  C_21
REMARK    5  A    between atoms: C_24  and  S_27
REMARK                            x       y       z     vdW  Elec       q    Type
REMARK                         _______ _______ _______ _____ _____    ______ ____
ROOT
ATOM     14  C   UNL     1      -0.310   0.781  24.579  0.00  0.00    +0.140 C 
ATOM     15  C   UNL     1       0.277   0.670  24.009  0.00  0.00    +0.060 C 
ATOM     16  C   UNL     1       0.202  -0.096  23.712  0.00  0.00    +0.170 C 
ATOM     17  O   UNL     1       0.677  -0.439  23.131  0.00  0.00    -0.222 OA
ATOM     18  C   UNL     1      -0.431  -0.459  24.098  0.00  0.00    +0.106 C 
ATOM     19  N   UNL     1      -0.747   0.083  24.633  0.00  0.00    -0.260 NA
ENDROOT
BRANCH  14  12
ATOM      9  C   UNL     1      -0.802   2.706  25.358  0.00  0.00    +0.203 A 
ATOM     10  N   UNL     1      -0.461   2.349  26.020  0.00  0.00    -0.056 NA
ATOM     11  O   UNL     1      -0.236   1.583  25.808  0.00  0.00    -0.336 OA
ATOM     12  C   UNL     1      -0.436   1.468  25.016  0.00  0.00    +0.251 A 
ATOM     13  N   UNL     1      -0.786   2.162  24.738  0.00  0.00    -0.190 NA
BRANCH   9   6
ATOM      1  C   UNL     1      -2.011   5.773  25.219  0.00  0.00    +0.033 C 
ATOM      2  C   UNL     1      -1.709   5.007  25.254  0.00  0.00    +0.006 A 
ATOM      3  C   UNL     1      -0.942   4.853  24.992  0.00  0.00    +0.136 A 
ATOM      4  F   UNL     1      -0.477   5.467  24.696  0.00  0.00    -0.205 F 
ATOM      5  C   UNL     1      -0.639   4.086  25.027  0.00  0.00    +0.032 A 
ATOM      6  C   UNL     1      -1.104   3.473  25.323  0.00  0.00    +0.041 A 
ATOM      7  C   UNL     1      -1.872   3.625  25.585  0.00  0.00    +0.003 A 
ATOM      8  C   UNL     1      -2.174   4.392  25.550  0.00  0.00    -0.002 A 
ENDBRANCH   9   6
ENDBRANCH  14  12
BRANCH  19  20
ATOM     20  C   UNL     1      -1.388  -0.049  25.135  0.00  0.00    +0.100 C 
BRANCH  20  21
ATOM     21  C   UNL     1      -1.977  -0.585  24.921  0.00  0.00    -0.006 A 
ATOM     22  C   UNL     1      -1.884  -1.388  25.086  0.00  0.00    -0.002 A 
ATOM     23  C   UNL     1      -2.473  -1.925  24.871  0.00  0.00    +0.018 A 
ATOM     24  C   UNL     1      -3.154  -1.658  24.491  0.00  0.00    +0.106 A 
ATOM     25  C   UNL     1      -3.248  -0.855  24.326  0.00  0.00    +0.018 A 
ATOM     26  C   UNL     1      -2.659  -0.319  24.540  0.00  0.00    -0.002 A 
BRANCH  24  27
ATOM     27  S   UNL     1      -3.743  -2.195  24.276  0.00  0.00    +0.010 S 
ATOM     28  C   UNL     1      -4.332  -2.731  24.061  0.00  0.00    +0.182 C 
ATOM     29  O   UNL     1      -3.499  -2.703  24.877  0.00  0.00    -0.169 OA
ATOM     30  O   UNL     1      -3.988  -1.686  23.674  0.00  0.00    -0.169 OA
ENDBRANCH  24  27
ENDBRANCH  20  21
ENDBRANCH  19  20
TORSDOF 5
ENDMDL
MODEL 3
REMARK VINA RESULT:     -12.5      2.598      5.471
REMARK  Name = 
REMARK  5 active torsions:
REMARK  status: ('A' for Active; 'I' for Inactive)
REMARK    1  A    between atoms: C_6  and  C_9
REMARK    2  A    between atoms: C_12  and  C_14
REMARK    3  A    between atoms: N_19  and  C_20
REMARK    4  A    between atoms: C_20  and  C_21
REMARK    5  A    between atoms: C_24  and  S_27
REMARK                            x       y       z     vdW  Elec       q    Type
REMARK                         _______ _______ _______ _____ _____    ______ ____
ROOT
ATOM     14  C   UNL     1      -4.479   1.864  25.027  0.00  0.00    +0.140 C 
ATOM     15  C   UNL     1      -5.231   2.159  25.196  0.00  0.00    +0.060 C 
ATOM     16  C   UNL     1      -5.141   2.880  25.585  0.00  0.00    +0.170 C 
ATOM     17  O   UNL     1      -5.752   3.365  25.855  0.00  0.00    -0.222 OA
ATOM     18  C   UNL     1      -4.333   3.032  25.657  0.00  0.00    +0.106 C 
ATOM     19  N   UNL     1      -3.924   2.404  25.312  0.00  0.00    -0.260 NA
ENDROOT
BRANCH  14  12
ATOM      9  C   UNL     1      -4.044  -0.133  24.412  0.00  0.00    +0.203 A 
ATOM     10  N   UNL     1      -4.066   0.256  23.685  0.00  0.00    -0.056 NA
ATOM     11  O   UNL     1      -4.232   1.052  23.827  0.00  0.00    -0.336 OA
ATOM     12  C   UNL     1      -4.312   1.154  24.642  0.00  0.00    +0.251 A 
ATOM     13  N   UNL     1      -4.196   0.421  25.003  0.00  0.00    -0.190 NA
BRANCH   9   6
ATOM      1  C   UNL     1      -3.451  -3.347  24.874  0.00  0.00    +0.033 C 
ATOM      2  C   UNL     1      -3.599  -2.543  24.758  0.00  0.00    +0.006 A 
ATOM      3  C   UNL     1      -4.048  -2.295  24.113  0.00  0.00    +0.136 A 
ATOM      4  F   UNL     1      -4.349  -2.851  23.582  0.00  0.00    -0.205 F 
ATOM      5  C   UNL     1      -4.197  -1.492  23.997  0.00  0.00    +0.032 A 
ATOM      6  C   UNL     1      -3.896  -0.937  24.528  0.00  0.00    +0.041 A 
ATOM      7  C   UNL     1      -3.446  -1.184  25.174  0.00  0.00    +0.003 A 
ATOM      8  C   UNL     1      -3.298  -1.988  25.289  0.00  0.00    -0.002 A 
ENDBRANCH   9   6
ENDBRANCH  14  12
BRANCH  19  20
ATOM     20  C   UNL     1      -3.104   2.329  25.261  0.00  0.00    +0.100 C 
BRANCH  20  21
ATOM     21  C   UNL     1      -2.632   3.001  25.198  0.00  0.00    -0.006 A 
ATOM     22  C   UNL     1      -2.288   3.329  25.872  0.00  0.00    -0.002 A 
ATOM     23  C   UNL     1      -1.815   4.003  25.808  0.00  0.00    +0.018 A 
ATOM     24  C   UNL     1      -1.686   4.347  25.070  0.00  0.00    +0.106 A 
ATOM     25  C   UNL     1      -2.029   4.019  24.396  0.00  0.00    +0.018 A 
ATOM     26  C   UNL     1      -2.502   3.346  24.459  0.00  0.00    -0.002 A 
BRANCH  24  27
ATOM     27  S   UNL     1      -1.212   5.020  25.006  0.00  0.00    +0.010 S 
ATOM     28  C   UNL     1      -0.740   5.693  24.943  0.00  0.00    +0.182 C 
ATOM     29  O   UNL     1      -1.831   5.482  25.295  0.00  0.00    -0.169 OA
ATOM     30  O   UNL     1      -0.593   4.558  24.717  0.00  0.00    -0.169 OA
ENDBRANCH  24  27
ENDBRANCH  20  21
ENDBRANCH  19  20
TORSDOF 5
ENDMDL
MODEL 4
REMARK VINA RESULT:     -12.2      3.148      6.127
REMARK  Name = 
REMARK  5 active torsions:
REMARK  status: ('A' for Active; 'I' for Inactive)
REMARK    1  A    between atoms: C_6  and  C_9
REMARK    2  A    between atoms: C_12  and  C_14
REMARK    3  A    between atoms: N_19  and  C_20
REMARK    4  A    between atoms: C_20  and  C_21
REMARK    5  A    between atoms: C_24  and  S_27
REMARK                            x       y       z     vdW  Elec       q    Type
REMARK                         _______ _______ _______ _____ _____    ______ ____
ROOT
ATOM     14  C   UNL     1      -0.505   0.412  24.583  0.00  0.00    +0.140 C 
ATOM     15  C   UNL     1       0.133   0.289  24.073  0.00  0.00    +0.060 C 
ATOM     16  C   UNL     1       0.524   1.009  23.976  0.00  0.00    +0.170 C 
ATOM     17  O   UNL     1       1.193   1.139  23.511  0.00  0.00    -0.222 OA
ATOM     18  C   UNL     1       0.128   1.577  24.425  0.00  0.00    +0.106 C 
ATOM     19  N   UNL     1      -0.508   1.208  24.800  0.00  0.00    -0.260 NA
ENDROOT
BRANCH  14  12
ATOM      9  C   UNL     1      -2.049  -1.040  24.838  0.00  0.00    +0.203 A 
ATOM     10  N   UNL     1      -1.699  -1.046  25.586  0.00  0.00    -0.056 NA
ATOM     11  O   UNL     1      -1.078  -0.503  25.581  0.00  0.00    -0.336 OA
ATOM     12  C   UNL     1      -1.044  -0.161  24.831  0.00  0.00    +0.251 A 
ATOM     13  N   UNL     1      -1.644  -0.493  24.372  0.00  0.00    -0.190 NA
BRANCH   9   6
ATOM      1  C   UNL     1      -4.616  -2.881  23.883  0.00  0.00    +0.033 C 
ATOM      2  C   UNL     1      -3.974  -2.420  24.122  0.00  0.00    +0.006 A 
ATOM      3  C   UNL     1      -4.048  -1.600  24.167  0.00  0.00    +0.136 A 
ATOM      4  F   UNL     1      -4.765  -1.240  23.974  0.00  0.00    -0.205 F 
ATOM      5  C   UNL     1      -3.406  -1.140  24.406  0.00  0.00    +0.032 A 
ATOM      6  C   UNL     1      -2.690  -1.500  24.599  0.00  0.00    +0.041 A 
ATOM      7  C   UNL     1      -2.615  -2.321  24.554  0.00  0.00    +0.003 A 
ATOM      8  C   UNL     1      -3.257  -2.781  24.316  0.00  0.00    -0.002 A 
ENDBRANCH   9   6
ENDBRANCH  14  12
BRANCH  19  20
ATOM     20  C   UNL     1      -1.051   1.571  25.304  0.00  0.00    +0.100 C 
BRANCH  20  21
ATOM     21  C   UNL     1      -1.163   2.387  25.270  0.00  0.00    -0.006 A 
ATOM     22  C   UNL     1      -1.720   2.707  24.754  0.00  0.00    -0.002 A 
ATOM     23  C   UNL     1      -1.832   3.524  24.720  0.00  0.00    +0.018 A 
ATOM     24  C   UNL     1      -1.386   4.020  25.205  0.00  0.00    +0.106 A 
ATOM     25  C   UNL     1      -0.829   3.701  25.722  0.00  0.00    +0.018 A 
ATOM     26  C   UNL     1      -0.717   2.885  25.755  0.00  0.00    -0.002 A 
BRANCH  24  27
ATOM     27  S   UNL     1      -1.498   4.838  25.172  0.00  0.00    +0.010 S 
ATOM     28  C   UNL     1      -1.610   5.654  25.139  0.00  0.00    +0.182 C 
ATOM     29  O   UNL     1      -0.773   4.921  24.788  0.00  0.00    -0.169 OA
ATOM     30  O   UNL     1      -2.224   4.754  25.556  0.00  0.00    -0.169 OA
ENDBRANCH  24  27
ENDBRANCH  20  21
ENDBRANCH  19  20
TORSDOF 5
ENDMDL
MODEL 5
REMARK VINA RESULT:     -10.7      2.744      5.516
REMARK  Name = 
REMARK  5 active torsions:
REMARK  status: ('A' for Active; 'I' for Inactive)
REMARK    1  A    between atoms: C_6  and  C_9
REMARK    2  A    between atoms: C_12  and  C_14
REMARK    3  A    between atoms: N_19  and  C_20
REMARK    4  A    between atoms: C_20  and  C_21
REMARK    5  A    between atoms: C_24  and  S_27
REMARK                            x       y       z     vdW  Elec       q    Type
REMARK                         _______ _______ _______ _____ _____    ______ ____
ROOT
ATOM     14  C   UNL     1      -1.047   1.299  25.241  0.00  0.00    +0.140 C 
ATOM     15  C   UNL     1      -0.492   1.466  25.828  0.00  0.00    +0.060 C 
ATOM     16  C   UNL     1      -0.573   2.259  26.039  0.00  0.00    +0.170 C 
ATOM     17  O   UNL     1      -0.127   2.658  26.607  0.00  0.00    -0.222 OA
ATOM     18  C   UNL     1      -1.179   2.583  25.581  0.00  0.00    +0.106 C 
ATOM     19  N   UNL     1      -1.471   1.990  25.088  0.00  0.00    -0.260 NA
ENDROOT
BRANCH  14  12
ATOM      9  C   UNL     1      -1.642  -0.634  24.559  0.00  0.00    +0.203 A 
ATOM     10  N   UNL     1      -1.015  -0.471  24.047  0.00  0.00    -0.056 NA
ATOM     11  O   UNL     1      -0.716   0.274  24.241  0.00  0.00    -0.336 OA
ATOM     12  C   UNL     1      -1.157   0.570  24.871  0.00  0.00    +0.251 A 
ATOM     13  N   UNL     1      -1.730   0.009  25.068  0.00  0.00    -0.190 NA
BRANCH   9   6
ATOM      1  C   UNL     1      -3.474  -3.379  24.565  0.00  0.00    +0.033 C 
ATOM      2  C   UNL     1      -3.016  -2.692  24.564  0.00  0.00    +0.006 A 
ATOM      3  C   UNL     1      -3.379  -1.954  24.509  0.00  0.00    +0.136 A 
ATOM      4  F   UNL     1      -4.201  -1.901  24.456  0.00  0.00    -0.205 F 
ATOM      5  C   UNL     1      -2.921  -1.268  24.507  0.00  0.00    +0.032 A 
ATOM      6  C   UNL     1      -2.100  -1.320  24.561  0.00  0.00    +0.041 A 
ATOM      7  C   UNL     1      -1.736  -2.059  24.616  0.00  0.00    +0.003 A 
ATOM      8  C   UNL     1      -2.194  -2.745  24.617  0.00  0.00    -0.002 A 
ENDBRANCH   9   6
ENDBRANCH  14  12
BRANCH  19  20
ATOM     20  C   UNL     1      -2.081   2.073  24.539  0.00  0.00    +0.100 C 
BRANCH  20  21
ATOM     21  C   UNL     1      -2.764   2.487  24.741  0.00  0.00    -0.006 A 
ATOM     22  C   UNL     1      -2.779   3.310  24.689  0.00  0.00    -0.002 A 
ATOM     23  C   UNL     1      -3.463   3.725  24.891  0.00  0.00    +0.018 A 
ATOM     24  C   UNL     1      -4.133   3.316  25.145  0.00  0.00    +0.106 A 
ATOM     25  C   UNL     1      -4.119   2.493  25.196  0.00  0.00    +0.018 A 
ATOM     26  C   UNL     1      -3.435   2.079  24.994  0.00  0.00    -0.002 A 
BRANCH  24  27
ATOM     27  S   UNL     1      -4.817   3.731  25.347  0.00  0.00    +0.010 S 
ATOM     28  C   UNL     1      -5.501   4.146  25.549  0.00  0.00    +0.182 C 
ATOM     29  O   UNL     1      -4.791   4.127  24.624  0.00  0.00    -0.169 OA
ATOM     30  O   UNL     1      -4.844   3.335  26.071  0.00  0.00    -0.169 OA
ENDBRANCH  24  27
ENDBRANCH  20  21
ENDBRANCH  19  20
TORSDOF 5
ENDMDL
