MODEL 1
REMARK VINA RESULT:      -8.7      0.000      0.000
REMARK  Name = 
REMARK  5 active torsions:
REMARK  status: ('A' for Active; 'I' for Inactive)
REMARK    1  A    between atoms: C_5  and  N_8
REMARK    2  A    between atoms: N_8  and  C_9
REMARK    3  A    between atoms: C_9  and  C_10
REMARK    4  A    between atoms: C_10  and  C_11
REMARK    5  A    between atoms: C_14  and  C_15
REMARK                            x       y       z     vdW  Elec       q    Type
REMARK                         _______ _______ _______ _____ _____    ______ ____
ROOT
ATOM      9  C   UNL     1      -3.489   0.672  24.681  0.00  0.00    +0.119 C 
ATOM     18  C   UNL     1      -2.775   0.388  24.983  0.00  0.00    +0.161 C 
ATOM     19  O   UNL     1      -2.364   0.952  24.544  0.00  0.00    -0.351 OA
ATOM     20  C   UNL     1      -3.077   1.236  24.242  0.00  0.00    +0.161 C 
ENDROOT
BRANCH   9   8
ATOM      8  N   UNL     1      -3.899   0.107  25.120  0.00  0.00    -0.217 NA
BRANCH   8   5
ATOM      1  C   UNL     1      -3.631  -3.093  24.361  0.00  0.00    +0.090 C 
ATOM      2  N   UNL     1      -3.698  -2.293  24.551  0.00  0.00    -0.271 NA
ATOM      3  C   UNL     1      -4.075  -1.775  24.030  0.00  0.00    +0.074 C 
ATOM      4  C   UNL     1      -4.142  -0.975  24.220  0.00  0.00    +0.035 C 
ATOM      5  C   UNL     1      -3.832  -0.693  24.930  0.00  0.00    +0.076 C 
ATOM      6  C   UNL     1      -3.456  -1.210  25.451  0.00  0.00    +0.035 C 
ATOM      7  C   UNL     1      -3.388  -2.011  25.261  0.00  0.00    +0.074 C 
ENDBRANCH   8   5
ENDBRANCH   9   8
BRANCH   9  10
ATOM     10  C   UNL     1      -4.201   0.955  24.379  0.00  0.00    +0.070 C 
BRANCH  10  11
ATOM     11  C   UNL     1      -4.487   1.691  24.617  0.00  0.00    +0.102 A 
ATOM     12  N   UNL     1      -4.260   2.423  24.309  0.00  0.00    -0.082 NA
ATOM     13  O   UNL     1      -4.683   3.009  24.707  0.00  0.00    -0.355 OA
ATOM     14  C   UNL     1      -5.170   2.641  25.260  0.00  0.00    +0.187 A 
ATOM     17  C   UNL     1      -5.050   1.827  25.206  0.00  0.00    +0.056 A 
BRANCH  14  15
ATOM     15  C   UNL     1      -5.688   3.021  25.779  0.00  0.00    +0.249 C 
ATOM     16  O   UNL     1      -5.802   3.836  25.726  0.00  0.00    -0.212 OA
ENDBRANCH  14  15
ENDBRANCH  10  11
ENDBRANCH   9  10
TORSDOF 5
ENDMDL
MODEL 2
REMARK VINA RESULT:      -8.4      1.429      4.132
REMARK  Name = 
REMARK  5 active torsions:
REMARK  status: ('A' for Active; 'I' for Inactive)
REMARK    1  A    between atoms: C_5  and  N_8
REMARK    2  A    between atoms: N_8  and  C_9
REMARK    3  A    between atoms: C_9  and  C_10
REMARK    4  A    between atoms: C_10  and  C_11
REMARK    5  A    between atoms: C_14  and  C_15
REMARK                            x       y       z     vdW  Elec       q    Type
REMARK                         _______ _______ _______ _____ _____    ______ ____
ROOT
ATOM      9  C   UNL     1      -3.527   0.743  24.631  0.00  0.00    +0.119 C 
ATOM     18  C   UNL     1      -3.104   1.353  24.272  0.00  0.00    +0.161 C 
ATOM     19  O   UNL     1      -2.401   1.042  24.570  0.00  0.00    -0.351 OA
ATOM     20  C   UNL     1      -2.823   0.431  24.929  0.00  0.00    +0.161 C 
ENDROOT
BRANCH   9   8
ATOM      8  N   UNL     1      -4.230   1.054  24.334  0.00  0.00    -0.217 NA
BRANCH   8   5
ATOM      1  C   UNL     1      -5.474   3.834  25.604  0.00  0.00    +0.090 C 
ATOM      2  N   UNL     1      -5.163   3.139  25.286  0.00  0.00    -0.271 NA
ATOM      3  C   UNL     1      -4.642   3.174  24.647  0.00  0.00    +0.074 C 
ATOM      4  C   UNL     1      -4.331   2.479  24.330  0.00  0.00    +0.035 C 
ATOM      5  C   UNL     1      -4.541   1.749  24.651  0.00  0.00    +0.076 C 
ATOM      6  C   UNL     1      -5.061   1.714  25.290  0.00  0.00    +0.035 C 
ATOM      7  C   UNL     1      -5.373   2.409  25.608  0.00  0.00    +0.074 C 
ENDBRANCH   8   5
ENDBRANCH   9   8
BRANCH   9  10
ATOM     10  C   UNL     1      -3.949   0.132  24.990  0.00  0.00    +0.070 C 
BRANCH  10  11
ATOM     11  C   UNL     1      -3.901  -0.635  24.691  0.00  0.00    +0.102 A 
ATOM     12  N   UNL     1      -4.083  -0.867  23.919  0.00  0.00    -0.082 NA
ATOM     13  O   UNL     1      -3.957  -1.680  23.862  0.00  0.00    -0.355 OA
ATOM     14  C   UNL     1      -3.698  -1.951  24.596  0.00  0.00    +0.187 A 
ATOM     17  C   UNL     1      -3.663  -1.306  25.108  0.00  0.00    +0.056 A 
BRANCH  14  15
ATOM     15  C   UNL     1      -3.506  -2.732  24.785  0.00  0.00    +0.249 C 
ATOM     16  O   UNL     1      -3.681  -3.339  24.255  0.00  0.00    -0.212 OA
ENDBRANCH  14  15
ENDBRANCH  10  11
ENDBRANCH   9  10
TORSDOF 5
ENDMDL
MODEL 3
REMARK VINA RESULT:      -8.2      1.813      4.227
REMARK  Name = 
REMARK  5 active torsions:
REMARK  status: ('A' for Active; 'I' for Inactive)
REMARK    1  A    between atoms: C_5  and  N_8
REMARK    2  A    between atoms: N_8  and  C_9
REMARK    3  A    between atoms: C_9  and  C_10
REMARK    4  A    between atoms: C_10  and  C_11
REMARK    5  A    between atoms: C_14  and  C_15
REMARK                            x       y       z     vdW  Elec       q    Type
REMARK                         _______ _______ _______ _____ _____    ______ ____
ROOT
ATOM      9  C   UNL     1      -4.220   1.111  24.759  0.00  0.00    +0.119 C 
ATOM     18  C   UNL     1      -4.791   1.693  24.630  0.00  0.00    +0.161 C 
ATOM     19  O   UNL     1      -5.306   1.301  25.141  0.00  0.00    -0.351 OA
ATOM     20  C   UNL     1      -4.736   0.719  25.269  0.00  0.00    +0.161 C 
ENDROOT
BRANCH   9   8
ATOM      8  N   UNL     1      -3.705   1.503  24.248  0.00  0.00    -0.217 NA
BRANCH   8   5
ATOM      1  C   UNL     1      -2.278   4.327  25.188  0.00  0.00    +0.090 C 
ATOM      2  N   UNL     1      -2.635   3.621  24.953  0.00  0.00    -0.271 NA
ATOM      3  C   UNL     1      -3.292   3.636  24.453  0.00  0.00    +0.074 C 
ATOM      4  C   UNL     1      -3.648   2.930  24.218  0.00  0.00    +0.035 C 
ATOM      5  C   UNL     1      -3.349   2.209  24.483  0.00  0.00    +0.076 C 
ATOM      6  C   UNL     1      -2.692   2.194  24.983  0.00  0.00    +0.035 C 
ATOM      7  C   UNL     1      -2.335   2.899  25.218  0.00  0.00    +0.074 C 
ENDBRANCH   8   5
ENDBRANCH   9   8
BRANCH   9  10
ATOM     10  C   UNL     1      -3.650   0.529  24.887  0.00  0.00    +0.070 C 
BRANCH  10  11
ATOM     11  C   UNL     1      -3.754  -0.227  24.574  0.00  0.00    +0.102 A 
ATOM     12  N   UNL     1      -4.086  -0.406  23.839  0.00  0.00    -0.082 NA
ATOM     13  O   UNL     1      -4.081  -1.226  23.751  0.00  0.00    -0.355 OA
ATOM     14  C   UNL     1      -3.747  -1.554  24.430  0.00  0.00    +0.187 A 
ATOM     17  C   UNL     1      -3.545  -0.937  24.938  0.00  0.00    +0.056 A 
BRANCH  14  15
ATOM     15  C   UNL     1      -3.635  -2.359  24.575  0.00  0.00    +0.249 C 
ATOM     16  O   UNL     1      -3.990  -2.920  24.086  0.00  0.00    -0.212 OA
ENDBRANCH  14  15
ENDBRANCH  10  11
ENDBRANCH   9  10
TORSDOF 5
ENDMDL
MODEL 4
REMARK VINA RESULT:      -8.2      1.425      1.893
REMARK  Name = 
REMARK  5 active torsions:
REMARK  status: ('A' for Active; 'I' for Inactive)
REMARK    1  A    between atoms: C_5  and  N_8
REMARK    2  A    between atoms: N_8  and  C_9
REMARK    3  A    between atoms: C_9  and  C_10
REMARK    4  A    between atoms: C_10  and  C_11
REMARK    5  A    between atoms: C_14  and  C_15
REMARK                            x       y       z     vdW  Elec       q    Type
REMARK                         _______ _______ _______ _____ _____    ______ ____
ROOT
ATOM      9  C   UNL     1      -4.371   1.463  24.783  0.00  0.00    +0.119 C 
ATOM     18  C   UNL     1      -4.860   1.066  25.317  0.00  0.00    +0.161 C 
ATOM     19  O   UNL     1      -5.484   1.568  25.120  0.00  0.00    -0.351 OA
ATOM     20  C   UNL     1      -4.996   1.965  24.586  0.00  0.00    +0.161 C 
ENDROOT
BRANCH   9   8
ATOM      8  N   UNL     1      -3.747   0.961  24.980  0.00  0.00    -0.217 NA
BRANCH   8   5
ATOM      1  C   UNL     1      -3.890  -2.241  24.194  0.00  0.00    +0.090 C 
ATOM      2  N   UNL     1      -3.855  -1.440  24.390  0.00  0.00    -0.271 NA
ATOM      3  C   UNL     1      -3.874  -0.868  23.796  0.00  0.00    +0.074 C 
ATOM      4  C   UNL     1      -3.838  -0.068  23.992  0.00  0.00    +0.035 C 
ATOM      5  C   UNL     1      -3.783   0.161  24.783  0.00  0.00    +0.076 C 
ATOM      6  C   UNL     1      -3.764  -0.411  25.377  0.00  0.00    +0.035 C 
ATOM      7  C   UNL     1      -3.800  -1.212  25.181  0.00  0.00    +0.074 C 
ENDBRANCH   8   5
ENDBRANCH   9   8
BRANCH   9  10
ATOM     10  C   UNL     1      -3.884   1.860  24.249  0.00  0.00    +0.070 C 
BRANCH  10  11
ATOM     11  C   UNL     1      -3.604   2.615  24.428  0.00  0.00    +0.102 A 
ATOM     12  N   UNL     1      -3.987   3.327  24.260  0.00  0.00    -0.082 NA
ATOM     13  O   UNL     1      -3.511   3.942  24.534  0.00  0.00    -0.355 OA
ATOM     14  C   UNL     1      -2.836   3.612  24.871  0.00  0.00    +0.187 A 
ATOM     17  C   UNL     1      -2.892   2.792  24.806  0.00  0.00    +0.056 A 
BRANCH  14  15
ATOM     15  C   UNL     1      -2.211   4.029  25.215  0.00  0.00    +0.249 C 
ATOM     16  O   UNL     1      -2.317   4.406  25.941  0.00  0.00    -0.212 OA
ENDBRANCH  14  15
ENDBRANCH  10  11
ENDBRANCH   9  10
TORSDOF 5
ENDMDL
