MODEL 1
REMARK VINA RESULT:     -10.1      0.000      0.000
REMARK  Name = 
REMARK  1 active torsions:
REMARK  status: ('A' for Active; 'I' for Inactive)
REMARK    1  A    between atoms: C_2  and  N_4
REMARK                            x       y       z     vdW  Elec       q    Type
REMARK                         _______ _______ _______ _____ _____    ______ ____
ROOT
ATOM      4  N   UNL     1      -3.563  -1.217  24.539  0.00  0.00    -0.271 NA
ATOM      5  C   UNL     1      -2.802  -0.915  24.441  0.00  0.00    +0.094 C 
ATOM      6  C   UNL     1      -2.666  -0.105  24.522  0.00  0.00    +0.112 C 
ATOM      7  N   UNL     1      -3.291   0.403  24.700  0.00  0.00    -0.261 N 
ATOM      8  C   UNL     1      -4.053   0.101  24.798  0.00  0.00    +0.113 C 
ATOM      9  C   UNL     1      -4.556   0.730  24.970  0.00  0.00    +0.122 C 
ATOM     10  N   UNL     1      -4.107   1.422  24.979  0.00  0.00    -0.226 N 
ATOM     11  C   UNL     1      -3.325   1.219  24.812  0.00  0.00    +0.312 C 
ATOM     12  O   UNL     1      -2.688   1.741  24.765  0.00  0.00    -0.252 OA
ATOM     13  C   UNL     1      -4.390   2.182  25.128  0.00  0.00    +0.139 A 
ATOM     14  N   UNL     1      -3.871   2.825  25.118  0.00  0.00    -0.229 NA
ATOM     15  C   UNL     1      -4.154   3.585  25.268  0.00  0.00    +0.100 A 
ATOM     16  C   UNL     1      -4.955   3.703  25.427  0.00  0.00    +0.021 A 
ATOM     17  C   UNL     1      -5.473   3.062  25.437  0.00  0.00    +0.004 A 
ATOM     18  C   UNL     1      -5.190   2.301  25.288  0.00  0.00    +0.035 A 
ATOM     19  C   UNL     1      -4.189  -0.710  24.718  0.00  0.00    +0.094 C 
ENDROOT
BRANCH   4   2
ATOM      1  C   UNL     1      -4.153  -2.308  23.830  0.00  0.00    +0.017 C 
ATOM      2  C   UNL     1      -3.699  -2.027  24.459  0.00  0.00    +0.058 C 
ATOM      3  C   UNL     1      -3.382  -2.555  25.008  0.00  0.00    +0.017 C 
ENDBRANCH   4   2
TORSDOF 1
ENDMDL
MODEL 2
REMARK VINA RESULT:     -10.0      0.863      4.031
REMARK  Name = 
REMARK  1 active torsions:
REMARK  status: ('A' for Active; 'I' for Inactive)
REMARK    1  A    between atoms: C_2  and  N_4
REMARK                            x       y       z     vdW  Elec       q    Type
REMARK                         _______ _______ _______ _____ _____    ______ ____
ROOT
ATOM      4  N   UNL     1      -3.690   2.516  24.710  0.00  0.00    -0.271 NA
ATOM      5  C   UNL     1      -2.903   2.452  24.950  0.00  0.00    +0.094 C 
ATOM      6  C   UNL     1      -2.543   1.711  24.986  0.00  0.00    +0.112 C 
ATOM      7  N   UNL     1      -2.968   1.034  24.783  0.00  0.00    -0.261 N 
ATOM      8  C   UNL     1      -3.755   1.098  24.544  0.00  0.00    +0.113 C 
ATOM      9  C   UNL     1      -4.033   0.340  24.378  0.00  0.00    +0.122 C 
ATOM     10  N   UNL     1      -3.419  -0.193  24.515  0.00  0.00    -0.226 N 
ATOM     11  C   UNL     1      -2.761   0.236  24.765  0.00  0.00    +0.312 C 
ATOM     12  O   UNL     1      -2.024  -0.078  24.963  0.00  0.00    -0.252 OA
ATOM     13  C   UNL     1      -3.456  -1.012  24.419  0.00  0.00    +0.139 A 
ATOM     14  N   UNL     1      -2.793  -1.477  24.578  0.00  0.00    -0.229 NA
ATOM     15  C   UNL     1      -2.831  -2.295  24.482  0.00  0.00    +0.100 A 
ATOM     16  C   UNL     1      -3.531  -2.649  24.226  0.00  0.00    +0.021 A 
ATOM     17  C   UNL     1      -4.194  -2.184  24.067  0.00  0.00    +0.004 A 
ATOM     18  C   UNL     1      -4.156  -1.366  24.164  0.00  0.00    +0.035 A 
ATOM     19  C   UNL     1      -4.116   1.839  24.507  0.00  0.00    +0.094 C 
ENDROOT
BRANCH   4   2
ATOM      1  C   UNL     1      -3.893   3.762  24.041  0.00  0.00    +0.017 C 
ATOM      2  C   UNL     1      -4.052   3.257  24.674  0.00  0.00    +0.058 C 
ATOM      3  C   UNL     1      -4.571   3.493  25.270  0.00  0.00    +0.017 C 
ENDBRANCH   4   2
TORSDOF 1
ENDMDL
MODEL 3
REMARK VINA RESULT:     -10.0      1.696      2.435
REMARK  Name = 
REMARK  1 active torsions:
REMARK  status: ('A' for Active; 'I' for Inactive)
REMARK    1  A    between atoms: C_2  and  N_4
REMARK                            x       y       z     vdW  Elec       q    Type
REMARK                         _______ _______ _______ _____ _____    ______ ____
ROOT
ATOM      4  N   UNL     1      -3.792   0.193  24.790  0.00  0.00    -0.271 NA
ATOM      5  C   UNL     1      -4.470   0.660  24.842  0.00  0.00    +0.094 C 
ATOM      6  C   UNL     1      -4.403   1.478  24.914  0.00  0.00    +0.112 C 
ATOM      7  N   UNL     1      -3.657   1.832  24.936  0.00  0.00    -0.261 N 
ATOM      8  C   UNL     1      -2.979   1.365  24.885  0.00  0.00    +0.113 C 
ATOM      9  C   UNL     1      -2.323   1.863  24.921  0.00  0.00    +0.122 C 
ATOM     10  N   UNL     1      -2.596   2.638  24.994  0.00  0.00    -0.226 N 
ATOM     11  C   UNL     1      -3.420   2.618  25.003  0.00  0.00    +0.312 C 
ATOM     12  O   UNL     1      -3.921   3.271  25.069  0.00  0.00    -0.252 OA
ATOM     13  C   UNL     1      -2.127   3.315  25.049  0.00  0.00    +0.139 A 
ATOM     14  N   UNL     1      -2.480   4.058  25.120  0.00  0.00    -0.229 NA
ATOM     15  C   UNL     1      -2.011   4.734  25.175  0.00  0.00    +0.100 A 
ATOM     16  C   UNL     1      -1.188   4.667  25.158  0.00  0.00    +0.021 A 
ATOM     17  C   UNL     1      -0.835   3.926  25.086  0.00  0.00    +0.004 A 
ATOM     18  C   UNL     1      -1.305   3.249  25.032  0.00  0.00    +0.035 A 
ATOM     19  C   UNL     1      -3.046   0.545  24.812  0.00  0.00    +0.094 C 
ENDROOT
BRANCH   4   2
ATOM      1  C   UNL     1      -4.100  -0.958  24.002  0.00  0.00    +0.017 C 
ATOM      2  C   UNL     1      -3.859  -0.626  24.718  0.00  0.00    +0.058 C 
ATOM      3  C   UNL     1      -3.685  -1.113  25.360  0.00  0.00    +0.017 C 
ENDBRANCH   4   2
TORSDOF 1
ENDMDL
MODEL 4
REMARK VINA RESULT:      -9.7      1.949      4.187
REMARK  Name = 
REMARK  1 active torsions:
REMARK  status: ('A' for Active; 'I' for Inactive)
REMARK    1  A    between atoms: C_2  and  N_4
REMARK                            x       y       z     vdW  Elec       q    Type
REMARK                         _______ _______ _______ _____ _____    ______ ____
ROOT
ATOM      4  N   UNL     1      -1.466   2.192  25.215  0.00  0.00    -0.271 NA
ATOM      5  C   UNL     1      -0.875   1.717  25.541  0.00  0.00    +0.094 C 
ATOM      6  C   UNL     1      -0.959   0.896  25.540  0.00  0.00    +0.112 C 
ATOM      7  N   UNL     1      -1.633   0.550  25.215  0.00  0.00    -0.261 N 
ATOM      8  C   UNL     1      -2.224   1.025  24.889  0.00  0.00    +0.113 C 
ATOM      9  C   UNL     1      -2.823   0.532  24.610  0.00  0.00    +0.122 C 
ATOM     10  N   UNL     1      -2.603  -0.248  24.762  0.00  0.00    -0.226 N 
ATOM     11  C   UNL     1      -1.868  -0.236  25.136  0.00  0.00    +0.312 C 
ATOM     12  O   UNL     1      -1.441  -0.896  25.387  0.00  0.00    -0.252 OA
ATOM     13  C   UNL     1      -3.041  -0.921  24.574  0.00  0.00    +0.139 A 
ATOM     14  N   UNL     1      -2.748  -1.670  24.762  0.00  0.00    -0.229 NA
ATOM     15  C   UNL     1      -3.186  -2.343  24.573  0.00  0.00    +0.100 A 
ATOM     16  C   UNL     1      -3.917  -2.268  24.197  0.00  0.00    +0.021 A 
ATOM     17  C   UNL     1      -4.209  -1.520  24.009  0.00  0.00    +0.004 A 
ATOM     18  C   UNL     1      -3.771  -0.847  24.198  0.00  0.00    +0.035 A 
ATOM     19  C   UNL     1      -2.140   1.847  24.889  0.00  0.00    +0.094 C 
ENDROOT
BRANCH   4   2
ATOM      1  C   UNL     1      -0.885   3.376  24.666  0.00  0.00    +0.017 C 
ATOM      2  C   UNL     1      -1.382   3.013  25.215  0.00  0.00    +0.058 C 
ATOM      3  C   UNL     1      -1.795   3.470  25.764  0.00  0.00    +0.017 C 
ENDBRANCH   4   2
TORSDOF 1
ENDMDL
MODEL 5
REMARK VINA RESULT:      -9.5      2.112      3.486
REMARK  Name = 
REMARK  1 active torsions:
REMARK  status: ('A' for Active; 'I' for Inactive)
REMARK    1  A    between atoms: C_2  and  N_4
REMARK                            x       y       z     vdW  Elec       q    Type
REMARK                         _______ _______ _______ _____ _____    ______ ____
ROOT
ATOM      4  N   UNL     1      -5.040   2.048  25.235  0.00  0.00    -0.271 NA
ATOM      5  C   UNL     1      -4.582   1.414  24.974  0.00  0.00    +0.094 C 
ATOM      6  C   UNL     1      -3.780   1.522  24.817  0.00  0.00    +0.112 C 
ATOM      7  N   UNL     1      -3.435   2.265  24.919  0.00  0.00    -0.261 N 
ATOM      8  C   UNL     1      -3.894   2.900  25.180  0.00  0.00    +0.113 C 
ATOM      9  C   UNL     1      -3.407   3.563  25.230  0.00  0.00    +0.122 C 
ATOM     10  N   UNL     1      -2.647   3.339  25.001  0.00  0.00    -0.226 N 
ATOM     11  C   UNL     1      -2.665   2.537  24.809  0.00  0.00    +0.312 C 
ATOM     12  O   UNL     1      -2.024   2.085  24.552  0.00  0.00    -0.252 OA
ATOM     13  C   UNL     1      -1.985   3.830  24.969  0.00  0.00    +0.139 A 
ATOM     14  N   UNL     1      -1.256   3.526  24.728  0.00  0.00    -0.229 NA
ATOM     15  C   UNL     1      -0.594   4.017  24.696  0.00  0.00    +0.100 A 
ATOM     16  C   UNL     1      -0.661   4.813  24.906  0.00  0.00    +0.021 A 
ATOM     17  C   UNL     1      -1.388   5.116  25.147  0.00  0.00    +0.004 A 
ATOM     18  C   UNL     1      -2.050   4.625  25.179  0.00  0.00    +0.035 A 
ATOM     19  C   UNL     1      -4.697   2.791  25.338  0.00  0.00    +0.094 C 
ENDROOT
BRANCH   4   2
ATOM      1  C   UNL     1      -6.114   1.943  26.172  0.00  0.00    +0.017 C 
ATOM      2  C   UNL     1      -5.844   1.940  25.393  0.00  0.00    +0.058 C 
ATOM      3  C   UNL     1      -6.375   1.829  24.771  0.00  0.00    +0.017 C 
ENDBRANCH   4   2
TORSDOF 1
ENDMDL
MODEL 6
REMARK VINA RESULT:      -9.4      1.790      2.244
REMARK  Name = 
REMARK  1 active torsions:
REMARK  status: ('A' for Active; 'I' for Inactive)
REMARK    1  A    between atoms: C_2  and  N_4
REMARK                            x       y       z     vdW  Elec       q    Type
REMARK                         _______ _______ _______ _____ _____    ______ ____
ROOT
ATOM      4  N   UNL     1      -2.973  -0.419  24.739  0.00  0.00    -0.271 NA
ATOM      5  C   UNL     1      -2.173  -0.589  24.636  0.00  0.00    +0.094 C 
ATOM      6  C   UNL     1      -1.616   0.018  24.661  0.00  0.00    +0.112 C 
ATOM      7  N   UNL     1      -1.859   0.797  24.789  0.00  0.00    -0.261 N 
ATOM      8  C   UNL     1      -2.659   0.967  24.891  0.00  0.00    +0.113 C 
ATOM      9  C   UNL     1      -2.735   1.779  25.007  0.00  0.00    +0.122 C 
ATOM     10  N   UNL     1      -1.981   2.112  24.976  0.00  0.00    -0.226 N 
ATOM     11  C   UNL     1      -1.440   1.505  24.841  0.00  0.00    +0.312 C 
ATOM     12  O   UNL     1      -0.622   1.590  24.770  0.00  0.00    -0.252 OA
ATOM     13  C   UNL     1      -1.800   2.912  25.064  0.00  0.00    +0.139 A 
ATOM     14  N   UNL     1      -1.015   3.165  25.019  0.00  0.00    -0.229 NA
ATOM     15  C   UNL     1      -0.834   3.966  25.107  0.00  0.00    +0.100 A 
ATOM     16  C   UNL     1      -1.437   4.512  25.240  0.00  0.00    +0.021 A 
ATOM     17  C   UNL     1      -2.221   4.260  25.285  0.00  0.00    +0.004 A 
ATOM     18  C   UNL     1      -2.402   3.460  25.197  0.00  0.00    +0.035 A 
ATOM     19  C   UNL     1      -3.217   0.358  24.867  0.00  0.00    +0.094 C 
ENDROOT
BRANCH   4   2
ATOM      1  C   UNL     1      -3.589  -1.559  25.342  0.00  0.00    +0.017 C 
ATOM      2  C   UNL     1      -3.531  -1.027  24.714  0.00  0.00    +0.058 C 
ATOM      3  C   UNL     1      -4.030  -1.103  24.061  0.00  0.00    +0.017 C 
ENDBRANCH   4   2
TORSDOF 1
ENDMDL
MODEL 7
REMARK VINA RESULT:      -9.2      1.577      2.083
REMARK  Name = 
REMARK  1 active torsions:
REMARK  status: ('A' for Active; 'I' for Inactive)
REMARK    1  A    between atoms: C_2  and  N_4
REMARK                            x       y       z     vdW  Elec       q    Type
REMARK                         _______ _______ _______ _____ _____    ______ ____
ROOT
ATOM      4  N   UNL     1      -1.082   0.052  24.696  0.00  0.00    -0.271 NA
ATOM      5  C   UNL     1      -0.742   0.788  24.848  0.00  0.00    +0.094 C 
ATOM      6  C   UNL     1      -1.223   1.446  24.972  0.00  0.00    +0.112 C 
ATOM      7  N   UNL     1      -2.044   1.369  24.944  0.00  0.00    -0.261 N 
ATOM      8  C   UNL     1      -2.384   0.632  24.792  0.00  0.00    +0.113 C 
ATOM      9  C   UNL     1      -3.203   0.723  24.797  0.00  0.00    +0.122 C 
ATOM     10  N   UNL     1      -3.371   1.516  24.953  0.00  0.00    -0.226 N 
ATOM     11  C   UNL     1      -2.654   1.914  25.044  0.00  0.00    +0.312 C 
ATOM     12  O   UNL     1      -2.564   2.718  25.206  0.00  0.00    -0.252 OA
ATOM     13  C   UNL     1      -4.122   1.851  25.008  0.00  0.00    +0.139 A 
ATOM     14  N   UNL     1      -4.205   2.657  25.168  0.00  0.00    -0.229 NA
ATOM     15  C   UNL     1      -4.956   2.992  25.224  0.00  0.00    +0.100 A 
ATOM     16  C   UNL     1      -5.626   2.521  25.119  0.00  0.00    +0.021 A 
ATOM     17  C   UNL     1      -5.544   1.717  24.959  0.00  0.00    +0.004 A 
ATOM     18  C   UNL     1      -4.793   1.381  24.904  0.00  0.00    +0.035 A 
ATOM     19  C   UNL     1      -1.902  -0.027  24.667  0.00  0.00    +0.094 C 
ENDROOT
BRANCH   4   2
ATOM      1  C   UNL     1      -0.088  -0.627  23.925  0.00  0.00    +0.017 C 
ATOM      2  C   UNL     1      -0.600  -0.607  24.571  0.00  0.00    +0.058 C 
ATOM      3  C   UNL     1      -0.631  -1.245  25.094  0.00  0.00    +0.017 C 
ENDBRANCH   4   2
TORSDOF 1
ENDMDL
MODEL 8
REMARK VINA RESULT:      -9.0      1.516      3.944
REMARK  Name = 
REMARK  1 active torsions:
REMARK  status: ('A' for Active; 'I' for Inactive)
REMARK    1  A    between atoms: C_2  and  N_4
REMARK                            x       y       z     vdW  Elec       q    Type
REMARK                         _______ _______ _______ _____ _____    ______ ____
ROOT
ATOM      4  N   UNL     1      -4.531   2.210  24.770  0.00  0.00    -0.271 NA
ATOM      5  C   UNL     1      -4.099   2.671  24.239  0.00  0.00    +0.094 C 
ATOM      6  C   UNL     1      -3.352   2.426  23.993  0.00  0.00    +0.112 C 
ATOM      7  N   UNL     1      -3.034   1.720  24.277  0.00  0.00    -0.261 N 
ATOM      8  C   UNL     1      -3.465   1.258  24.808  0.00  0.00    +0.113 C 
ATOM      9  C   UNL     1      -3.014   0.594  24.993  0.00  0.00    +0.122 C 
ATOM     10  N   UNL     1      -2.304   0.644  24.577  0.00  0.00    -0.226 N 
ATOM     11  C   UNL     1      -2.317   1.340  24.135  0.00  0.00    +0.312 C 
ATOM     12  O   UNL     1      -1.716   1.609  23.637  0.00  0.00    -0.252 OA
ATOM     13  C   UNL     1      -1.688   0.095  24.599  0.00  0.00    +0.139 A 
ATOM     14  N   UNL     1      -1.007   0.220  24.150  0.00  0.00    -0.229 NA
ATOM     15  C   UNL     1      -0.392  -0.330  24.172  0.00  0.00    +0.100 A 
ATOM     16  C   UNL     1      -0.458  -1.004  24.643  0.00  0.00    +0.021 A 
ATOM     17  C   UNL     1      -1.138  -1.129  25.092  0.00  0.00    +0.004 A 
ATOM     18  C   UNL     1      -1.754  -0.580  25.070  0.00  0.00    +0.035 A 
ATOM     19  C   UNL     1      -4.214   1.504  25.055  0.00  0.00    +0.094 C 
ENDROOT
BRANCH   4   2
ATOM      1  C   UNL     1      -5.368   3.171  25.416  0.00  0.00    +0.017 C 
ATOM      2  C   UNL     1      -5.280   2.455  25.016  0.00  0.00    +0.058 C 
ATOM      3  C   UNL     1      -5.939   1.984  24.863  0.00  0.00    +0.017 C 
ENDBRANCH   4   2
TORSDOF 1
ENDMDL
MODEL 9
REMARK VINA RESULT:      -8.7      2.433      3.612
REMARK  Name = 
REMARK  1 active torsions:
REMARK  status: ('A' for Active; 'I' for Inactive)
REMARK    1  A    between atoms: C_2  and  N_4
REMARK                            x       y       z     vdW  Elec       q    Type
REMARK                         _______ _______ _______ _____ _____    ______ ____
ROOT
ATOM      4  N   UNL     1      -1.054   2.868  25.150  0.00  0.00    -0.271 NA
ATOM      5  C   UNL     1      -1.237   3.599  25.485  0.00  0.00    +0.094 C 
ATOM      6  C   UNL     1      -2.023   3.800  25.632  0.00  0.00    +0.112 C 
ATOM      7  N   UNL     1      -2.627   3.271  25.443  0.00  0.00    -0.261 N 
ATOM      8  C   UNL     1      -2.444   2.540  25.108  0.00  0.00    +0.113 C 
ATOM      9  C   UNL     1      -3.150   2.133  24.981  0.00  0.00    +0.122 C 
ATOM     10  N   UNL     1      -3.770   2.613  25.238  0.00  0.00    -0.226 N 
ATOM     11  C   UNL     1      -3.446   3.316  25.524  0.00  0.00    +0.312 C 
ATOM     12  O   UNL     1      -3.868   3.953  25.836  0.00  0.00    -0.252 OA
ATOM     13  C   UNL     1      -4.572   2.423  25.214  0.00  0.00    +0.139 A 
ATOM     14  N   UNL     1      -5.133   2.962  25.493  0.00  0.00    -0.229 NA
ATOM     15  C   UNL     1      -5.935   2.772  25.469  0.00  0.00    +0.100 A 
ATOM     16  C   UNL     1      -6.177   2.044  25.166  0.00  0.00    +0.021 A 
ATOM     17  C   UNL     1      -5.618   1.506  24.887  0.00  0.00    +0.004 A 
ATOM     18  C   UNL     1      -4.816   1.696  24.912  0.00  0.00    +0.035 A 
ATOM     19  C   UNL     1      -1.657   2.338  24.961  0.00  0.00    +0.094 C 
ENDROOT
BRANCH   4   2
ATOM      1  C   UNL     1       0.180   2.297  25.589  0.00  0.00    +0.017 C 
ATOM      2  C   UNL     1      -0.267   2.667  25.003  0.00  0.00    +0.058 C 
ATOM      3  C   UNL     1       0.072   2.835  24.270  0.00  0.00    +0.017 C 
ENDBRANCH   4   2
TORSDOF 1
ENDMDL
MODEL 10
REMARK VINA RESULT:      -7.9     18.864     19.916
REMARK  Name = 
REMARK  1 active torsions:
REMARK  status: ('A' for Active; 'I' for Inactive)
REMARK    1  A    between atoms: C_2  and  N_4
REMARK                            x       y       z     vdW  Elec       q    Type
REMARK                         _______ _______ _______ _____ _____    ______ ____
ROOT
ATOM      4  N   UNL     1      12.234   6.970  20.657  0.00  0.00    -0.271 NA
ATOM      5  C   UNL     1      12.255   7.006  19.833  0.00  0.00    +0.094 C 
ATOM      6  C   UNL     1      12.976   6.961  19.437  0.00  0.00    +0.112 C 
ATOM      7  N   UNL     1      13.678   6.880  19.863  0.00  0.00    -0.261 N 
ATOM      8  C   UNL     1      13.657   6.844  20.687  0.00  0.00    +0.113 C 
ATOM      9  C   UNL     1      14.432   6.764  20.958  0.00  0.00    +0.122 C 
ATOM     10  N   UNL     1      14.931   6.750  20.302  0.00  0.00    -0.226 N 
ATOM     11  C   UNL     1      14.465   6.822  19.626  0.00  0.00    +0.312 C 
ATOM     12  O   UNL     1      14.738   6.834  18.847  0.00  0.00    -0.252 OA
ATOM     13  C   UNL     1      15.753   6.678  20.319  0.00  0.00    +0.139 A 
ATOM     14  N   UNL     1      16.182   6.672  19.614  0.00  0.00    -0.229 NA
ATOM     15  C   UNL     1      17.003   6.600  19.631  0.00  0.00    +0.100 A 
ATOM     16  C   UNL     1      17.396   6.532  20.354  0.00  0.00    +0.021 A 
ATOM     17  C   UNL     1      16.968   6.537  21.058  0.00  0.00    +0.004 A 
ATOM     18  C   UNL     1      16.146   6.610  21.041  0.00  0.00    +0.035 A 
ATOM     19  C   UNL     1      12.935   6.889  21.085  0.00  0.00    +0.094 C 
ENDROOT
BRANCH   4   2
ATOM      1  C   UNL     1      11.075   7.715  21.038  0.00  0.00    +0.017 C 
ATOM      2  C   UNL     1      11.512   7.015  21.055  0.00  0.00    +0.058 C 
ATOM      3  C   UNL     1      11.227   6.361  21.469  0.00  0.00    +0.017 C 
ENDBRANCH   4   2
TORSDOF 1
ENDMDL
