MODEL 1
REMARK VINA RESULT:     -10.1      0.000      0.000
REMARK  Name = 
REMARK  5 active torsions:
REMARK  status: ('A' for Active; 'I' for Inactive)
REMARK    1  A    between atoms: C_2  and  C_3
REMARK    2  A    between atoms: C_5  and  C_6
REMARK    3  A    between atoms: C_6  and  N_7
REMARK    4  A    between atoms: C_8  and  C_10
REMARK    5  A    between atoms: C_15  and  N_18
REMARK                            x       y       z     vdW  Elec       q    Type
REMARK                         _______ _______ _______ _____ _____    ______ ____
ROOT
ATOM      3  C   UNL     1      -5.371   2.895  25.457  0.00  0.00    +0.180 C 
ATOM      4  O   UNL     1      -4.598   3.116  25.271  0.00  0.00    -0.350 OA
ATOM      5  C   UNL     1      -4.174   2.432  25.089  0.00  0.00    +0.154 C 
ATOM     15  C   UNL     1      -4.685   1.788  25.163  0.00  0.00    +0.120 C 
ATOM     16  C   UNL     1      -5.425   2.074  25.391  0.00  0.00    +0.198 C 
ATOM     17  O   UNL     1      -6.100   1.619  25.528  0.00  0.00    -0.219 OA
ENDROOT
BRANCH  15  18
ATOM     18  N   UNL     1      -4.490   0.997  25.033  0.00  0.00    -0.267 NA
ATOM     19  C   UNL     1      -4.616   0.659  24.290  0.00  0.00    +0.094 C 
ATOM     20  C   UNL     1      -4.422  -0.133  24.159  0.00  0.00    +0.111 C 
ATOM     21  N   UNL     1      -4.102  -0.585  24.771  0.00  0.00    -0.275 N 
ATOM     22  C   UNL     1      -3.976  -0.247  25.512  0.00  0.00    +0.111 C 
ATOM     23  C   UNL     1      -4.170   0.545  25.643  0.00  0.00    +0.094 C 
ATOM     24  C   UNL     1      -3.907  -1.376  24.640  0.00  0.00    +0.220 A 
ATOM     25  N   UNL     1      -4.033  -1.714  23.898  0.00  0.00    -0.212 NA
ATOM     26  C   UNL     1      -3.839  -2.506  23.767  0.00  0.00    +0.103 A 
ATOM     27  C   UNL     1      -3.518  -2.959  24.379  0.00  0.00    +0.041 A 
ATOM     28  C   UNL     1      -3.393  -2.620  25.120  0.00  0.00    +0.103 A 
ATOM     29  N   UNL     1      -3.587  -1.829  25.251  0.00  0.00    -0.212 NA
ENDBRANCH  15  18
BRANCH   3   2
ATOM      1  O   UNL     1      -5.859   4.221  25.670  0.00  0.00    -0.218 OA
ATOM      2  C   UNL     1      -5.982   3.405  25.672  0.00  0.00    +0.214 C 
ENDBRANCH   3   2
BRANCH   5   6
ATOM      6  C   UNL     1      -3.379   2.398  24.871  0.00  0.00    +0.146 C 
BRANCH   6   7
ATOM      7  N   UNL     1      -2.885   3.042  25.013  0.00  0.00    -0.196 NA
ATOM      8  C   UNL     1      -2.133   3.067  24.675  0.00  0.00    +0.300 C 
ATOM      9  O   UNL     1      -1.875   2.449  24.195  0.00  0.00    -0.265 OA
BRANCH   8  10
ATOM     10  C   UNL     1      -1.638   3.713  24.817  0.00  0.00    +0.200 A 
ATOM     11  C   UNL     1      -0.816   3.690  24.880  0.00  0.00    +0.046 A 
ATOM     12  C   UNL     1      -0.550   4.457  25.024  0.00  0.00    +0.044 A 
ATOM     13  C   UNL     1      -1.208   4.955  25.049  0.00  0.00    +0.180 A 
ATOM     14  O   UNL     1      -1.881   4.495  24.921  0.00  0.00    -0.446 OA
ENDBRANCH   8  10
ENDBRANCH   6   7
ENDBRANCH   5   6
TORSDOF 5
ENDMDL
MODEL 2
REMARK VINA RESULT:      -8.7      2.561      5.849
REMARK  Name = 
REMARK  5 active torsions:
REMARK  status: ('A' for Active; 'I' for Inactive)
REMARK    1  A    between atoms: C_2  and  C_3
REMARK    2  A    between atoms: C_5  and  C_6
REMARK    3  A    between atoms: C_6  and  N_7
REMARK    4  A    between atoms: C_8  and  C_10
REMARK    5  A    between atoms: C_15  and  N_18
REMARK                            x       y       z     vdW  Elec       q    Type
REMARK                         _______ _______ _______ _____ _____    ______ ____
ROOT
ATOM      3  C   UNL     1       0.232  -0.004  23.737  0.00  0.00    +0.180 C 
ATOM      4  O   UNL     1      -0.317  -0.513  24.084  0.00  0.00    -0.350 OA
ATOM      5  C   UNL     1      -0.904  -0.052  24.437  0.00  0.00    +0.154 C 
ATOM     15  C   UNL     1      -0.718   0.741  24.309  0.00  0.00    +0.120 C 
ATOM     16  C   UNL     1      -0.016   0.771  23.876  0.00  0.00    +0.198 C 
ATOM     17  O   UNL     1       0.371   1.457  23.627  0.00  0.00    -0.219 OA
ENDROOT
BRANCH  15  18
ATOM     18  N   UNL     1      -1.156   1.390  24.568  0.00  0.00    -0.267 NA
ATOM     19  C   UNL     1      -1.004   1.721  25.309  0.00  0.00    +0.094 C 
ATOM     20  C   UNL     1      -1.442   2.370  25.569  0.00  0.00    +0.111 C 
ATOM     21  N   UNL     1      -2.032   2.689  25.087  0.00  0.00    -0.275 N 
ATOM     22  C   UNL     1      -2.183   2.358  24.347  0.00  0.00    +0.111 C 
ATOM     23  C   UNL     1      -1.745   1.709  24.087  0.00  0.00    +0.094 C 
ATOM     24  C   UNL     1      -2.470   3.338  25.347  0.00  0.00    +0.220 A 
ATOM     25  N   UNL     1      -2.318   3.668  26.087  0.00  0.00    -0.212 NA
ATOM     26  C   UNL     1      -2.756   4.318  26.347  0.00  0.00    +0.103 A 
ATOM     27  C   UNL     1      -3.346   4.637  25.865  0.00  0.00    +0.041 A 
ATOM     28  C   UNL     1      -3.497   4.306  25.125  0.00  0.00    +0.103 A 
ATOM     29  N   UNL     1      -3.059   3.657  24.866  0.00  0.00    -0.212 NA
ENDBRANCH  15  18
BRANCH   3   2
ATOM      1  O   UNL     1       0.840  -0.593  22.586  0.00  0.00    -0.218 OA
ATOM      2  C   UNL     1       0.908  -0.229  23.324  0.00  0.00    +0.214 C 
ENDBRANCH   3   2
BRANCH   5   6
ATOM      6  C   UNL     1      -1.561  -0.336  24.847  0.00  0.00    +0.146 C 
BRANCH   6   7
ATOM      7  N   UNL     1      -1.990  -0.974  24.548  0.00  0.00    -0.196 NA
ATOM      8  C   UNL     1      -2.601  -1.305  24.993  0.00  0.00    +0.300 C 
ATOM      9  O   UNL     1      -2.783  -0.999  25.736  0.00  0.00    -0.265 OA
BRANCH   8  10
ATOM     10  C   UNL     1      -3.030  -1.943  24.693  0.00  0.00    +0.200 A 
ATOM     11  C   UNL     1      -3.770  -1.904  24.332  0.00  0.00    +0.046 A 
ATOM     12  C   UNL     1      -3.991  -2.669  24.117  0.00  0.00    +0.044 A 
ATOM     13  C   UNL     1      -3.386  -3.182  24.346  0.00  0.00    +0.180 A 
ATOM     14  O   UNL     1      -2.792  -2.734  24.701  0.00  0.00    -0.446 OA
ENDBRANCH   8  10
ENDBRANCH   6   7
ENDBRANCH   5   6
TORSDOF 5
ENDMDL
MODEL 3
REMARK VINA RESULT:      -8.7      2.076      3.773
REMARK  Name = 
REMARK  5 active torsions:
REMARK  status: ('A' for Active; 'I' for Inactive)
REMARK    1  A    between atoms: C_2  and  C_3
REMARK    2  A    between atoms: C_5  and  C_6
REMARK    3  A    between atoms: C_6  and  N_7
REMARK    4  A    between atoms: C_8  and  C_10
REMARK    5  A    between atoms: C_15  and  N_18
REMARK                            x       y       z     vdW  Elec       q    Type
REMARK                         _______ _______ _______ _____ _____    ______ ____
ROOT
ATOM      3  C   UNL     1      -1.212   4.217  24.971  0.00  0.00    +0.180 C 
ATOM      4  O   UNL     1      -2.000   4.063  24.784  0.00  0.00    -0.350 OA
ATOM      5  C   UNL     1      -2.093   3.245  24.724  0.00  0.00    +0.154 C 
ATOM     15  C   UNL     1      -1.361   2.894  24.874  0.00  0.00    +0.120 C 
ATOM     16  C   UNL     1      -0.817   3.495  25.027  0.00  0.00    +0.198 C 
ATOM     17  O   UNL     1      -0.017   3.391  25.204  0.00  0.00    -0.219 OA
ENDROOT
BRANCH  15  18
ATOM     18  N   UNL     1      -1.202   2.085  24.872  0.00  0.00    -0.267 NA
ATOM     19  C   UNL     1      -0.981   1.710  24.171  0.00  0.00    +0.094 C 
ATOM     20  C   UNL     1      -0.822   0.900  24.168  0.00  0.00    +0.111 C 
ATOM     21  N   UNL     1      -0.884   0.465  24.868  0.00  0.00    -0.275 N 
ATOM     22  C   UNL     1      -1.105   0.840  25.568  0.00  0.00    +0.111 C 
ATOM     23  C   UNL     1      -1.265   1.650  25.570  0.00  0.00    +0.094 C 
ATOM     24  C   UNL     1      -0.725  -0.345  24.865  0.00  0.00    +0.220 A 
ATOM     25  N   UNL     1      -0.504  -0.719  24.164  0.00  0.00    -0.212 NA
ATOM     26  C   UNL     1      -0.345  -1.529  24.162  0.00  0.00    +0.103 A 
ATOM     27  C   UNL     1      -0.407  -1.964  24.861  0.00  0.00    +0.041 A 
ATOM     28  C   UNL     1      -0.628  -1.588  25.561  0.00  0.00    +0.103 A 
ATOM     29  N   UNL     1      -0.787  -0.779  25.563  0.00  0.00    -0.212 NA
ENDBRANCH  15  18
BRANCH   3   2
ATOM      1  O   UNL     1      -1.356   5.634  25.081  0.00  0.00    -0.218 OA
ATOM      2  C   UNL     1      -0.877   4.962  25.082  0.00  0.00    +0.214 C 
ENDBRANCH   3   2
BRANCH   5   6
ATOM      6  C   UNL     1      -2.794   2.849  24.546  0.00  0.00    +0.146 C 
BRANCH   6   7
ATOM      7  N   UNL     1      -3.488   3.036  24.950  0.00  0.00    -0.196 NA
ATOM      8  C   UNL     1      -4.213   2.747  24.681  0.00  0.00    +0.300 C 
ATOM      9  O   UNL     1      -4.243   2.271  24.008  0.00  0.00    -0.265 OA
BRANCH   8  10
ATOM     10  C   UNL     1      -4.907   2.934  25.086  0.00  0.00    +0.200 A 
ATOM     11  C   UNL     1      -5.474   2.398  25.351  0.00  0.00    +0.046 A 
ATOM     12  C   UNL     1      -6.073   2.824  25.725  0.00  0.00    +0.044 A 
ATOM     13  C   UNL     1      -5.875   3.624  25.691  0.00  0.00    +0.180 A 
ATOM     14  O   UNL     1      -5.155   3.693  25.296  0.00  0.00    -0.446 OA
ENDBRANCH   8  10
ENDBRANCH   6   7
ENDBRANCH   5   6
TORSDOF 5
ENDMDL
MODEL 4
REMARK VINA RESULT:      -8.4      1.317      4.820
REMARK  Name = 
REMARK  5 active torsions:
REMARK  status: ('A' for Active; 'I' for Inactive)
REMARK    1  A    between atoms: C_2  and  C_3
REMARK    2  A    between atoms: C_5  and  C_6
REMARK    3  A    between atoms: C_6  and  N_7
REMARK    4  A    between atoms: C_8  and  C_10
REMARK    5  A    between atoms: C_15  and  N_18
REMARK                            x       y       z     vdW  Elec       q    Type
REMARK                         _______ _______ _______ _____ _____    ______ ____
ROOT
ATOM      3  C   UNL     1      -5.730   1.772  25.043  0.00  0.00    +0.180 C 
ATOM      4  O   UNL     1      -5.329   1.055  24.965  0.00  0.00    -0.350 OA
ATOM      5  C   UNL     1      -4.523   1.219  24.898  0.00  0.00    +0.154 C 
ATOM     15  C   UNL     1      -4.426   2.038  24.934  0.00  0.00    +0.120 C 
ATOM     16  C   UNL     1      -5.172   2.379  25.023  0.00  0.00    +0.198 C 
ATOM     17  O   UNL     1      -5.331   3.187  25.083  0.00  0.00    -0.219 OA
ENDROOT
BRANCH  15  18
ATOM     18  N   UNL     1      -3.709   2.443  24.888  0.00  0.00    -0.267 NA
ATOM     19  C   UNL     1      -3.340   2.707  25.578  0.00  0.00    +0.094 C 
ATOM     20  C   UNL     1      -2.623   3.113  25.533  0.00  0.00    +0.111 C 
ATOM     21  N   UNL     1      -2.275   3.255  24.798  0.00  0.00    -0.275 N 
ATOM     22  C   UNL     1      -2.644   2.991  24.109  0.00  0.00    +0.111 C 
ATOM     23  C   UNL     1      -3.361   2.585  24.154  0.00  0.00    +0.094 C 
ATOM     24  C   UNL     1      -1.558   3.661  24.753  0.00  0.00    +0.220 A 
ATOM     25  N   UNL     1      -1.190   3.924  25.442  0.00  0.00    -0.212 NA
ATOM     26  C   UNL     1      -0.473   4.330  25.397  0.00  0.00    +0.103 A 
ATOM     27  C   UNL     1      -0.124   4.473  24.662  0.00  0.00    +0.041 A 
ATOM     28  C   UNL     1      -0.494   4.209  23.973  0.00  0.00    +0.103 A 
ATOM     29  N   UNL     1      -1.210   3.803  24.019  0.00  0.00    -0.212 NA
ENDBRANCH  15  18
BRANCH   3   2
ATOM      1  O   UNL     1      -7.053   1.594  24.534  0.00  0.00    -0.218 OA
ATOM      2  C   UNL     1      -6.545   1.865  25.125  0.00  0.00    +0.214 C 
ENDBRANCH   3   2
BRANCH   5   6
ATOM      6  C   UNL     1      -3.921   0.662  24.810  0.00  0.00    +0.146 C 
BRANCH   6   7
ATOM      7  N   UNL     1      -4.106  -0.121  24.632  0.00  0.00    -0.196 NA
ATOM      8  C   UNL     1      -3.508  -0.689  24.597  0.00  0.00    +0.300 C 
ATOM      9  O   UNL     1      -2.726  -0.473  24.741  0.00  0.00    -0.265 OA
BRANCH   8  10
ATOM     10  C   UNL     1      -3.694  -1.473  24.419  0.00  0.00    +0.200 A 
ATOM     11  C   UNL     1      -3.468  -2.136  24.853  0.00  0.00    +0.046 A 
ATOM     12  C   UNL     1      -3.773  -2.804  24.477  0.00  0.00    +0.044 A 
ATOM     13  C   UNL     1      -4.189  -2.552  23.810  0.00  0.00    +0.180 A 
ATOM     14  O   UNL     1      -4.141  -1.730  23.773  0.00  0.00    -0.446 OA
ENDBRANCH   8  10
ENDBRANCH   6   7
ENDBRANCH   5   6
TORSDOF 5
ENDMDL
MODEL 5
REMARK VINA RESULT:      -8.4      3.165      4.222
REMARK  Name = 
REMARK  5 active torsions:
REMARK  status: ('A' for Active; 'I' for Inactive)
REMARK    1  A    between atoms: C_2  and  C_3
REMARK    2  A    between atoms: C_5  and  C_6
REMARK    3  A    between atoms: C_6  and  N_7
REMARK    4  A    between atoms: C_8  and  C_10
REMARK    5  A    between atoms: C_15  and  N_18
REMARK                            x       y       z     vdW  Elec       q    Type
REMARK                         _______ _______ _______ _____ _____    ______ ____
ROOT
ATOM      3  C   UNL     1      -0.242   2.111  25.438  0.00  0.00    +0.180 C 
ATOM      4  O   UNL     1       0.239   1.803  24.844  0.00  0.00    -0.350 OA
ATOM      5  C   UNL     1      -0.128   1.128  24.541  0.00  0.00    +0.154 C 
ATOM     15  C   UNL     1      -0.838   1.020  24.948  0.00  0.00    +0.120 C 
ATOM     16  C   UNL     1      -0.908   1.628  25.503  0.00  0.00    +0.198 C 
ATOM     17  O   UNL     1      -1.535   1.733  26.029  0.00  0.00    -0.219 OA
ENDROOT
BRANCH  15  18
ATOM     18  N   UNL     1      -1.381   0.412  24.823  0.00  0.00    -0.267 NA
ATOM     19  C   UNL     1      -1.281  -0.314  25.203  0.00  0.00    +0.094 C 
ATOM     20  C   UNL     1      -1.825  -0.922  25.078  0.00  0.00    +0.111 C 
ATOM     21  N   UNL     1      -2.467  -0.804  24.573  0.00  0.00    -0.275 N 
ATOM     22  C   UNL     1      -2.566  -0.079  24.194  0.00  0.00    +0.111 C 
ATOM     23  C   UNL     1      -2.022   0.530  24.319  0.00  0.00    +0.094 C 
ATOM     24  C   UNL     1      -3.010  -1.413  24.449  0.00  0.00    +0.220 A 
ATOM     25  N   UNL     1      -2.911  -2.138  24.829  0.00  0.00    -0.212 NA
ATOM     26  C   UNL     1      -3.454  -2.747  24.704  0.00  0.00    +0.103 A 
ATOM     27  C   UNL     1      -4.097  -2.630  24.199  0.00  0.00    +0.041 A 
ATOM     28  C   UNL     1      -4.195  -1.904  23.820  0.00  0.00    +0.103 A 
ATOM     29  N   UNL     1      -3.652  -1.296  23.945  0.00  0.00    -0.212 NA
ENDBRANCH  15  18
BRANCH   3   2
ATOM      1  O   UNL     1       0.629   2.852  26.294  0.00  0.00    -0.218 OA
ATOM      2  C   UNL     1      -0.087   2.783  25.888  0.00  0.00    +0.214 C 
ENDBRANCH   3   2
BRANCH   5   6
ATOM      6  C   UNL     1       0.163   0.648  23.937  0.00  0.00    +0.146 C 
BRANCH   6   7
ATOM      7  N   UNL     1       0.946   0.723  23.691  0.00  0.00    -0.196 NA
ATOM      8  C   UNL     1       1.225   0.272  23.058  0.00  0.00    +0.300 C 
ATOM      9  O   UNL     1       0.720  -0.253  22.672  0.00  0.00    -0.265 OA
BRANCH   8  10
ATOM     10  C   UNL     1       2.009   0.348  22.813  0.00  0.00    +0.200 A 
ATOM     11  C   UNL     1       2.386  -0.114  22.244  0.00  0.00    +0.046 A 
ATOM     12  C   UNL     1       3.164   0.151  22.173  0.00  0.00    +0.044 A 
ATOM     13  C   UNL     1       3.267   0.779  22.699  0.00  0.00    +0.180 A 
ATOM     14  O   UNL     1       2.554   0.901  23.094  0.00  0.00    -0.446 OA
ENDBRANCH   8  10
ENDBRANCH   6   7
ENDBRANCH   5   6
TORSDOF 5
ENDMDL
MODEL 6
REMARK VINA RESULT:      -8.0      2.521      4.051
REMARK  Name = 
REMARK  5 active torsions:
REMARK  status: ('A' for Active; 'I' for Inactive)
REMARK    1  A    between atoms: C_2  and  C_3
REMARK    2  A    between atoms: C_5  and  C_6
REMARK    3  A    between atoms: C_6  and  N_7
REMARK    4  A    between atoms: C_8  and  C_10
REMARK    5  A    between atoms: C_15  and  N_18
REMARK                            x       y       z     vdW  Elec       q    Type
REMARK                         _______ _______ _______ _____ _____    ______ ____
ROOT
ATOM      3  C   UNL     1       1.097   1.053  23.609  0.00  0.00    +0.180 C 
ATOM      4  O   UNL     1       0.775   1.637  24.095  0.00  0.00    -0.350 OA
ATOM      5  C   UNL     1       0.044   1.368  24.367  0.00  0.00    +0.154 C 
ATOM     15  C   UNL     1      -0.086   0.617  24.050  0.00  0.00    +0.120 C 
ATOM     16  C   UNL     1       0.565   0.423  23.581  0.00  0.00    +0.198 C 
ATOM     17  O   UNL     1       0.665  -0.279  23.158  0.00  0.00    -0.219 OA
ENDROOT
BRANCH  15  18
ATOM     18  N   UNL     1      -0.749   0.145  24.178  0.00  0.00    -0.267 NA
ATOM     19  C   UNL     1      -0.726  -0.453  24.746  0.00  0.00    +0.094 C 
ATOM     20  C   UNL     1      -1.390  -0.927  24.875  0.00  0.00    +0.111 C 
ATOM     21  N   UNL     1      -2.077  -0.801  24.435  0.00  0.00    -0.275 N 
ATOM     22  C   UNL     1      -2.100  -0.204  23.868  0.00  0.00    +0.111 C 
ATOM     23  C   UNL     1      -1.436   0.269  23.739  0.00  0.00    +0.094 C 
ATOM     24  C   UNL     1      -2.741  -1.275  24.564  0.00  0.00    +0.220 A 
ATOM     25  N   UNL     1      -2.717  -1.872  25.132  0.00  0.00    -0.212 NA
ATOM     26  C   UNL     1      -3.380  -2.346  25.261  0.00  0.00    +0.103 A 
ATOM     27  C   UNL     1      -4.068  -2.221  24.822  0.00  0.00    +0.041 A 
ATOM     28  C   UNL     1      -4.091  -1.623  24.254  0.00  0.00    +0.103 A 
ATOM     29  N   UNL     1      -3.427  -1.150  24.125  0.00  0.00    -0.212 NA
ENDBRANCH  15  18
BRANCH   3   2
ATOM      1  O   UNL     1       2.435   1.548  23.533  0.00  0.00    -0.218 OA
ATOM      2  C   UNL     1       1.822   1.092  23.220  0.00  0.00    +0.214 C 
ENDBRANCH   3   2
BRANCH   5   6
ATOM      6  C   UNL     1      -0.467   1.777  24.869  0.00  0.00    +0.146 C 
BRANCH   6   7
ATOM      7  N   UNL     1      -0.592   2.585  24.760  0.00  0.00    -0.196 NA
ATOM      8  C   UNL     1      -0.952   3.030  25.355  0.00  0.00    +0.300 C 
ATOM      9  O   UNL     1      -1.186   2.668  26.058  0.00  0.00    -0.265 OA
BRANCH   8  10
ATOM     10  C   UNL     1      -1.078   3.839  25.246  0.00  0.00    +0.200 A 
ATOM     11  C   UNL     1      -1.777   4.246  25.402  0.00  0.00    +0.046 A 
ATOM     12  C   UNL     1      -1.657   5.040  25.214  0.00  0.00    +0.044 A 
ATOM     13  C   UNL     1      -0.882   5.123  24.940  0.00  0.00    +0.180 A 
ATOM     14  O   UNL     1      -0.524   4.380  24.960  0.00  0.00    -0.446 OA
ENDBRANCH   8  10
ENDBRANCH   6   7
ENDBRANCH   5   6
TORSDOF 5
ENDMDL
MODEL 7
REMARK VINA RESULT:      -8.0      1.399      3.253
REMARK  Name = 
REMARK  5 active torsions:
REMARK  status: ('A' for Active; 'I' for Inactive)
REMARK    1  A    between atoms: C_2  and  C_3
REMARK    2  A    between atoms: C_5  and  C_6
REMARK    3  A    between atoms: C_6  and  N_7
REMARK    4  A    between atoms: C_8  and  C_10
REMARK    5  A    between atoms: C_15  and  N_18
REMARK                            x       y       z     vdW  Elec       q    Type
REMARK                         _______ _______ _______ _____ _____    ______ ____
ROOT
ATOM      3  C   UNL     1      -0.901   2.404  25.429  0.00  0.00    +0.180 C 
ATOM      4  O   UNL     1      -1.612   2.695  25.129  0.00  0.00    -0.350 OA
ATOM      5  C   UNL     1      -2.096   2.051  24.950  0.00  0.00    +0.154 C 
ATOM     15  C   UNL     1      -1.684   1.362  25.140  0.00  0.00    +0.120 C 
ATOM     16  C   UNL     1      -0.945   1.580  25.435  0.00  0.00    +0.198 C 
ATOM     17  O   UNL     1      -0.354   1.064  25.693  0.00  0.00    -0.219 OA
ENDROOT
BRANCH  15  18
ATOM     18  N   UNL     1      -1.962   0.590  25.049  0.00  0.00    -0.267 NA
ATOM     19  C   UNL     1      -2.368   0.223  25.667  0.00  0.00    +0.094 C 
ATOM     20  C   UNL     1      -2.646  -0.549  25.578  0.00  0.00    +0.111 C 
ATOM     21  N   UNL     1      -2.517  -0.953  24.870  0.00  0.00    -0.275 N 
ATOM     22  C   UNL     1      -2.111  -0.587  24.253  0.00  0.00    +0.111 C 
ATOM     23  C   UNL     1      -1.833   0.186  24.343  0.00  0.00    +0.094 C 
ATOM     24  C   UNL     1      -2.795  -1.725  24.780  0.00  0.00    +0.220 A 
ATOM     25  N   UNL     1      -3.201  -2.091  25.397  0.00  0.00    -0.212 NA
ATOM     26  C   UNL     1      -3.479  -2.864  25.308  0.00  0.00    +0.103 A 
ATOM     27  C   UNL     1      -3.350  -3.269  24.600  0.00  0.00    +0.041 A 
ATOM     28  C   UNL     1      -2.944  -2.901  23.983  0.00  0.00    +0.103 A 
ATOM     29  N   UNL     1      -2.667  -2.130  24.073  0.00  0.00    -0.212 NA
ENDBRANCH  15  18
BRANCH   3   2
ATOM      1  O   UNL     1      -0.266   3.676  25.574  0.00  0.00    -0.218 OA
ATOM      2  C   UNL     1      -0.259   2.856  25.678  0.00  0.00    +0.214 C 
ENDBRANCH   3   2
BRANCH   5   6
ATOM      6  C   UNL     1      -2.858   2.090  24.637  0.00  0.00    +0.146 C 
BRANCH   6   7
ATOM      7  N   UNL     1      -3.439   2.534  25.018  0.00  0.00    -0.196 NA
ATOM      8  C   UNL     1      -4.163   2.672  24.646  0.00  0.00    +0.300 C 
ATOM      9  O   UNL     1      -4.306   2.366  23.895  0.00  0.00    -0.265 OA
BRANCH   8  10
ATOM     10  C   UNL     1      -4.744   3.118  25.029  0.00  0.00    +0.200 A 
ATOM     11  C   UNL     1      -5.425   2.822  25.385  0.00  0.00    +0.046 A 
ATOM     12  C   UNL     1      -5.847   3.458  25.698  0.00  0.00    +0.044 A 
ATOM     13  C   UNL     1      -5.424   4.148  25.534  0.00  0.00    +0.180 A 
ATOM     14  O   UNL     1      -4.742   3.938  25.120  0.00  0.00    -0.446 OA
ENDBRANCH   8  10
ENDBRANCH   6   7
ENDBRANCH   5   6
TORSDOF 5
ENDMDL
MODEL 8
REMARK VINA RESULT:      -7.9      3.144      4.951
REMARK  Name = 
REMARK  5 active torsions:
REMARK  status: ('A' for Active; 'I' for Inactive)
REMARK    1  A    between atoms: C_2  and  C_3
REMARK    2  A    between atoms: C_5  and  C_6
REMARK    3  A    between atoms: C_6  and  N_7
REMARK    4  A    between atoms: C_8  and  C_10
REMARK    5  A    between atoms: C_15  and  N_18
REMARK                            x       y       z     vdW  Elec       q    Type
REMARK                         _______ _______ _______ _____ _____    ______ ____
ROOT
ATOM      3  C   UNL     1      -1.677  -1.611  24.619  0.00  0.00    +0.180 C 
ATOM      4  O   UNL     1      -0.980  -1.252  24.363  0.00  0.00    -0.350 OA
ATOM      5  C   UNL     1      -1.110  -0.438  24.328  0.00  0.00    +0.154 C 
ATOM     15  C   UNL     1      -1.888  -0.294  24.562  0.00  0.00    +0.120 C 
ATOM     16  C   UNL     1      -2.239  -1.019  24.742  0.00  0.00    +0.198 C 
ATOM     17  O   UNL     1      -3.014  -1.132  25.000  0.00  0.00    -0.219 OA
ENDROOT
BRANCH  15  18
ATOM     18  N   UNL     1      -2.251   0.445  24.608  0.00  0.00    -0.267 NA
ATOM     19  C   UNL     1      -2.700   0.724  23.974  0.00  0.00    +0.094 C 
ATOM     20  C   UNL     1      -3.064   1.463  24.020  0.00  0.00    +0.111 C 
ATOM     21  N   UNL     1      -2.979   1.923  24.701  0.00  0.00    -0.275 N 
ATOM     22  C   UNL     1      -2.530   1.644  25.333  0.00  0.00    +0.111 C 
ATOM     23  C   UNL     1      -2.166   0.905  25.287  0.00  0.00    +0.094 C 
ATOM     24  C   UNL     1      -3.343   2.663  24.746  0.00  0.00    +0.220 A 
ATOM     25  N   UNL     1      -3.791   2.941  24.113  0.00  0.00    -0.212 NA
ATOM     26  C   UNL     1      -4.156   3.680  24.159  0.00  0.00    +0.103 A 
ATOM     27  C   UNL     1      -4.071   4.141  24.839  0.00  0.00    +0.041 A 
ATOM     28  C   UNL     1      -3.622   3.861  25.472  0.00  0.00    +0.103 A 
ATOM     29  N   UNL     1      -3.258   3.123  25.425  0.00  0.00    -0.212 NA
ENDBRANCH  15  18
BRANCH   3   2
ATOM      1  O   UNL     1      -1.641  -2.948  24.116  0.00  0.00    -0.218 OA
ATOM      2  C   UNL     1      -1.793  -2.419  24.731  0.00  0.00    +0.214 C 
ENDBRANCH   3   2
BRANCH   5   6
ATOM      6  C   UNL     1      -0.559   0.131  24.099  0.00  0.00    +0.146 C 
BRANCH   6   7
ATOM      7  N   UNL     1       0.077  -0.080  23.619  0.00  0.00    -0.196 NA
ATOM      8  C   UNL     1       0.677   0.466  23.465  0.00  0.00    +0.300 C 
ATOM      9  O   UNL     1       0.640   1.222  23.791  0.00  0.00    -0.265 OA
BRANCH   8  10
ATOM     10  C   UNL     1       1.314   0.254  22.985  0.00  0.00    +0.200 A 
ATOM     11  C   UNL     1       2.107   0.436  23.121  0.00  0.00    +0.046 A 
ATOM     12  C   UNL     1       2.552   0.117  22.504  0.00  0.00    +0.044 A 
ATOM     13  C   UNL     1       2.033  -0.263  21.987  0.00  0.00    +0.180 A 
ATOM     14  O   UNL     1       1.268  -0.179  22.283  0.00  0.00    -0.446 OA
ENDBRANCH   8  10
ENDBRANCH   6   7
ENDBRANCH   5   6
TORSDOF 5
ENDMDL
MODEL 9
REMARK VINA RESULT:      -7.4      3.561      4.835
REMARK  Name = 
REMARK  5 active torsions:
REMARK  status: ('A' for Active; 'I' for Inactive)
REMARK    1  A    between atoms: C_2  and  C_3
REMARK    2  A    between atoms: C_5  and  C_6
REMARK    3  A    between atoms: C_6  and  N_7
REMARK    4  A    between atoms: C_8  and  C_10
REMARK    5  A    between atoms: C_15  and  N_18
REMARK                            x       y       z     vdW  Elec       q    Type
REMARK                         _______ _______ _______ _____ _____    ______ ____
ROOT
ATOM      3  C   UNL     1      -2.197  -0.708  25.244  0.00  0.00    +0.180 C 
ATOM      4  O   UNL     1      -2.501  -0.039  24.870  0.00  0.00    -0.350 OA
ATOM      5  C   UNL     1      -1.896   0.299  24.421  0.00  0.00    +0.154 C 
ATOM     15  C   UNL     1      -1.218  -0.161  24.518  0.00  0.00    +0.120 C 
ATOM     16  C   UNL     1      -1.404  -0.784  25.027  0.00  0.00    +0.198 C 
ATOM     17  O   UNL     1      -0.888  -1.378  25.275  0.00  0.00    -0.219 OA
ENDROOT
BRANCH  15  18
ATOM     18  N   UNL     1      -0.484  -0.024  24.168  0.00  0.00    -0.267 NA
ATOM     19  C   UNL     1      -0.242  -0.480  23.525  0.00  0.00    +0.094 C 
ATOM     20  C   UNL     1       0.492  -0.343  23.174  0.00  0.00    +0.111 C 
ATOM     21  N   UNL     1       0.985   0.251  23.468  0.00  0.00    -0.275 N 
ATOM     22  C   UNL     1       0.743   0.706  24.111  0.00  0.00    +0.111 C 
ATOM     23  C   UNL     1       0.008   0.569  24.462  0.00  0.00    +0.094 C 
ATOM     24  C   UNL     1       1.719   0.388  23.118  0.00  0.00    +0.220 A 
ATOM     25  N   UNL     1       1.960  -0.068  22.475  0.00  0.00    -0.212 NA
ATOM     26  C   UNL     1       2.695   0.069  22.124  0.00  0.00    +0.103 A 
ATOM     27  C   UNL     1       3.188   0.663  22.418  0.00  0.00    +0.041 A 
ATOM     28  C   UNL     1       2.946   1.119  23.062  0.00  0.00    +0.103 A 
ATOM     29  N   UNL     1       2.212   0.981  23.411  0.00  0.00    -0.212 NA
ENDBRANCH  15  18
BRANCH   3   2
ATOM      1  O   UNL     1      -3.403  -1.058  25.926  0.00  0.00    -0.218 OA
ATOM      2  C   UNL     1      -2.612  -1.213  25.747  0.00  0.00    +0.214 C 
ENDBRANCH   3   2
BRANCH   5   6
ATOM      6  C   UNL     1      -1.959   0.978  23.957  0.00  0.00    +0.146 C 
BRANCH   6   7
ATOM      7  N   UNL     1      -2.473   1.583  24.178  0.00  0.00    -0.196 NA
ATOM      8  C   UNL     1      -2.682   2.167  23.633  0.00  0.00    +0.300 C 
ATOM      9  O   UNL     1      -2.376   2.146  22.868  0.00  0.00    -0.265 OA
BRANCH   8  10
ATOM     10  C   UNL     1      -3.198   2.772  23.855  0.00  0.00    +0.200 A 
ATOM     11  C   UNL     1      -3.931   2.933  23.516  0.00  0.00    +0.046 A 
ATOM     12  C   UNL     1      -4.256   3.583  23.907  0.00  0.00    +0.044 A 
ATOM     13  C   UNL     1      -3.722   3.823  24.488  0.00  0.00    +0.180 A 
ATOM     14  O   UNL     1      -3.068   3.322  24.457  0.00  0.00    -0.446 OA
ENDBRANCH   8  10
ENDBRANCH   6   7
ENDBRANCH   5   6
TORSDOF 5
ENDMDL
