MODEL 1
REMARK VINA RESULT:     -11.2      0.000      0.000
REMARK  Name = 
REMARK  7 active torsions:
REMARK  status: ('A' for Active; 'I' for Inactive)
REMARK    1  A    between atoms: C_2  and  C_4
REMARK    2  A    between atoms: C_4  and  C_5
REMARK    3  A    between atoms: C_5  and  N_6
REMARK    4  A    between atoms: N_6  and  C_7
REMARK    5  A    between atoms: C_11  and  O_15
REMARK    6  A    between atoms: O_15  and  C_16
REMARK    7  A    between atoms: N_18  and  C_19
REMARK                            x       y       z     vdW  Elec       q    Type
REMARK                         _______ _______ _______ _____ _____    ______ ____
ROOT
ATOM      7  C   UNL     1      -1.300  -0.782  24.911  0.00  0.00    +0.132 C 
ATOM      8  C   UNL     1      -1.342  -0.653  25.724  0.00  0.00    +0.162 C 
ATOM      9  O   UNL     1      -0.968   0.064  25.888  0.00  0.00    -0.348 OA
ATOM     10  C   UNL     1      -0.694   0.376  25.176  0.00  0.00    +0.186 C 
ATOM     11  C   UNL     1      -0.292   1.013  24.837  0.00  0.00    +0.229 C 
ATOM     12  C   UNL     1      -0.249   0.883  24.023  0.00  0.00    +0.188 C 
ATOM     13  O   UNL     1      -0.624   0.166  23.860  0.00  0.00    -0.348 OA
ATOM     14  C   UNL     1      -0.899  -0.147  24.572  0.00  0.00    +0.164 C 
ENDROOT
BRANCH   7   6
ATOM      6  N   UNL     1      -1.605  -1.435  24.508  0.00  0.00    -0.214 NA
BRANCH   6   5
ATOM      5  C   UNL     1      -2.353  -1.724  24.697  0.00  0.00    +0.089 C 
BRANCH   5   4
ATOM      4  C   UNL     1      -2.695  -2.318  24.237  0.00  0.00    +0.019 C 
BRANCH   4   2
ATOM      1  C   UNL     1      -4.090  -2.176  23.960  0.00  0.00    +0.000 C 
ATOM      2  C   UNL     1      -3.477  -2.545  24.371  0.00  0.00    +0.001 C 
ATOM      3  C   UNL     1      -3.645  -3.141  24.915  0.00  0.00    +0.000 C 
ENDBRANCH   4   2
ENDBRANCH   5   4
ENDBRANCH   6   5
ENDBRANCH   7   6
BRANCH  11  15
ATOM     15  O   UNL     1       0.013   1.665  25.241  0.00  0.00    -0.432 OA
BRANCH  15  16
ATOM     16  C   UNL     1      -0.218   2.427  25.028  0.00  0.00    +0.425 C 
ATOM     17  O   UNL     1      -0.016   2.726  24.285  0.00  0.00    -0.224 OA
ATOM     18  N   UNL     1      -0.650   2.891  25.556  0.00  0.00    -0.142 NA
BRANCH  18  19
ATOM     19  C   UNL     1      -0.880   3.653  25.342  0.00  0.00    +0.077 A 
ATOM     20  C   UNL     1      -0.368   4.132  24.908  0.00  0.00    +0.017 A 
ATOM     21  C   UNL     1      -0.599   4.896  24.695  0.00  0.00    +0.001 A 
ATOM     22  C   UNL     1      -1.342   5.179  24.915  0.00  0.00    +0.000 A 
ATOM     23  C   UNL     1      -1.854   4.700  25.348  0.00  0.00    +0.001 A 
ATOM     24  C   UNL     1      -2.597   4.982  25.569  0.00  0.00    +0.000 A 
ATOM     25  C   UNL     1      -3.109   4.503  26.003  0.00  0.00    +0.000 A 
ATOM     26  C   UNL     1      -2.878   3.740  26.217  0.00  0.00    +0.000 A 
ATOM     27  C   UNL     1      -2.135   3.457  25.996  0.00  0.00    +0.001 A 
ATOM     28  C   UNL     1      -1.623   3.936  25.562  0.00  0.00    +0.015 A 
ENDBRANCH  18  19
ENDBRANCH  15  16
ENDBRANCH  11  15
TORSDOF 7
ENDMDL
MODEL 2
REMARK VINA RESULT:     -10.6      0.865      5.388
REMARK  Name = 
REMARK  7 active torsions:
REMARK  status: ('A' for Active; 'I' for Inactive)
REMARK    1  A    between atoms: C_2  and  C_4
REMARK    2  A    between atoms: C_4  and  C_5
REMARK    3  A    between atoms: C_5  and  N_6
REMARK    4  A    between atoms: N_6  and  C_7
REMARK    5  A    between atoms: C_11  and  O_15
REMARK    6  A    between atoms: O_15  and  C_16
REMARK    7  A    between atoms: N_18  and  C_19
REMARK                            x       y       z     vdW  Elec       q    Type
REMARK                         _______ _______ _______ _____ _____    ______ ____
ROOT
ATOM      7  C   UNL     1      -0.414   2.318  25.212  0.00  0.00    +0.132 C 
ATOM      8  C   UNL     1      -0.561   2.157  26.007  0.00  0.00    +0.162 C 
ATOM      9  O   UNL     1      -0.627   1.339  26.093  0.00  0.00    -0.348 OA
ATOM     10  C   UNL     1      -0.521   0.996  25.351  0.00  0.00    +0.186 C 
ATOM     11  C   UNL     1      -0.495   0.277  24.945  0.00  0.00    +0.229 C 
ATOM     12  C   UNL     1      -0.348   0.439  24.149  0.00  0.00    +0.188 C 
ATOM     13  O   UNL     1      -0.282   1.257  24.064  0.00  0.00    -0.348 OA
ATOM     14  C   UNL     1      -0.389   1.601  24.807  0.00  0.00    +0.164 C 
ENDROOT
BRANCH   7   6
ATOM      6  N   UNL     1      -0.310   3.067  24.880  0.00  0.00    -0.214 NA
BRANCH   6   5
ATOM      5  C   UNL     1      -0.760   3.703  25.149  0.00  0.00    +0.089 C 
BRANCH   5   4
ATOM      4  C   UNL     1      -0.903   4.347  24.652  0.00  0.00    +0.019 C 
BRANCH   4   2
ATOM      1  C   UNL     1      -2.005   4.980  25.305  0.00  0.00    +0.000 C 
ATOM      2  C   UNL     1      -1.262   5.026  24.950  0.00  0.00    +0.001 C 
ATOM      3  C   UNL     1      -0.877   5.754  24.893  0.00  0.00    +0.000 C 
ENDBRANCH   4   2
ENDBRANCH   5   4
ENDBRANCH   6   5
ENDBRANCH   7   6
BRANCH  11  15
ATOM     15  O   UNL     1      -0.600  -0.471  25.277  0.00  0.00    -0.432 OA
BRANCH  15  16
ATOM     16  C   UNL     1      -1.094  -1.020  24.911  0.00  0.00    +0.425 C 
ATOM     17  O   UNL     1      -0.817  -1.463  24.272  0.00  0.00    -0.224 OA
ATOM     18  N   UNL     1      -1.866  -1.126  25.182  0.00  0.00    -0.142 NA
BRANCH  18  19
ATOM     19  C   UNL     1      -2.360  -1.675  24.816  0.00  0.00    +0.077 A 
ATOM     20  C   UNL     1      -2.084  -2.435  24.653  0.00  0.00    +0.017 A 
ATOM     21  C   UNL     1      -2.580  -2.984  24.286  0.00  0.00    +0.001 A 
ATOM     22  C   UNL     1      -3.350  -2.773  24.082  0.00  0.00    +0.000 A 
ATOM     23  C   UNL     1      -3.626  -2.013  24.244  0.00  0.00    +0.001 A 
ATOM     24  C   UNL     1      -4.397  -1.801  24.040  0.00  0.00    +0.000 A 
ATOM     25  C   UNL     1      -4.673  -1.041  24.202  0.00  0.00    +0.000 A 
ATOM     26  C   UNL     1      -4.177  -0.492  24.569  0.00  0.00    +0.000 A 
ATOM     27  C   UNL     1      -3.407  -0.703  24.773  0.00  0.00    +0.001 A 
ATOM     28  C   UNL     1      -3.130  -1.463  24.611  0.00  0.00    +0.015 A 
ENDBRANCH  18  19
ENDBRANCH  15  16
ENDBRANCH  11  15
TORSDOF 7
ENDMDL
MODEL 3
REMARK VINA RESULT:     -10.4      2.308      6.190
REMARK  Name = 
REMARK  7 active torsions:
REMARK  status: ('A' for Active; 'I' for Inactive)
REMARK    1  A    between atoms: C_2  and  C_4
REMARK    2  A    between atoms: C_4  and  C_5
REMARK    3  A    between atoms: C_5  and  N_6
REMARK    4  A    between atoms: N_6  and  C_7
REMARK    5  A    between atoms: C_11  and  O_15
REMARK    6  A    between atoms: O_15  and  C_16
REMARK    7  A    between atoms: N_18  and  C_19
REMARK                            x       y       z     vdW  Elec       q    Type
REMARK                         _______ _______ _______ _____ _____    ______ ____
ROOT
ATOM      7  C   UNL     1      -3.496   3.379  24.441  0.00  0.00    +0.132 C 
ATOM      8  C   UNL     1      -3.275   2.975  23.758  0.00  0.00    +0.162 C 
ATOM      9  O   UNL     1      -3.663   2.246  23.755  0.00  0.00    -0.348 OA
ATOM     10  C   UNL     1      -4.124   2.202  24.437  0.00  0.00    +0.186 C 
ATOM     11  C   UNL     1      -4.650   1.724  24.858  0.00  0.00    +0.229 C 
ATOM     12  C   UNL     1      -4.872   2.129  25.542  0.00  0.00    +0.188 C 
ATOM     13  O   UNL     1      -4.483   2.857  25.544  0.00  0.00    -0.348 OA
ATOM     14  C   UNL     1      -4.021   2.902  24.861  0.00  0.00    +0.164 C 
ENDROOT
BRANCH   7   6
ATOM      6  N   UNL     1      -3.238   4.130  24.665  0.00  0.00    -0.214 NA
BRANCH   6   5
ATOM      5  C   UNL     1      -2.445   4.338  24.575  0.00  0.00    +0.089 C 
BRANCH   5   4
ATOM      4  C   UNL     1      -2.084   4.839  25.122  0.00  0.00    +0.019 C 
BRANCH   4   2
ATOM      1  C   UNL     1      -1.063   5.775  24.769  0.00  0.00    +0.000 C 
ATOM      2  C   UNL     1      -1.286   5.029  25.044  0.00  0.00    +0.001 C 
ATOM      3  C   UNL     1      -0.709   4.474  25.242  0.00  0.00    +0.000 C 
ENDBRANCH   4   2
ENDBRANCH   5   4
ENDBRANCH   6   5
ENDBRANCH   7   6
BRANCH  11  15
ATOM     15  O   UNL     1      -4.908   0.973  24.633  0.00  0.00    -0.432 OA
BRANCH  15  16
ATOM     16  C   UNL     1      -4.603   0.304  25.006  0.00  0.00    +0.425 C 
ATOM     17  O   UNL     1      -4.713   0.196  25.817  0.00  0.00    -0.224 OA
ATOM     18  N   UNL     1      -4.188  -0.259  24.568  0.00  0.00    -0.142 NA
BRANCH  18  19
ATOM     19  C   UNL     1      -3.882  -0.928  24.941  0.00  0.00    +0.077 A 
ATOM     20  C   UNL     1      -3.556  -0.867  25.695  0.00  0.00    +0.017 A 
ATOM     21  C   UNL     1      -3.250  -1.538  26.068  0.00  0.00    +0.001 A 
ATOM     22  C   UNL     1      -3.271  -2.268  25.686  0.00  0.00    +0.000 A 
ATOM     23  C   UNL     1      -3.597  -2.329  24.931  0.00  0.00    +0.001 A 
ATOM     24  C   UNL     1      -3.618  -3.059  24.548  0.00  0.00    +0.000 A 
ATOM     25  C   UNL     1      -3.944  -3.120  23.793  0.00  0.00    +0.000 A 
ATOM     26  C   UNL     1      -4.250  -2.450  23.420  0.00  0.00    +0.000 A 
ATOM     27  C   UNL     1      -4.229  -1.720  23.802  0.00  0.00    +0.001 A 
ATOM     28  C   UNL     1      -3.903  -1.658  24.558  0.00  0.00    +0.015 A 
ENDBRANCH  18  19
ENDBRANCH  15  16
ENDBRANCH  11  15
TORSDOF 7
ENDMDL
MODEL 4
REMARK VINA RESULT:     -10.1      2.105      2.678
REMARK  Name = 
REMARK  7 active torsions:
REMARK  status: ('A' for Active; 'I' for Inactive)
REMARK    1  A    between atoms: C_2  and  C_4
REMARK    2  A    between atoms: C_4  and  C_5
REMARK    3  A    between atoms: C_5  and  N_6
REMARK    4  A    between atoms: N_6  and  C_7
REMARK    5  A    between atoms: C_11  and  O_15
REMARK    6  A    between atoms: O_15  and  C_16
REMARK    7  A    between atoms: N_18  and  C_19
REMARK                            x       y       z     vdW  Elec       q    Type
REMARK                         _______ _______ _______ _____ _____    ______ ____
ROOT
ATOM      7  C   UNL     1      -4.336  -0.001  24.600  0.00  0.00    +0.132 C 
ATOM      8  C   UNL     1      -4.551   0.136  25.385  0.00  0.00    +0.162 C 
ATOM      9  O   UNL     1      -4.486   0.945  25.530  0.00  0.00    -0.348 OA
ATOM     10  C   UNL     1      -4.232   1.309  24.835  0.00  0.00    +0.186 C 
ATOM     11  C   UNL     1      -4.034   2.034  24.494  0.00  0.00    +0.229 C 
ATOM     12  C   UNL     1      -3.819   1.898  23.709  0.00  0.00    +0.188 C 
ATOM     13  O   UNL     1      -3.884   1.088  23.565  0.00  0.00    -0.348 OA
ATOM     14  C   UNL     1      -4.139   0.724  24.261  0.00  0.00    +0.164 C 
ENDROOT
BRANCH   7   6
ATOM      6  N   UNL     1      -4.322  -0.734  24.223  0.00  0.00    -0.214 NA
BRANCH   6   5
ATOM      5  C   UNL     1      -3.915  -1.366  24.563  0.00  0.00    +0.089 C 
BRANCH   5   4
ATOM      4  C   UNL     1      -3.765  -2.046  24.121  0.00  0.00    +0.019 C 
BRANCH   4   2
ATOM      1  C   UNL     1      -3.583  -3.297  24.789  0.00  0.00    +0.000 C 
ATOM      2  C   UNL     1      -3.266  -2.630  24.420  0.00  0.00    +0.001 C 
ATOM      3  C   UNL     1      -2.448  -2.549  24.349  0.00  0.00    +0.000 C 
ENDBRANCH   4   2
ENDBRANCH   5   4
ENDBRANCH   6   5
ENDBRANCH   7   6
BRANCH  11  15
ATOM     15  O   UNL     1      -4.049   2.768  24.873  0.00  0.00    -0.432 OA
BRANCH  15  16
ATOM     16  C   UNL     1      -3.410   3.282  24.799  0.00  0.00    +0.425 C 
ATOM     17  O   UNL     1      -3.367   3.799  24.157  0.00  0.00    -0.224 OA
ATOM     18  N   UNL     1      -2.812   3.282  25.368  0.00  0.00    -0.142 NA
BRANCH  18  19
ATOM     19  C   UNL     1      -2.171   3.797  25.294  0.00  0.00    +0.077 A 
ATOM     20  C   UNL     1      -2.297   4.582  25.076  0.00  0.00    +0.017 A 
ATOM     21  C   UNL     1      -1.656   5.098  25.002  0.00  0.00    +0.001 A 
ATOM     22  C   UNL     1      -0.891   4.827  25.147  0.00  0.00    +0.000 A 
ATOM     23  C   UNL     1      -0.765   4.042  25.365  0.00  0.00    +0.001 A 
ATOM     24  C   UNL     1       0.000   3.771  25.511  0.00  0.00    +0.000 A 
ATOM     25  C   UNL     1       0.126   2.986  25.729  0.00  0.00    +0.000 A 
ATOM     26  C   UNL     1      -0.515   2.471  25.802  0.00  0.00    +0.000 A 
ATOM     27  C   UNL     1      -1.280   2.741  25.657  0.00  0.00    +0.001 A 
ATOM     28  C   UNL     1      -1.406   3.527  25.439  0.00  0.00    +0.015 A 
ENDBRANCH  18  19
ENDBRANCH  15  16
ENDBRANCH  11  15
TORSDOF 7
ENDMDL
MODEL 5
REMARK VINA RESULT:      -9.2      2.476      3.902
REMARK  Name = 
REMARK  7 active torsions:
REMARK  status: ('A' for Active; 'I' for Inactive)
REMARK    1  A    between atoms: C_2  and  C_4
REMARK    2  A    between atoms: C_4  and  C_5
REMARK    3  A    between atoms: C_5  and  N_6
REMARK    4  A    between atoms: N_6  and  C_7
REMARK    5  A    between atoms: C_11  and  O_15
REMARK    6  A    between atoms: O_15  and  C_16
REMARK    7  A    between atoms: N_18  and  C_19
REMARK                            x       y       z     vdW  Elec       q    Type
REMARK                         _______ _______ _______ _____ _____    ______ ____
ROOT
ATOM      7  C   UNL     1       0.409   0.037  23.381  0.00  0.00    +0.132 C 
ATOM      8  C   UNL     1       0.285  -0.575  23.920  0.00  0.00    +0.162 C 
ATOM      9  O   UNL     1      -0.377  -0.384  24.374  0.00  0.00    -0.348 OA
ATOM     10  C   UNL     1      -0.661   0.345  24.116  0.00  0.00    +0.186 C 
ATOM     11  C   UNL     1      -1.246   0.915  24.237  0.00  0.00    +0.229 C 
ATOM     12  C   UNL     1      -1.122   1.527  23.697  0.00  0.00    +0.188 C 
ATOM     13  O   UNL     1      -0.461   1.336  23.243  0.00  0.00    -0.348 OA
ATOM     14  C   UNL     1      -0.176   0.605  23.502  0.00  0.00    +0.164 C 
ENDROOT
BRANCH   7   6
ATOM      6  N   UNL     1       1.012   0.073  22.819  0.00  0.00    -0.214 NA
BRANCH   6   5
ATOM      5  C   UNL     1       1.801   0.068  23.060  0.00  0.00    +0.089 C 
BRANCH   5   4
ATOM      4  C   UNL     1       2.404   0.082  22.497  0.00  0.00    +0.019 C 
BRANCH   4   2
ATOM      1  C   UNL     1       3.679  -0.348  22.980  0.00  0.00    +0.000 C 
ATOM      2  C   UNL     1       3.177   0.256  22.725  0.00  0.00    +0.001 C 
ATOM      3  C   UNL     1       3.450   1.034  22.698  0.00  0.00    +0.000 C 
ENDBRANCH   4   2
ENDBRANCH   5   4
ENDBRANCH   6   5
ENDBRANCH   7   6
BRANCH  11  15
ATOM     15  O   UNL     1      -1.850   0.879  24.799  0.00  0.00    -0.432 OA
BRANCH  15  16
ATOM     16  C   UNL     1      -2.290   1.552  24.975  0.00  0.00    +0.425 C 
ATOM     17  O   UNL     1      -1.916   2.223  25.279  0.00  0.00    -0.224 OA
ATOM     18  N   UNL     1      -3.105   1.558  24.848  0.00  0.00    -0.142 NA
BRANCH  18  19
ATOM     19  C   UNL     1      -3.546   2.232  25.024  0.00  0.00    +0.077 A 
ATOM     20  C   UNL     1      -3.168   2.957  25.126  0.00  0.00    +0.017 A 
ATOM     21  C   UNL     1      -3.609   3.633  25.302  0.00  0.00    +0.001 A 
ATOM     22  C   UNL     1      -4.429   3.582  25.377  0.00  0.00    +0.000 A 
ATOM     23  C   UNL     1      -4.808   2.857  25.275  0.00  0.00    +0.001 A 
ATOM     24  C   UNL     1      -5.628   2.805  25.349  0.00  0.00    +0.000 A 
ATOM     25  C   UNL     1      -6.007   2.080  25.247  0.00  0.00    +0.000 A 
ATOM     26  C   UNL     1      -5.565   1.404  25.070  0.00  0.00    +0.000 A 
ATOM     27  C   UNL     1      -4.746   1.456  24.996  0.00  0.00    +0.001 A 
ATOM     28  C   UNL     1      -4.366   2.181  25.098  0.00  0.00    +0.015 A 
ENDBRANCH  18  19
ENDBRANCH  15  16
ENDBRANCH  11  15
TORSDOF 7
ENDMDL
MODEL 6
REMARK VINA RESULT:      -9.1      1.744      5.349
REMARK  Name = 
REMARK  7 active torsions:
REMARK  status: ('A' for Active; 'I' for Inactive)
REMARK    1  A    between atoms: C_2  and  C_4
REMARK    2  A    between atoms: C_4  and  C_5
REMARK    3  A    between atoms: C_5  and  N_6
REMARK    4  A    between atoms: N_6  and  C_7
REMARK    5  A    between atoms: C_11  and  O_15
REMARK    6  A    between atoms: O_15  and  C_16
REMARK    7  A    between atoms: N_18  and  C_19
REMARK                            x       y       z     vdW  Elec       q    Type
REMARK                         _______ _______ _______ _____ _____    ______ ____
ROOT
ATOM      7  C   UNL     1      -2.992   2.882  24.383  0.00  0.00    +0.132 C 
ATOM      8  C   UNL     1      -3.111   2.651  23.601  0.00  0.00    +0.162 C 
ATOM      9  O   UNL     1      -2.609   2.014  23.444  0.00  0.00    -0.348 OA
ATOM     10  C   UNL     1      -2.181   1.853  24.129  0.00  0.00    +0.186 C 
ATOM     11  C   UNL     1      -1.606   1.360  24.457  0.00  0.00    +0.229 C 
ATOM     12  C   UNL     1      -1.487   1.591  25.241  0.00  0.00    +0.188 C 
ATOM     13  O   UNL     1      -1.989   2.227  25.397  0.00  0.00    -0.348 OA
ATOM     14  C   UNL     1      -2.418   2.389  24.710  0.00  0.00    +0.164 C 
ENDROOT
BRANCH   7   6
ATOM      6  N   UNL     1      -3.381   3.498  24.770  0.00  0.00    -0.214 NA
BRANCH   6   5
ATOM      5  C   UNL     1      -4.202   3.491  24.837  0.00  0.00    +0.089 C 
BRANCH   5   4
ATOM      4  C   UNL     1      -4.568   3.855  25.481  0.00  0.00    +0.019 C 
BRANCH   4   2
ATOM      1  C   UNL     1      -5.863   4.458  25.453  0.00  0.00    +0.000 C 
ATOM      2  C   UNL     1      -5.385   3.798  25.579  0.00  0.00    +0.001 C 
ATOM      3  C   UNL     1      -5.724   3.079  25.802  0.00  0.00    +0.000 C 
ENDBRANCH   4   2
ENDBRANCH   5   4
ENDBRANCH   6   5
ENDBRANCH   7   6
BRANCH  11  15
ATOM     15  O   UNL     1      -1.217   0.743  24.069  0.00  0.00    -0.432 OA
BRANCH  15  16
ATOM     16  C   UNL     1      -1.275  -0.027  24.358  0.00  0.00    +0.425 C 
ATOM     17  O   UNL     1      -0.755  -0.288  24.943  0.00  0.00    -0.224 OA
ATOM     18  N   UNL     1      -1.853  -0.536  24.062  0.00  0.00    -0.142 NA
BRANCH  18  19
ATOM     19  C   UNL     1      -1.910  -1.307  24.351  0.00  0.00    +0.077 A 
ATOM     20  C   UNL     1      -1.247  -1.679  24.668  0.00  0.00    +0.017 A 
ATOM     21  C   UNL     1      -1.305  -2.450  24.958  0.00  0.00    +0.001 A 
ATOM     22  C   UNL     1      -2.026  -2.848  24.928  0.00  0.00    +0.000 A 
ATOM     23  C   UNL     1      -2.690  -2.476  24.611  0.00  0.00    +0.001 A 
ATOM     24  C   UNL     1      -3.412  -2.874  24.581  0.00  0.00    +0.000 A 
ATOM     25  C   UNL     1      -4.076  -2.502  24.263  0.00  0.00    +0.000 A 
ATOM     26  C   UNL     1      -4.018  -1.731  23.974  0.00  0.00    +0.000 A 
ATOM     27  C   UNL     1      -3.296  -1.333  24.004  0.00  0.00    +0.001 A 
ATOM     28  C   UNL     1      -2.632  -1.705  24.322  0.00  0.00    +0.015 A 
ENDBRANCH  18  19
ENDBRANCH  15  16
ENDBRANCH  11  15
TORSDOF 7
ENDMDL
MODEL 7
REMARK VINA RESULT:      -9.1      2.407      5.232
REMARK  Name = 
REMARK  7 active torsions:
REMARK  status: ('A' for Active; 'I' for Inactive)
REMARK    1  A    between atoms: C_2  and  C_4
REMARK    2  A    between atoms: C_4  and  C_5
REMARK    3  A    between atoms: C_5  and  N_6
REMARK    4  A    between atoms: N_6  and  C_7
REMARK    5  A    between atoms: C_11  and  O_15
REMARK    6  A    between atoms: O_15  and  C_16
REMARK    7  A    between atoms: N_18  and  C_19
REMARK                            x       y       z     vdW  Elec       q    Type
REMARK                         _______ _______ _______ _____ _____    ______ ____
ROOT
ATOM      7  C   UNL     1       1.030   0.106  23.306  0.00  0.00    +0.132 C 
ATOM      8  C   UNL     1       0.883  -0.673  23.534  0.00  0.00    +0.162 C 
ATOM      9  O   UNL     1       0.249  -0.668  24.062  0.00  0.00    -0.348 OA
ATOM     10  C   UNL     1       0.006   0.113  24.160  0.00  0.00    +0.186 C 
ATOM     11  C   UNL     1      -0.537   0.600  24.548  0.00  0.00    +0.229 C 
ATOM     12  C   UNL     1      -0.390   1.380  24.319  0.00  0.00    +0.188 C 
ATOM     13  O   UNL     1       0.244   1.374  23.791  0.00  0.00    -0.348 OA
ATOM     14  C   UNL     1       0.488   0.592  23.693  0.00  0.00    +0.164 C 
ENDROOT
BRANCH   7   6
ATOM      6  N   UNL     1       1.618   0.354  22.782  0.00  0.00    -0.214 NA
BRANCH   6   5
ATOM      5  C   UNL     1       2.407   0.170  22.930  0.00  0.00    +0.089 C 
BRANCH   5   4
ATOM      4  C   UNL     1       2.991   0.392  22.390  0.00  0.00    +0.019 C 
BRANCH   4   2
ATOM      1  C   UNL     1       4.227  -0.054  22.953  0.00  0.00    +0.000 C 
ATOM      2  C   UNL     1       3.756   0.554  22.653  0.00  0.00    +0.001 C 
ATOM      3  C   UNL     1       4.050   1.323  22.616  0.00  0.00    +0.000 C 
ENDBRANCH   4   2
ENDBRANCH   5   4
ENDBRANCH   6   5
ENDBRANCH   7   6
BRANCH  11  15
ATOM     15  O   UNL     1      -1.124   0.351  25.072  0.00  0.00    -0.432 OA
BRANCH  15  16
ATOM     16  C   UNL     1      -1.905   0.286  24.815  0.00  0.00    +0.425 C 
ATOM     17  O   UNL     1      -2.254   0.905  24.394  0.00  0.00    -0.224 OA
ATOM     18  N   UNL     1      -2.338  -0.396  24.979  0.00  0.00    -0.142 NA
BRANCH  18  19
ATOM     19  C   UNL     1      -3.119  -0.461  24.723  0.00  0.00    +0.077 A 
ATOM     20  C   UNL     1      -3.600   0.208  24.691  0.00  0.00    +0.017 A 
ATOM     21  C   UNL     1      -4.382   0.143  24.434  0.00  0.00    +0.001 A 
ATOM     22  C   UNL     1      -4.682  -0.591  24.210  0.00  0.00    +0.000 A 
ATOM     23  C   UNL     1      -4.202  -1.261  24.241  0.00  0.00    +0.001 A 
ATOM     24  C   UNL     1      -4.502  -1.996  24.016  0.00  0.00    +0.000 A 
ATOM     25  C   UNL     1      -4.022  -2.665  24.048  0.00  0.00    +0.000 A 
ATOM     26  C   UNL     1      -3.239  -2.600  24.305  0.00  0.00    +0.000 A 
ATOM     27  C   UNL     1      -2.939  -1.866  24.529  0.00  0.00    +0.001 A 
ATOM     28  C   UNL     1      -3.419  -1.196  24.498  0.00  0.00    +0.015 A 
ENDBRANCH  18  19
ENDBRANCH  15  16
ENDBRANCH  11  15
TORSDOF 7
ENDMDL
MODEL 8
REMARK VINA RESULT:      -8.3      2.200      3.222
REMARK  Name = 
REMARK  7 active torsions:
REMARK  status: ('A' for Active; 'I' for Inactive)
REMARK    1  A    between atoms: C_2  and  C_4
REMARK    2  A    between atoms: C_4  and  C_5
REMARK    3  A    between atoms: C_5  and  N_6
REMARK    4  A    between atoms: N_6  and  C_7
REMARK    5  A    between atoms: C_11  and  O_15
REMARK    6  A    between atoms: O_15  and  C_16
REMARK    7  A    between atoms: N_18  and  C_19
REMARK                            x       y       z     vdW  Elec       q    Type
REMARK                         _______ _______ _______ _____ _____    ______ ____
ROOT
ATOM      7  C   UNL     1      -0.789   0.863  24.166  0.00  0.00    +0.132 C 
ATOM      8  C   UNL     1      -1.090   1.012  23.413  0.00  0.00    +0.162 C 
ATOM      9  O   UNL     1      -1.502   1.726  23.439  0.00  0.00    -0.348 OA
ATOM     10  C   UNL     1      -1.456   2.018  24.208  0.00  0.00    +0.186 C 
ATOM     11  C   UNL     1      -1.682   2.640  24.701  0.00  0.00    +0.229 C 
ATOM     12  C   UNL     1      -1.381   2.492  25.455  0.00  0.00    +0.188 C 
ATOM     13  O   UNL     1      -0.969   1.778  25.428  0.00  0.00    -0.348 OA
ATOM     14  C   UNL     1      -1.015   1.485  24.657  0.00  0.00    +0.164 C 
ENDROOT
BRANCH   7   6
ATOM      6  N   UNL     1      -0.340   0.207  24.387  0.00  0.00    -0.214 NA
BRANCH   6   5
ATOM      5  C   UNL     1      -0.685  -0.541  24.411  0.00  0.00    +0.089 C 
BRANCH   5   4
ATOM      4  C   UNL     1      -0.225  -1.203  24.583  0.00  0.00    +0.019 C 
BRANCH   4   2
ATOM      1  C   UNL     1      -0.306  -2.132  25.667  0.00  0.00    +0.000 C 
ATOM      2  C   UNL     1      -0.570  -1.866  24.931  0.00  0.00    +0.001 C 
ATOM      3  C   UNL     1      -1.179  -2.265  24.544  0.00  0.00    +0.000 C 
ENDBRANCH   4   2
ENDBRANCH   5   4
ENDBRANCH   6   5
ENDBRANCH   7   6
BRANCH  11  15
ATOM     15  O   UNL     1      -2.132   3.296  24.479  0.00  0.00    -0.432 OA
BRANCH  15  16
ATOM     16  C   UNL     1      -2.842   3.459  24.863  0.00  0.00    +0.425 C 
ATOM     17  O   UNL     1      -2.845   3.918  25.549  0.00  0.00    -0.224 OA
ATOM     18  N   UNL     1      -3.551   3.163  24.563  0.00  0.00    -0.142 NA
BRANCH  18  19
ATOM     19  C   UNL     1      -4.263   3.325  24.947  0.00  0.00    +0.077 A 
ATOM     20  C   UNL     1      -4.398   4.075  25.263  0.00  0.00    +0.017 A 
ATOM     21  C   UNL     1      -5.111   4.238  25.648  0.00  0.00    +0.001 A 
ATOM     22  C   UNL     1      -5.685   3.651  25.717  0.00  0.00    +0.000 A 
ATOM     23  C   UNL     1      -5.550   2.901  25.401  0.00  0.00    +0.001 A 
ATOM     24  C   UNL     1      -6.125   2.313  25.470  0.00  0.00    +0.000 A 
ATOM     25  C   UNL     1      -5.989   1.564  25.155  0.00  0.00    +0.000 A 
ATOM     26  C   UNL     1      -5.276   1.401  24.769  0.00  0.00    +0.000 A 
ATOM     27  C   UNL     1      -4.702   1.988  24.701  0.00  0.00    +0.001 A 
ATOM     28  C   UNL     1      -4.837   2.739  25.016  0.00  0.00    +0.015 A 
ENDBRANCH  18  19
ENDBRANCH  15  16
ENDBRANCH  11  15
TORSDOF 7
ENDMDL
