MODEL 1
REMARK VINA RESULT:     -11.2      0.000      0.000
REMARK  Name = 
REMARK  4 active torsions:
REMARK  status: ('A' for Active; 'I' for Inactive)
REMARK    1  A    between atoms: S_2  and  C_3
REMARK    2  A    between atoms: C_3  and  C_4
REMARK    3  A    between atoms: N_6  and  C_7
REMARK    4  A    between atoms: C_18  and  C_23
REMARK                            x       y       z     vdW  Elec       q    Type
REMARK                         _______ _______ _______ _____ _____    ______ ____
ROOT
ATOM      7  C   UNL     1      -1.677   2.794  25.092  0.00  0.00    +0.124 C 
ATOM      8  C   UNL     1      -0.909   2.495  25.058  0.00  0.00    +0.045 C 
ATOM      9  C   UNL     1      -0.958   1.673  25.006  0.00  0.00    +0.096 C 
ATOM     10  N   UNL     1      -1.757   1.465  25.008  0.00  0.00    -0.268 N 
ATOM     11  C   UNL     1      -2.201   2.159  25.061  0.00  0.00    +0.174 C 
ATOM     12  C   UNL     1      -3.021   2.243  25.083  0.00  0.00    +0.265 C 
ATOM     13  O   UNL     1      -3.299   3.018  25.138  0.00  0.00    -0.271 OA
ATOM     14  N   UNL     1      -3.599   1.656  25.056  0.00  0.00    -0.178 NA
ATOM     15  C   UNL     1      -3.502   0.839  25.001  0.00  0.00    +0.078 A 
ATOM     16  C   UNL     1      -4.228   0.448  24.990  0.00  0.00    +0.017 A 
ATOM     17  C   UNL     1      -4.254  -0.375  24.937  0.00  0.00    +0.001 A 
ATOM     18  C   UNL     1      -3.551  -0.807  24.896  0.00  0.00    -0.000 A 
ATOM     19  C   UNL     1      -2.824  -0.416  24.907  0.00  0.00    +0.006 A 
ATOM     20  C   UNL     1      -2.800   0.407  24.960  0.00  0.00    +0.069 A 
ATOM     21  C   UNL     1      -2.024   0.686  24.963  0.00  0.00    +0.251 C 
ATOM     22  O   UNL     1      -1.436   0.109  24.914  0.00  0.00    -0.270 OA
ENDROOT
BRANCH  18  23
ATOM     23  C   UNL     1      -3.576  -1.630  24.843  0.00  0.00    -0.004 A 
ATOM     24  C   UNL     1      -3.887  -1.991  24.169  0.00  0.00    -0.026 A 
ATOM     25  C   UNL     1      -4.172  -1.529  23.548  0.00  0.00    +0.031 C 
ATOM     26  C   UNL     1      -3.912  -2.814  24.116  0.00  0.00    -0.026 A 
ATOM     27  C   UNL     1      -4.222  -3.174  23.443  0.00  0.00    +0.031 C 
ATOM     28  C   UNL     1      -3.626  -3.276  24.738  0.00  0.00    -0.005 A 
ATOM     29  C   UNL     1      -3.316  -2.914  25.411  0.00  0.00    -0.000 A 
ATOM     30  C   UNL     1      -3.291  -2.091  25.464  0.00  0.00    -0.000 A 
ENDBRANCH  18  23
BRANCH   7   6
ATOM      4  C   UNL     1      -1.296   4.168  25.193  0.00  0.00    +0.252 C 
ATOM      5  O   UNL     1      -0.500   3.949  25.182  0.00  0.00    -0.272 OA
ATOM      6  N   UNL     1      -1.884   3.591  25.148  0.00  0.00    -0.204 NA
BRANCH   4   3
ATOM      3  C   UNL     1      -1.504   4.965  25.249  0.00  0.00    +0.144 C 
BRANCH   3   2
ATOM      1  C   UNL     1      -1.400   6.279  24.697  0.00  0.00    +0.070 C 
ATOM      2  S   UNL     1      -1.075   5.533  24.830  0.00  0.00    -0.130 S 
ENDBRANCH   3   2
ENDBRANCH   4   3
ENDBRANCH   7   6
TORSDOF 4
ENDMDL
MODEL 2
REMARK VINA RESULT:     -10.8      2.884      4.293
REMARK  Name = 
REMARK  4 active torsions:
REMARK  status: ('A' for Active; 'I' for Inactive)
REMARK    1  A    between atoms: S_2  and  C_3
REMARK    2  A    between atoms: C_3  and  C_4
REMARK    3  A    between atoms: N_6  and  C_7
REMARK    4  A    between atoms: C_18  and  C_23
REMARK                            x       y       z     vdW  Elec       q    Type
REMARK                         _______ _______ _______ _____ _____    ______ ____
ROOT
ATOM      7  C   UNL     1      -0.423   0.465  23.797  0.00  0.00    +0.124 C 
ATOM      8  C   UNL     1      -0.454  -0.068  24.425  0.00  0.00    +0.045 C 
ATOM      9  C   UNL     1      -1.180   0.026  24.804  0.00  0.00    +0.096 C 
ATOM     10  N   UNL     1      -1.599   0.619  24.410  0.00  0.00    -0.268 N 
ATOM     11  C   UNL     1      -1.130   0.890  23.787  0.00  0.00    +0.174 C 
ATOM     12  C   UNL     1      -1.301   1.477  23.233  0.00  0.00    +0.265 C 
ATOM     13  O   UNL     1      -0.712   1.621  22.673  0.00  0.00    -0.271 OA
ATOM     14  N   UNL     1      -1.981   1.937  23.165  0.00  0.00    -0.178 NA
ATOM     15  C   UNL     1      -2.660   1.925  23.633  0.00  0.00    +0.078 A 
ATOM     16  C   UNL     1      -3.216   2.478  23.375  0.00  0.00    +0.017 A 
ATOM     17  C   UNL     1      -3.936   2.555  23.770  0.00  0.00    +0.001 A 
ATOM     18  C   UNL     1      -4.101   2.079  24.423  0.00  0.00    -0.000 A 
ATOM     19  C   UNL     1      -3.546   1.525  24.682  0.00  0.00    +0.006 A 
ATOM     20  C   UNL     1      -2.825   1.449  24.286  0.00  0.00    +0.069 A 
ATOM     21  C   UNL     1      -2.353   0.868  24.632  0.00  0.00    +0.251 C 
ATOM     22  O   UNL     1      -2.678   0.484  25.286  0.00  0.00    -0.270 OA
ENDROOT
BRANCH  18  23
ATOM     23  C   UNL     1      -4.821   2.156  24.818  0.00  0.00    -0.004 A 
ATOM     24  C   UNL     1      -4.990   2.847  25.237  0.00  0.00    -0.026 A 
ATOM     25  C   UNL     1      -4.439   3.460  25.260  0.00  0.00    +0.031 C 
ATOM     26  C   UNL     1      -5.710   2.924  25.631  0.00  0.00    -0.026 A 
ATOM     27  C   UNL     1      -5.879   3.615  26.050  0.00  0.00    +0.031 C 
ATOM     28  C   UNL     1      -6.262   2.310  25.607  0.00  0.00    -0.005 A 
ATOM     29  C   UNL     1      -6.092   1.620  25.189  0.00  0.00    -0.000 A 
ATOM     30  C   UNL     1      -5.372   1.543  24.794  0.00  0.00    -0.000 A 
ENDBRANCH  18  23
BRANCH   7   6
ATOM      4  C   UNL     1       0.806  -0.007  23.241  0.00  0.00    +0.252 C 
ATOM      5  O   UNL     1       0.779  -0.665  23.739  0.00  0.00    -0.272 OA
ATOM      6  N   UNL     1       0.205   0.558  23.270  0.00  0.00    -0.204 NA
BRANCH   4   3
ATOM      3  C   UNL     1       1.434   0.085  22.714  0.00  0.00    +0.144 C 
BRANCH   3   2
ATOM      1  C   UNL     1       2.845   0.129  22.493  0.00  0.00    +0.070 C 
ATOM      2  S   UNL     1       2.201  -0.111  22.948  0.00  0.00    -0.130 S 
ENDBRANCH   3   2
ENDBRANCH   4   3
ENDBRANCH   7   6
TORSDOF 4
ENDMDL
MODEL 3
REMARK VINA RESULT:     -10.0      1.996      5.813
REMARK  Name = 
REMARK  4 active torsions:
REMARK  status: ('A' for Active; 'I' for Inactive)
REMARK    1  A    between atoms: S_2  and  C_3
REMARK    2  A    between atoms: C_3  and  C_4
REMARK    3  A    between atoms: N_6  and  C_7
REMARK    4  A    between atoms: C_18  and  C_23
REMARK                            x       y       z     vdW  Elec       q    Type
REMARK                         _______ _______ _______ _____ _____    ______ ____
ROOT
ATOM      7  C   UNL     1      -3.460  -0.379  24.707  0.00  0.00    +0.124 C 
ATOM      8  C   UNL     1      -4.129  -0.070  24.336  0.00  0.00    +0.045 C 
ATOM      9  C   UNL     1      -4.041   0.749  24.292  0.00  0.00    +0.096 C 
ATOM     10  N   UNL     1      -3.317   0.946  24.636  0.00  0.00    -0.268 N 
ATOM     11  C   UNL     1      -2.958   0.248  24.893  0.00  0.00    +0.174 C 
ATOM     12  C   UNL     1      -2.231   0.154  25.270  0.00  0.00    +0.265 C 
ATOM     13  O   UNL     1      -2.025  -0.623  25.459  0.00  0.00    -0.271 OA
ATOM     14  N   UNL     1      -1.683   0.731  25.484  0.00  0.00    -0.178 NA
ATOM     15  C   UNL     1      -1.726   1.548  25.374  0.00  0.00    +0.078 A 
ATOM     16  C   UNL     1      -1.057   1.929  25.670  0.00  0.00    +0.017 A 
ATOM     17  C   UNL     1      -0.990   2.749  25.615  0.00  0.00    +0.001 A 
ATOM     18  C   UNL     1      -1.593   3.189  25.263  0.00  0.00    -0.000 A 
ATOM     19  C   UNL     1      -2.263   2.808  24.966  0.00  0.00    +0.006 A 
ATOM     20  C   UNL     1      -2.329   1.987  25.022  0.00  0.00    +0.069 A 
ATOM     21  C   UNL     1      -3.036   1.720  24.693  0.00  0.00    +0.251 C 
ATOM     22  O   UNL     1      -3.530   2.303  24.381  0.00  0.00    -0.270 OA
ENDROOT
BRANCH  18  23
ATOM     23  C   UNL     1      -1.526   4.009  25.207  0.00  0.00    -0.004 A 
ATOM     24  C   UNL     1      -0.922   4.345  24.756  0.00  0.00    -0.026 A 
ATOM     25  C   UNL     1      -0.386   3.860  24.360  0.00  0.00    +0.031 C 
ATOM     26  C   UNL     1      -0.855   5.165  24.701  0.00  0.00    -0.026 A 
ATOM     27  C   UNL     1      -0.252   5.500  24.250  0.00  0.00    +0.031 C 
ATOM     28  C   UNL     1      -1.393   5.650  25.097  0.00  0.00    -0.005 A 
ATOM     29  C   UNL     1      -1.997   5.314  25.548  0.00  0.00    -0.000 A 
ATOM     30  C   UNL     1      -2.064   4.494  25.604  0.00  0.00    -0.000 A 
ENDBRANCH  18  23
BRANCH   7   6
ATOM      4  C   UNL     1      -3.814  -1.755  24.549  0.00  0.00    +0.252 C 
ATOM      5  O   UNL     1      -4.452  -1.536  24.073  0.00  0.00    -0.272 OA
ATOM      6  N   UNL     1      -3.318  -1.176  24.866  0.00  0.00    -0.204 NA
BRANCH   4   3
ATOM      3  C   UNL     1      -3.672  -2.552  24.707  0.00  0.00    +0.144 C 
BRANCH   3   2
ATOM      1  C   UNL     1      -3.363  -3.820  24.126  0.00  0.00    +0.070 C 
ATOM      2  S   UNL     1      -3.794  -3.117  24.118  0.00  0.00    -0.130 S 
ENDBRANCH   3   2
ENDBRANCH   4   3
ENDBRANCH   7   6
TORSDOF 4
ENDMDL
