MODEL 1
REMARK VINA RESULT:      -5.8      0.000      0.000
REMARK  Name = 
REMARK  7 active torsions:
REMARK  status: ('A' for Active; 'I' for Inactive)
REMARK    1  A    between atoms: O_2  and  C_3
REMARK    2  A    between atoms: C_6  and  N_7
REMARK    3  A    between atoms: C_8  and  O_10
REMARK    4  A    between atoms: O_10  and  C_11
REMARK    5  A    between atoms: C_15  and  N_19
REMARK    6  A    between atoms: C_22  and  C_26
REMARK    7  A    between atoms: C_29  and  C_32
REMARK                            x       y       z     vdW  Elec       q    Type
REMARK                         _______ _______ _______ _____ _____    ______ ____
ROOT
ATOM     11  C   UNL     1      -2.621   0.319  24.460  0.00  0.00    +0.229 C 
ATOM     12  C   UNL     1      -2.234  -0.004  25.113  0.00  0.00    +0.188 C 
ATOM     13  O   UNL     1      -1.423   0.102  25.005  0.00  0.00    -0.348 OA
ATOM     14  C   UNL     1      -1.309   0.489  24.287  0.00  0.00    +0.168 C 
ATOM     15  C   UNL     1      -0.738   0.795  23.775  0.00  0.00    +0.155 C 
ATOM     16  C   UNL     1      -1.125   1.117  23.122  0.00  0.00    +0.166 C 
ATOM     17  O   UNL     1      -1.936   1.012  23.230  0.00  0.00    -0.348 OA
ATOM     18  C   UNL     1      -2.050   0.624  23.950  0.00  0.00    +0.186 C 
ENDROOT
BRANCH  15  19
ATOM     19  N   UNL     1       0.078   0.779  23.896  0.00  0.00    -0.200 NA
ATOM     20  C   UNL     1       0.574   0.446  23.327  0.00  0.00    +0.237 A 
ATOM     21  N   UNL     1       1.389   0.431  23.447  0.00  0.00    -0.212 NA
ATOM     22  C   UNL     1       1.885   0.097  22.878  0.00  0.00    +0.086 A 
ATOM     23  C   UNL     1       1.564  -0.221  22.187  0.00  0.00    +0.040 A 
ATOM     24  C   UNL     1       0.748  -0.205  22.067  0.00  0.00    +0.103 A 
ATOM     25  N   UNL     1       0.253   0.128  22.636  0.00  0.00    -0.211 NA
BRANCH  22  26
ATOM     26  C   UNL     1       2.700   0.082  22.998  0.00  0.00    +0.018 A 
ATOM     27  C   UNL     1       3.158   0.743  22.808  0.00  0.00    +0.001 A 
ATOM     28  C   UNL     1       3.974   0.728  22.929  0.00  0.00    +0.000 A 
ATOM     29  C   UNL     1       4.333   0.053  23.239  0.00  0.00    +0.000 A 
ATOM     30  C   UNL     1       3.876  -0.607  23.428  0.00  0.00    +0.000 A 
ATOM     31  C   UNL     1       3.059  -0.592  23.308  0.00  0.00    +0.001 A 
BRANCH  29  32
ATOM     32  C   UNL     1       5.148   0.037  23.359  0.00  0.00    +0.000 A 
ATOM     33  C   UNL     1       5.471   0.378  24.038  0.00  0.00    +0.000 A 
ATOM     34  C   UNL     1       6.288   0.362  24.159  0.00  0.00    +0.000 A 
ATOM     35  C   UNL     1       6.780   0.007  23.600  0.00  0.00    +0.000 A 
ATOM     36  C   UNL     1       6.457  -0.333  22.922  0.00  0.00    +0.000 A 
ATOM     37  C   UNL     1       5.642  -0.318  22.801  0.00  0.00    +0.000 A 
ENDBRANCH  29  32
ENDBRANCH  22  26
ENDBRANCH  15  19
BRANCH  11  10
ATOM     10  O   UNL     1      -3.438   0.334  24.339  0.00  0.00    -0.432 OA
BRANCH  10   8
ATOM      7  N   UNL     1      -4.285   1.485  24.326  0.00  0.00    -0.142 NA
ATOM      8  C   UNL     1      -3.904   0.883  24.741  0.00  0.00    +0.425 C 
ATOM      9  O   UNL     1      -3.990   0.829  25.561  0.00  0.00    -0.224 OA
BRANCH   7   6
ATOM      3  C   UNL     1      -5.686   3.130  25.532  0.00  0.00    +0.139 A 
ATOM      4  C   UNL     1      -5.980   2.375  25.373  0.00  0.00    +0.038 A 
ATOM      5  C   UNL     1      -5.513   1.827  24.971  0.00  0.00    +0.020 A 
ATOM      6  C   UNL     1      -4.752   2.033  24.728  0.00  0.00    +0.077 A 
ATOM     38  C   UNL     1      -4.458   2.787  24.887  0.00  0.00    +0.020 A 
ATOM     39  C   UNL     1      -4.925   3.336  25.289  0.00  0.00    +0.038 A 
BRANCH   3   2
ATOM      1  C   UNL     1      -6.112   4.478  25.738  0.00  0.00    +0.252 C 
ATOM      2  O   UNL     1      -6.153   3.678  25.935  0.00  0.00    -0.471 OA
ENDBRANCH   3   2
ENDBRANCH   7   6
ENDBRANCH  10   8
ENDBRANCH  11  10
TORSDOF 7
ENDMDL
MODEL 2
REMARK VINA RESULT:      -5.4     15.283     17.621
REMARK  Name = 
REMARK  7 active torsions:
REMARK  status: ('A' for Active; 'I' for Inactive)
REMARK    1  A    between atoms: O_2  and  C_3
REMARK    2  A    between atoms: C_6  and  N_7
REMARK    3  A    between atoms: C_8  and  O_10
REMARK    4  A    between atoms: O_10  and  C_11
REMARK    5  A    between atoms: C_15  and  N_19
REMARK    6  A    between atoms: C_22  and  C_26
REMARK    7  A    between atoms: C_29  and  C_32
REMARK                            x       y       z     vdW  Elec       q    Type
REMARK                         _______ _______ _______ _____ _____    ______ ____
ROOT
ATOM     11  C   UNL     1      -4.317 -10.629  12.670  0.00  0.00    +0.229 C 
ATOM     12  C   UNL     1      -3.935 -10.584  13.399  0.00  0.00    +0.188 C 
ATOM     13  O   UNL     1      -4.509 -10.614  13.990  0.00  0.00    -0.348 OA
ATOM     14  C   UNL     1      -5.246 -10.678  13.627  0.00  0.00    +0.168 C 
ATOM     15  C   UNL     1      -6.058 -10.735  13.766  0.00  0.00    +0.155 C 
ATOM     16  C   UNL     1      -6.440 -10.780  13.037  0.00  0.00    +0.166 C 
ATOM     17  O   UNL     1      -5.866 -10.750  12.446  0.00  0.00    -0.348 OA
ATOM     18  C   UNL     1      -5.128 -10.686  12.811  0.00  0.00    +0.186 C 
ENDROOT
BRANCH  15  19
ATOM     19  N   UNL     1      -6.422 -10.747  14.507  0.00  0.00    -0.200 NA
ATOM     20  C   UNL     1      -7.185 -10.446  14.596  0.00  0.00    +0.237 A 
ATOM     21  N   UNL     1      -7.549 -10.457  15.336  0.00  0.00    -0.212 NA
ATOM     22  C   UNL     1      -8.312 -10.156  15.425  0.00  0.00    +0.086 A 
ATOM     23  C   UNL     1      -8.711  -9.843  14.774  0.00  0.00    +0.040 A 
ATOM     24  C   UNL     1      -8.346  -9.832  14.033  0.00  0.00    +0.103 A 
ATOM     25  N   UNL     1      -7.584 -10.133  13.945  0.00  0.00    -0.211 NA
BRANCH  22  26
ATOM     26  C   UNL     1      -8.677 -10.167  16.164  0.00  0.00    +0.018 A 
ATOM     27  C   UNL     1      -8.291  -9.842  16.819  0.00  0.00    +0.001 A 
ATOM     28  C   UNL     1      -8.656  -9.854  17.559  0.00  0.00    +0.000 A 
ATOM     29  C   UNL     1      -9.405 -10.188  17.645  0.00  0.00    +0.000 A 
ATOM     30  C   UNL     1      -9.790 -10.512  16.991  0.00  0.00    +0.000 A 
ATOM     31  C   UNL     1      -9.425 -10.501  16.251  0.00  0.00    +0.001 A 
BRANCH  29  32
ATOM     32  C   UNL     1      -9.769 -10.199  18.385  0.00  0.00    +0.000 A 
ATOM     33  C   UNL     1     -10.354  -9.646  18.565  0.00  0.00    +0.000 A 
ATOM     34  C   UNL     1     -10.719  -9.656  19.305  0.00  0.00    +0.000 A 
ATOM     35  C   UNL     1     -10.499 -10.221  19.864  0.00  0.00    +0.000 A 
ATOM     36  C   UNL     1      -9.914 -10.775  19.685  0.00  0.00    +0.000 A 
ATOM     37  C   UNL     1      -9.550 -10.764  18.945  0.00  0.00    +0.000 A 
ENDBRANCH  29  32
ENDBRANCH  22  26
ENDBRANCH  15  19
BRANCH  11  10
ATOM     10  O   UNL     1      -3.953 -10.618  11.930  0.00  0.00    -0.432 OA
BRANCH  10   8
ATOM      7  N   UNL     1      -2.582 -10.435  11.571  0.00  0.00    -0.142 NA
ATOM      8  C   UNL     1      -3.310 -10.118  11.793  0.00  0.00    +0.425 C 
ATOM      9  O   UNL     1      -3.397  -9.302  11.880  0.00  0.00    -0.224 OA
BRANCH   7   6
ATOM      3  C   UNL     1      -0.654  -8.937  11.162  0.00  0.00    +0.139 A 
ATOM      4  C   UNL     1      -1.341  -8.857  10.712  0.00  0.00    +0.038 A 
ATOM      5  C   UNL     1      -1.984  -9.357  10.849  0.00  0.00    +0.020 A 
ATOM      6  C   UNL     1      -1.939  -9.936  11.435  0.00  0.00    +0.077 A 
ATOM     38  C   UNL     1      -1.252 -10.015  11.884  0.00  0.00    +0.020 A 
ATOM     39  C   UNL     1      -0.609  -9.516  11.748  0.00  0.00    +0.038 A 
BRANCH   3   2
ATOM      1  C   UNL     1       0.712  -8.754  10.785  0.00  0.00    +0.252 C 
ATOM      2  O   UNL     1      -0.012  -8.438  11.025  0.00  0.00    -0.471 OA
ENDBRANCH   3   2
ENDBRANCH   7   6
ENDBRANCH  10   8
ENDBRANCH  11  10
TORSDOF 7
ENDMDL
MODEL 3
REMARK VINA RESULT:      -5.3     17.280     19.426
REMARK  Name = 
REMARK  7 active torsions:
REMARK  status: ('A' for Active; 'I' for Inactive)
REMARK    1  A    between atoms: O_2  and  C_3
REMARK    2  A    between atoms: C_6  and  N_7
REMARK    3  A    between atoms: C_8  and  O_10
REMARK    4  A    between atoms: O_10  and  C_11
REMARK    5  A    between atoms: C_15  and  N_19
REMARK    6  A    between atoms: C_22  and  C_26
REMARK    7  A    between atoms: C_29  and  C_32
REMARK                            x       y       z     vdW  Elec       q    Type
REMARK                         _______ _______ _______ _____ _____    ______ ____
ROOT
ATOM     11  C   UNL     1      17.196  -5.572  25.129  0.00  0.00    +0.229 C 
ATOM     12  C   UNL     1      16.970  -5.114  25.776  0.00  0.00    +0.188 C 
ATOM     13  O   UNL     1      16.811  -5.623  26.405  0.00  0.00    -0.348 OA
ATOM     14  C   UNL     1      16.938  -6.396  26.147  0.00  0.00    +0.168 C 
ATOM     15  C   UNL     1      16.919  -7.188  26.376  0.00  0.00    +0.155 C 
ATOM     16  C   UNL     1      17.146  -7.647  25.728  0.00  0.00    +0.166 C 
ATOM     17  O   UNL     1      17.305  -7.137  25.099  0.00  0.00    -0.348 OA
ATOM     18  C   UNL     1      17.177  -6.364  25.358  0.00  0.00    +0.186 C 
ENDROOT
BRANCH  15  19
ATOM     19  N   UNL     1      16.710  -7.472  27.122  0.00  0.00    -0.200 NA
ATOM     20  C   UNL     1      16.220  -8.133  27.190  0.00  0.00    +0.237 A 
ATOM     21  N   UNL     1      16.011  -8.417  27.935  0.00  0.00    -0.212 NA
ATOM     22  C   UNL     1      15.521  -9.077  28.003  0.00  0.00    +0.086 A 
ATOM     23  C   UNL     1      15.239  -9.453  27.324  0.00  0.00    +0.040 A 
ATOM     24  C   UNL     1      15.448  -9.168  26.578  0.00  0.00    +0.103 A 
ATOM     25  N   UNL     1      15.939  -8.508  26.511  0.00  0.00    -0.211 NA
BRANCH  22  26
ATOM     26  C   UNL     1      15.312  -9.361  28.748  0.00  0.00    +0.018 A 
ATOM     27  C   UNL     1      15.362  -8.866  29.408  0.00  0.00    +0.001 A 
ATOM     28  C   UNL     1      15.153  -9.150  30.153  0.00  0.00    +0.000 A 
ATOM     29  C   UNL     1      14.894  -9.928  30.240  0.00  0.00    +0.000 A 
ATOM     30  C   UNL     1      14.843 -10.423  29.582  0.00  0.00    +0.000 A 
ATOM     31  C   UNL     1      15.053 -10.138  28.836  0.00  0.00    +0.001 A 
BRANCH  29  32
ATOM     32  C   UNL     1      14.685 -10.213  30.985  0.00  0.00    +0.000 A 
ATOM     33  C   UNL     1      15.264 -10.322  31.562  0.00  0.00    +0.000 A 
ATOM     34  C   UNL     1      15.056 -10.606  32.309  0.00  0.00    +0.000 A 
ATOM     35  C   UNL     1      14.267 -10.781  32.477  0.00  0.00    +0.000 A 
ATOM     36  C   UNL     1      13.688 -10.672  31.900  0.00  0.00    +0.000 A 
ATOM     37  C   UNL     1      13.897 -10.388  31.155  0.00  0.00    +0.000 A 
ENDBRANCH  29  32
ENDBRANCH  22  26
ENDBRANCH  15  19
BRANCH  11  10
ATOM     10  O   UNL     1      17.405  -5.288  24.383  0.00  0.00    -0.432 OA
BRANCH  10   8
ATOM      7  N   UNL     1      16.969  -4.312  23.435  0.00  0.00    -0.142 NA
ATOM      8  C   UNL     1      17.256  -4.501  24.184  0.00  0.00    +0.425 C 
ATOM      9  O   UNL     1      17.396  -3.904  24.737  0.00  0.00    -0.224 OA
BRANCH   7   6
ATOM      3  C   UNL     1      16.524  -1.951  22.839  0.00  0.00    +0.139 A 
ATOM      4  C   UNL     1      17.234  -2.307  22.614  0.00  0.00    +0.038 A 
ATOM      5  C   UNL     1      17.382  -3.093  22.813  0.00  0.00    +0.020 A 
ATOM      6  C   UNL     1      16.821  -3.525  23.236  0.00  0.00    +0.077 A 
ATOM     38  C   UNL     1      16.112  -3.169  23.461  0.00  0.00    +0.020 A 
ATOM     39  C   UNL     1      15.963  -2.382  23.262  0.00  0.00    +0.038 A 
BRANCH   3   2
ATOM      1  C   UNL     1      16.955  -0.590  22.771  0.00  0.00    +0.252 C 
ATOM      2  O   UNL     1      16.377  -1.164  22.640  0.00  0.00    -0.471 OA
ENDBRANCH   3   2
ENDBRANCH   7   6
ENDBRANCH  10   8
ENDBRANCH  11  10
TORSDOF 7
ENDMDL
MODEL 4
REMARK VINA RESULT:      -5.1     16.363     18.538
REMARK  Name = 
REMARK  7 active torsions:
REMARK  status: ('A' for Active; 'I' for Inactive)
REMARK    1  A    between atoms: O_2  and  C_3
REMARK    2  A    between atoms: C_6  and  N_7
REMARK    3  A    between atoms: C_8  and  O_10
REMARK    4  A    between atoms: O_10  and  C_11
REMARK    5  A    between atoms: C_15  and  N_19
REMARK    6  A    between atoms: C_22  and  C_26
REMARK    7  A    between atoms: C_29  and  C_32
REMARK                            x       y       z     vdW  Elec       q    Type
REMARK                         _______ _______ _______ _____ _____    ______ ____
ROOT
ATOM     11  C   UNL     1      15.010  -6.762  31.243  0.00  0.00    +0.229 C 
ATOM     12  C   UNL     1      14.641  -6.864  30.512  0.00  0.00    +0.188 C 
ATOM     13  O   UNL     1      13.969  -7.327  30.629  0.00  0.00    -0.348 OA
ATOM     14  C   UNL     1      13.921  -7.511  31.431  0.00  0.00    +0.168 C 
ATOM     15  C   UNL     1      13.477  -7.911  31.999  0.00  0.00    +0.155 C 
ATOM     16  C   UNL     1      13.846  -7.810  32.730  0.00  0.00    +0.166 C 
ATOM     17  O   UNL     1      14.518  -7.347  32.614  0.00  0.00    -0.348 OA
ATOM     18  C   UNL     1      14.565  -7.162  31.810  0.00  0.00    +0.186 C 
ENDROOT
BRANCH  15  19
ATOM     19  N   UNL     1      12.784  -8.338  31.861  0.00  0.00    -0.200 NA
ATOM     20  C   UNL     1      12.064  -8.062  32.152  0.00  0.00    +0.237 A 
ATOM     21  N   UNL     1      11.372  -8.488  32.013  0.00  0.00    -0.212 NA
ATOM     22  C   UNL     1      10.651  -8.212  32.304  0.00  0.00    +0.086 A 
ATOM     23  C   UNL     1      10.622  -7.508  32.734  0.00  0.00    +0.040 A 
ATOM     24  C   UNL     1      11.315  -7.081  32.873  0.00  0.00    +0.103 A 
ATOM     25  N   UNL     1      12.035  -7.358  32.581  0.00  0.00    -0.211 NA
BRANCH  22  26
ATOM     26  C   UNL     1       9.959  -8.638  32.166  0.00  0.00    +0.018 A 
ATOM     27  C   UNL     1       9.289  -8.254  31.871  0.00  0.00    +0.001 A 
ATOM     28  C   UNL     1       8.597  -8.680  31.733  0.00  0.00    +0.000 A 
ATOM     29  C   UNL     1       8.573  -9.490  31.889  0.00  0.00    +0.000 A 
ATOM     30  C   UNL     1       9.241  -9.874  32.183  0.00  0.00    +0.000 A 
ATOM     31  C   UNL     1       9.934  -9.447  32.322  0.00  0.00    +0.001 A 
BRANCH  29  32
ATOM     32  C   UNL     1       7.881  -9.917  31.750  0.00  0.00    +0.000 A 
ATOM     33  C   UNL     1       7.340 -10.034  32.362  0.00  0.00    +0.000 A 
ATOM     34  C   UNL     1       6.647 -10.461  32.223  0.00  0.00    +0.000 A 
ATOM     35  C   UNL     1       6.496 -10.770  31.474  0.00  0.00    +0.000 A 
ATOM     36  C   UNL     1       7.037 -10.653  30.862  0.00  0.00    +0.000 A 
ATOM     37  C   UNL     1       7.729 -10.226  31.000  0.00  0.00    +0.000 A 
ENDBRANCH  29  32
ENDBRANCH  22  26
ENDBRANCH  15  19
BRANCH  11  10
ATOM     10  O   UNL     1      15.702  -6.335  31.382  0.00  0.00    -0.432 OA
BRANCH  10   8
ATOM      7  N   UNL     1      16.144  -4.977  31.411  0.00  0.00    -0.142 NA
ATOM      8  C   UNL     1      15.828  -5.616  30.997  0.00  0.00    +0.425 C 
ATOM      9  O   UNL     1      15.637  -5.537  30.198  0.00  0.00    -0.224 OA
BRANCH   7   6
ATOM      3  C   UNL     1      16.522  -2.820  30.257  0.00  0.00    +0.139 A 
ATOM      4  C   UNL     1      17.088  -3.418  30.209  0.00  0.00    +0.038 A 
ATOM      5  C   UNL     1      16.961  -4.137  30.593  0.00  0.00    +0.020 A 
ATOM      6  C   UNL     1      16.270  -4.258  31.026  0.00  0.00    +0.077 A 
ATOM     38  C   UNL     1      15.704  -3.659  31.074  0.00  0.00    +0.020 A 
ATOM     39  C   UNL     1      15.830  -2.940  30.690  0.00  0.00    +0.038 A 
BRANCH   3   2
ATOM      1  C   UNL     1      16.905  -2.093  29.088  0.00  0.00    +0.252 C 
ATOM      2  O   UNL     1      16.648  -2.101  29.872  0.00  0.00    -0.471 OA
ENDBRANCH   3   2
ENDBRANCH   7   6
ENDBRANCH  10   8
ENDBRANCH  11  10
TORSDOF 7
ENDMDL
MODEL 5
REMARK VINA RESULT:      -4.9      2.085      8.526
REMARK  Name = 
REMARK  7 active torsions:
REMARK  status: ('A' for Active; 'I' for Inactive)
REMARK    1  A    between atoms: O_2  and  C_3
REMARK    2  A    between atoms: C_6  and  N_7
REMARK    3  A    between atoms: C_8  and  O_10
REMARK    4  A    between atoms: O_10  and  C_11
REMARK    5  A    between atoms: C_15  and  N_19
REMARK    6  A    between atoms: C_22  and  C_26
REMARK    7  A    between atoms: C_29  and  C_32
REMARK                            x       y       z     vdW  Elec       q    Type
REMARK                         _______ _______ _______ _____ _____    ______ ____
ROOT
ATOM     11  C   UNL     1       1.777   0.638  22.969  0.00  0.00    +0.229 C 
ATOM     12  C   UNL     1       1.747   1.252  23.518  0.00  0.00    +0.188 C 
ATOM     13  O   UNL     1       0.991   1.261  23.849  0.00  0.00    -0.348 OA
ATOM     14  C   UNL     1       0.555   0.652  23.505  0.00  0.00    +0.168 C 
ATOM     15  C   UNL     1      -0.182   0.281  23.496  0.00  0.00    +0.155 C 
ATOM     16  C   UNL     1      -0.152  -0.334  22.947  0.00  0.00    +0.166 C 
ATOM     17  O   UNL     1       0.604  -0.343  22.616  0.00  0.00    -0.348 OA
ATOM     18  C   UNL     1       1.040   0.267  22.961  0.00  0.00    +0.186 C 
ENDROOT
BRANCH  15  19
ATOM     19  N   UNL     1      -0.835   0.488  23.956  0.00  0.00    -0.200 NA
ATOM     20  C   UNL     1      -1.483   0.861  23.608  0.00  0.00    +0.237 A 
ATOM     21  N   UNL     1      -2.136   1.069  24.068  0.00  0.00    -0.212 NA
ATOM     22  C   UNL     1      -2.784   1.442  23.720  0.00  0.00    +0.086 A 
ATOM     23  C   UNL     1      -2.780   1.608  22.912  0.00  0.00    +0.040 A 
ATOM     24  C   UNL     1      -2.127   1.400  22.452  0.00  0.00    +0.103 A 
ATOM     25  N   UNL     1      -1.479   1.027  22.800  0.00  0.00    -0.211 NA
BRANCH  22  26
ATOM     26  C   UNL     1      -3.436   1.650  24.180  0.00  0.00    +0.018 A 
ATOM     27  C   UNL     1      -3.964   1.067  24.434  0.00  0.00    +0.001 A 
ATOM     28  C   UNL     1      -4.616   1.274  24.894  0.00  0.00    +0.000 A 
ATOM     29  C   UNL     1      -4.743   2.063  25.100  0.00  0.00    +0.000 A 
ATOM     30  C   UNL     1      -4.216   2.645  24.845  0.00  0.00    +0.000 A 
ATOM     31  C   UNL     1      -3.563   2.438  24.385  0.00  0.00    +0.001 A 
BRANCH  29  32
ATOM     32  C   UNL     1      -5.395   2.271  25.559  0.00  0.00    +0.000 A 
ATOM     33  C   UNL     1      -5.575   3.066  25.685  0.00  0.00    +0.000 A 
ATOM     34  C   UNL     1      -6.228   3.274  26.145  0.00  0.00    +0.000 A 
ATOM     35  C   UNL     1      -6.700   2.686  26.479  0.00  0.00    +0.000 A 
ATOM     36  C   UNL     1      -6.521   1.891  26.353  0.00  0.00    +0.000 A 
ATOM     37  C   UNL     1      -5.868   1.683  25.894  0.00  0.00    +0.000 A 
ENDBRANCH  29  32
ENDBRANCH  22  26
ENDBRANCH  15  19
BRANCH  11  10
ATOM     10  O   UNL     1       2.430   0.430  22.509  0.00  0.00    -0.432 OA
BRANCH  10   8
ATOM      7  N   UNL     1       3.633  -0.264  22.843  0.00  0.00    -0.142 NA
ATOM      8  C   UNL     1       3.185   0.428  22.841  0.00  0.00    +0.425 C 
ATOM      9  O   UNL     1       3.492   1.120  23.171  0.00  0.00    -0.224 OA
BRANCH   7   6
ATOM      3  C   UNL     1       5.899  -0.270  23.839  0.00  0.00    +0.139 A 
ATOM      4  C   UNL     1       5.726   0.236  23.210  0.00  0.00    +0.038 A 
ATOM      5  C   UNL     1       4.970   0.238  22.879  0.00  0.00    +0.020 A 
ATOM      6  C   UNL     1       4.388  -0.266  23.175  0.00  0.00    +0.077 A 
ATOM     38  C   UNL     1       4.562  -0.772  23.803  0.00  0.00    +0.020 A 
ATOM     39  C   UNL     1       5.317  -0.774  24.135  0.00  0.00    +0.038 A 
BRANCH   3   2
ATOM      1  C   UNL     1       7.318  -0.200  23.684  0.00  0.00    +0.252 C 
ATOM      2  O   UNL     1       6.655  -0.271  24.170  0.00  0.00    -0.471 OA
ENDBRANCH   3   2
ENDBRANCH   7   6
ENDBRANCH  10   8
ENDBRANCH  11  10
TORSDOF 7
ENDMDL
MODEL 6
REMARK VINA RESULT:      -4.1     14.731     17.584
REMARK  Name = 
REMARK  7 active torsions:
REMARK  status: ('A' for Active; 'I' for Inactive)
REMARK    1  A    between atoms: O_2  and  C_3
REMARK    2  A    between atoms: C_6  and  N_7
REMARK    3  A    between atoms: C_8  and  O_10
REMARK    4  A    between atoms: O_10  and  C_11
REMARK    5  A    between atoms: C_15  and  N_19
REMARK    6  A    between atoms: C_22  and  C_26
REMARK    7  A    between atoms: C_29  and  C_32
REMARK                            x       y       z     vdW  Elec       q    Type
REMARK                         _______ _______ _______ _____ _____    ______ ____
ROOT
ATOM     11  C   UNL     1      -2.243 -10.152  11.839  0.00  0.00    +0.229 C 
ATOM     12  C   UNL     1      -2.076 -10.278  12.636  0.00  0.00    +0.188 C 
ATOM     13  O   UNL     1      -2.790 -10.409  13.028  0.00  0.00    -0.348 OA
ATOM     14  C   UNL     1      -3.398 -10.363  12.473  0.00  0.00    +0.168 C 
ATOM     15  C   UNL     1      -4.215 -10.416  12.371  0.00  0.00    +0.155 C 
ATOM     16  C   UNL     1      -4.382 -10.289  11.574  0.00  0.00    +0.166 C 
ATOM     17  O   UNL     1      -3.668 -10.159  11.182  0.00  0.00    -0.348 OA
ATOM     18  C   UNL     1      -3.060 -10.205  11.738  0.00  0.00    +0.186 C 
ENDROOT
BRANCH  15  19
ATOM     19  N   UNL     1      -4.768 -10.568  12.964  0.00  0.00    -0.200 NA
ATOM     20  C   UNL     1      -5.474 -10.141  12.990  0.00  0.00    +0.237 A 
ATOM     21  N   UNL     1      -6.027 -10.293  13.582  0.00  0.00    -0.212 NA
ATOM     22  C   UNL     1      -6.733  -9.866  13.608  0.00  0.00    +0.086 A 
ATOM     23  C   UNL     1      -6.885  -9.287  13.040  0.00  0.00    +0.040 A 
ATOM     24  C   UNL     1      -6.332  -9.135  12.447  0.00  0.00    +0.103 A 
ATOM     25  N   UNL     1      -5.627  -9.562  12.422  0.00  0.00    -0.211 NA
BRANCH  22  26
ATOM     26  C   UNL     1      -7.286 -10.018  14.200  0.00  0.00    +0.018 A 
ATOM     27  C   UNL     1      -8.087 -10.086  14.009  0.00  0.00    +0.001 A 
ATOM     28  C   UNL     1      -8.640 -10.237  14.602  0.00  0.00    +0.000 A 
ATOM     29  C   UNL     1      -8.394 -10.322  15.385  0.00  0.00    +0.000 A 
ATOM     30  C   UNL     1      -7.594 -10.254  15.575  0.00  0.00    +0.000 A 
ATOM     31  C   UNL     1      -7.041 -10.102  14.982  0.00  0.00    +0.001 A 
BRANCH  29  32
ATOM     32  C   UNL     1      -8.947 -10.473  15.977  0.00  0.00    +0.000 A 
ATOM     33  C   UNL     1      -8.703 -10.536  16.763  0.00  0.00    +0.000 A 
ATOM     34  C   UNL     1      -9.257 -10.688  17.356  0.00  0.00    +0.000 A 
ATOM     35  C   UNL     1     -10.054 -10.777  17.163  0.00  0.00    +0.000 A 
ATOM     36  C   UNL     1     -10.298 -10.715  16.377  0.00  0.00    +0.000 A 
ATOM     37  C   UNL     1      -9.745 -10.563  15.785  0.00  0.00    +0.000 A 
ENDBRANCH  29  32
ENDBRANCH  22  26
ENDBRANCH  15  19
BRANCH  11  10
ATOM     10  O   UNL     1      -1.690 -10.000  11.246  0.00  0.00    -0.432 OA
BRANCH  10   8
ATOM      7  N   UNL     1      -0.845  -8.850  11.168  0.00  0.00    -0.142 NA
ATOM      8  C   UNL     1      -0.981  -9.620  11.430  0.00  0.00    +0.425 C 
ATOM      9  O   UNL     1      -0.408 -10.012  11.877  0.00  0.00    -0.224 OA
BRANCH   7   6
ATOM      3  C   UNL     1       1.282  -7.711  11.720  0.00  0.00    +0.139 A 
ATOM      4  C   UNL     1       1.259  -8.270  11.113  0.00  0.00    +0.038 A 
ATOM      5  C   UNL     1       0.550  -8.649  10.930  0.00  0.00    +0.020 A 
ATOM      6  C   UNL     1      -0.136  -8.470  11.352  0.00  0.00    +0.077 A 
ATOM     38  C   UNL     1      -0.112  -7.912  11.959  0.00  0.00    +0.020 A 
ATOM     39  C   UNL     1       0.597  -7.532  12.143  0.00  0.00    +0.038 A 
BRANCH   3   2
ATOM      1  C   UNL     1       1.981  -6.566  12.212  0.00  0.00    +0.252 C 
ATOM      2  O   UNL     1       1.991  -7.332  11.904  0.00  0.00    -0.471 OA
ENDBRANCH   3   2
ENDBRANCH   7   6
ENDBRANCH  10   8
ENDBRANCH  11  10
TORSDOF 7
ENDMDL
MODEL 7
REMARK VINA RESULT:      -3.4     15.181     18.740
REMARK  Name = 
REMARK  7 active torsions:
REMARK  status: ('A' for Active; 'I' for Inactive)
REMARK    1  A    between atoms: O_2  and  C_3
REMARK    2  A    between atoms: C_6  and  N_7
REMARK    3  A    between atoms: C_8  and  O_10
REMARK    4  A    between atoms: O_10  and  C_11
REMARK    5  A    between atoms: C_15  and  N_19
REMARK    6  A    between atoms: C_22  and  C_26
REMARK    7  A    between atoms: C_29  and  C_32
REMARK                            x       y       z     vdW  Elec       q    Type
REMARK                         _______ _______ _______ _____ _____    ______ ____
ROOT
ATOM     11  C   UNL     1      17.380  -3.374  25.227  0.00  0.00    +0.229 C 
ATOM     12  C   UNL     1      17.349  -2.969  25.944  0.00  0.00    +0.188 C 
ATOM     13  O   UNL     1      17.332  -3.527  26.551  0.00  0.00    -0.348 OA
ATOM     14  C   UNL     1      17.353  -4.277  26.209  0.00  0.00    +0.168 C 
ATOM     15  C   UNL     1      17.355  -5.085  26.372  0.00  0.00    +0.155 C 
ATOM     16  C   UNL     1      17.387  -5.491  25.655  0.00  0.00    +0.166 C 
ATOM     17  O   UNL     1      17.404  -4.933  25.048  0.00  0.00    -0.348 OA
ATOM     18  C   UNL     1      17.383  -4.182  25.390  0.00  0.00    +0.186 C 
ENDROOT
BRANCH  15  19
ATOM     19  N   UNL     1      17.330  -5.428  27.123  0.00  0.00    -0.200 NA
ATOM     20  C   UNL     1      16.766  -6.005  27.294  0.00  0.00    +0.237 A 
ATOM     21  N   UNL     1      16.741  -6.348  28.044  0.00  0.00    -0.212 NA
ATOM     22  C   UNL     1      16.176  -6.925  28.215  0.00  0.00    +0.086 A 
ATOM     23  C   UNL     1      15.637  -7.159  27.637  0.00  0.00    +0.040 A 
ATOM     24  C   UNL     1      15.662  -6.816  26.887  0.00  0.00    +0.103 A 
ATOM     25  N   UNL     1      16.226  -6.239  26.716  0.00  0.00    -0.211 NA
BRANCH  22  26
ATOM     26  C   UNL     1      16.151  -7.268  28.965  0.00  0.00    +0.018 A 
ATOM     27  C   UNL     1      15.613  -6.991  29.528  0.00  0.00    +0.001 A 
ATOM     28  C   UNL     1      15.588  -7.334  30.277  0.00  0.00    +0.000 A 
ATOM     29  C   UNL     1      16.100  -7.953  30.465  0.00  0.00    +0.000 A 
ATOM     30  C   UNL     1      16.637  -8.230  29.903  0.00  0.00    +0.000 A 
ATOM     31  C   UNL     1      16.662  -7.886  29.153  0.00  0.00    +0.001 A 
BRANCH  29  32
ATOM     32  C   UNL     1      16.075  -8.296  31.215  0.00  0.00    +0.000 A 
ATOM     33  C   UNL     1      15.666  -9.003  31.331  0.00  0.00    +0.000 A 
ATOM     34  C   UNL     1      15.641  -9.347  32.081  0.00  0.00    +0.000 A 
ATOM     35  C   UNL     1      16.025  -8.983  32.714  0.00  0.00    +0.000 A 
ATOM     36  C   UNL     1      16.433  -8.275  32.598  0.00  0.00    +0.000 A 
ATOM     37  C   UNL     1      16.458  -7.933  31.848  0.00  0.00    +0.000 A 
ENDBRANCH  29  32
ENDBRANCH  22  26
ENDBRANCH  15  19
BRANCH  11  10
ATOM     10  O   UNL     1      17.405  -3.031  24.476  0.00  0.00    -0.432 OA
BRANCH  10   8
ATOM      7  N   UNL     1      16.632  -2.924  23.279  0.00  0.00    -0.142 NA
ATOM      8  C   UNL     1      16.704  -2.822  24.094  0.00  0.00    +0.425 C 
ATOM      9  O   UNL     1      16.075  -2.511  24.529  0.00  0.00    -0.224 OA
BRANCH   7   6
ATOM      3  C   UNL     1      14.530  -2.298  22.133  0.00  0.00    +0.139 A 
ATOM      4  C   UNL     1      15.137  -1.745  22.212  0.00  0.00    +0.038 A 
ATOM      5  C   UNL     1      15.838  -1.954  22.594  0.00  0.00    +0.020 A 
ATOM      6  C   UNL     1      15.931  -2.716  22.897  0.00  0.00    +0.077 A 
ATOM     38  C   UNL     1      15.324  -3.268  22.818  0.00  0.00    +0.020 A 
ATOM     39  C   UNL     1      14.623  -3.059  22.436  0.00  0.00    +0.038 A 
BRANCH   3   2
ATOM      1  C   UNL     1      13.236  -2.651  21.640  0.00  0.00    +0.252 C 
ATOM      2  O   UNL     1      13.829  -2.088  21.751  0.00  0.00    -0.471 OA
ENDBRANCH   3   2
ENDBRANCH   7   6
ENDBRANCH  10   8
ENDBRANCH  11  10
TORSDOF 7
ENDMDL
