MODEL 1
REMARK VINA RESULT:      -9.4      0.000      0.000
REMARK  Name = 
REMARK  7 active torsions:
REMARK  status: ('A' for Active; 'I' for Inactive)
REMARK    1  A    between atoms: O_2  and  C_3
REMARK    2  A    between atoms: C_3  and  C_5
REMARK    3  A    between atoms: C_6  and  N_7
REMARK    4  A    between atoms: C_8  and  O_10
REMARK    5  A    between atoms: O_10  and  C_11
REMARK    6  A    between atoms: C_15  and  N_19
REMARK    7  A    between atoms: C_22  and  C_26
REMARK                            x       y       z     vdW  Elec       q    Type
REMARK                         _______ _______ _______ _____ _____    ______ ____
ROOT
ATOM     11  C   UNL     1      -1.924   1.880  23.400  0.00  0.00    +0.229 C 
ATOM     12  C   UNL     1      -1.479   2.562  23.531  0.00  0.00    +0.188 C 
ATOM     13  O   UNL     1      -0.695   2.335  23.652  0.00  0.00    -0.348 OA
ATOM     14  C   UNL     1      -0.656   1.513  23.595  0.00  0.00    +0.168 C 
ATOM     15  C   UNL     1      -0.146   0.865  23.635  0.00  0.00    +0.155 C 
ATOM     16  C   UNL     1      -0.592   0.183  23.503  0.00  0.00    +0.166 C 
ATOM     17  O   UNL     1      -1.376   0.410  23.382  0.00  0.00    -0.348 OA
ATOM     18  C   UNL     1      -1.415   1.231  23.439  0.00  0.00    +0.186 C 
ENDROOT
BRANCH  15  19
ATOM     19  N   UNL     1       0.665   0.894  23.781  0.00  0.00    -0.200 NA
ATOM     20  C   UNL     1       1.191   0.536  23.256  0.00  0.00    +0.237 A 
ATOM     21  N   UNL     1       2.003   0.564  23.401  0.00  0.00    -0.212 NA
ATOM     22  C   UNL     1       2.529   0.206  22.877  0.00  0.00    +0.086 A 
ATOM     23  C   UNL     1       2.243  -0.181  22.206  0.00  0.00    +0.040 A 
ATOM     24  C   UNL     1       1.432  -0.210  22.061  0.00  0.00    +0.103 A 
ATOM     25  N   UNL     1       0.906   0.148  22.586  0.00  0.00    -0.211 NA
BRANCH  22  26
ATOM     26  C   UNL     1       3.340   0.235  23.022  0.00  0.00    +0.021 A 
ATOM     27  C   UNL     1       3.712  -0.390  23.410  0.00  0.00    +0.042 A 
ATOM     28  C   UNL     1       4.524  -0.362  23.556  0.00  0.00    +0.176 A 
ATOM     29  C   UNL     1       4.963   0.293  23.314  0.00  0.00    +0.176 A 
ATOM     30  O   UNL     1       5.748   0.168  23.531  0.00  0.00    -0.435 OA
ATOM     31  C   UNL     1       5.795  -0.564  23.908  0.00  0.00    +0.429 C 
ATOM     32  O   UNL     1       5.038  -0.891  23.923  0.00  0.00    -0.435 OA
ATOM     33  C   UNL     1       4.591   0.920  22.925  0.00  0.00    +0.040 A 
ATOM     34  C   UNL     1       3.779   0.890  22.780  0.00  0.00    +0.005 A 
ENDBRANCH  22  26
ENDBRANCH  15  19
BRANCH  11  10
ATOM     10  O   UNL     1      -2.735   1.851  23.254  0.00  0.00    -0.432 OA
BRANCH  10   8
ATOM      7  N   UNL     1      -3.900   1.635  24.055  0.00  0.00    -0.142 NA
ATOM      8  C   UNL     1      -3.268   2.115  23.827  0.00  0.00    +0.425 C 
ATOM      9  O   UNL     1      -3.169   2.858  24.171  0.00  0.00    -0.224 OA
BRANCH   7   6
ATOM      5  C   UNL     1      -4.814   1.356  25.116  0.00  0.00    +0.091 A 
ATOM      6  C   UNL     1      -4.432   1.899  24.626  0.00  0.00    +0.083 A 
ATOM     35  C   UNL     1      -4.584   2.706  24.710  0.00  0.00    +0.017 A 
ATOM     36  C   UNL     1      -5.116   2.969  25.281  0.00  0.00    +0.001 A 
ATOM     37  C   UNL     1      -5.497   2.426  25.771  0.00  0.00    +0.000 A 
ATOM     38  C   UNL     1      -5.346   1.620  25.688  0.00  0.00    +0.008 A 
BRANCH   5   3
ATOM      3  C   UNL     1      -4.663   0.549  25.033  0.00  0.00    +0.343 C 
ATOM      4  O   UNL     1      -5.023   0.122  24.425  0.00  0.00    -0.245 OA
BRANCH   3   2
ATOM      1  C   UNL     1      -4.036  -0.646  25.502  0.00  0.00    +0.256 C 
ATOM      2  O   UNL     1      -4.152   0.169  25.558  0.00  0.00    -0.441 OA
ENDBRANCH   3   2
ENDBRANCH   5   3
ENDBRANCH   7   6
ENDBRANCH  10   8
ENDBRANCH  11  10
TORSDOF 7
ENDMDL
MODEL 2
REMARK VINA RESULT:      -9.0      0.780      1.601
REMARK  Name = 
REMARK  7 active torsions:
REMARK  status: ('A' for Active; 'I' for Inactive)
REMARK    1  A    between atoms: O_2  and  C_3
REMARK    2  A    between atoms: C_3  and  C_5
REMARK    3  A    between atoms: C_6  and  N_7
REMARK    4  A    between atoms: C_8  and  O_10
REMARK    5  A    between atoms: O_10  and  C_11
REMARK    6  A    between atoms: C_15  and  N_19
REMARK    7  A    between atoms: C_22  and  C_26
REMARK                            x       y       z     vdW  Elec       q    Type
REMARK                         _______ _______ _______ _____ _____    ______ ____
ROOT
ATOM     11  C   UNL     1      -2.210   0.345  24.285  0.00  0.00    +0.229 C 
ATOM     12  C   UNL     1      -1.839   0.152  24.996  0.00  0.00    +0.188 C 
ATOM     13  O   UNL     1      -1.028   0.274  24.902  0.00  0.00    -0.348 OA
ATOM     14  C   UNL     1      -0.899   0.543  24.133  0.00  0.00    +0.168 C 
ATOM     15  C   UNL     1      -0.317   0.784  23.600  0.00  0.00    +0.155 C 
ATOM     16  C   UNL     1      -0.689   0.978  22.889  0.00  0.00    +0.166 C 
ATOM     17  O   UNL     1      -1.499   0.855  22.983  0.00  0.00    -0.348 OA
ATOM     18  C   UNL     1      -1.629   0.587  23.751  0.00  0.00    +0.186 C 
ENDROOT
BRANCH  15  19
ATOM     19  N   UNL     1       0.492   0.826  23.751  0.00  0.00    -0.200 NA
ATOM     20  C   UNL     1       1.028   0.487  23.223  0.00  0.00    +0.237 A 
ATOM     21  N   UNL     1       1.839   0.528  23.375  0.00  0.00    -0.212 NA
ATOM     22  C   UNL     1       2.375   0.189  22.847  0.00  0.00    +0.086 A 
ATOM     23  C   UNL     1       2.100  -0.190  22.168  0.00  0.00    +0.040 A 
ATOM     24  C   UNL     1       1.291  -0.231  22.016  0.00  0.00    +0.103 A 
ATOM     25  N   UNL     1       0.755   0.107  22.544  0.00  0.00    -0.211 NA
BRANCH  22  26
ATOM     26  C   UNL     1       3.184   0.231  22.998  0.00  0.00    +0.021 A 
ATOM     27  C   UNL     1       3.564  -0.392  23.382  0.00  0.00    +0.042 A 
ATOM     28  C   UNL     1       4.374  -0.351  23.534  0.00  0.00    +0.176 A 
ATOM     29  C   UNL     1       4.804   0.313  23.301  0.00  0.00    +0.176 A 
ATOM     30  O   UNL     1       5.590   0.199  23.523  0.00  0.00    -0.435 OA
ATOM     31  C   UNL     1       5.646  -0.535  23.893  0.00  0.00    +0.429 C 
ATOM     32  O   UNL     1       4.895  -0.875  23.899  0.00  0.00    -0.435 OA
ATOM     33  C   UNL     1       4.424   0.937  22.916  0.00  0.00    +0.040 A 
ATOM     34  C   UNL     1       3.614   0.895  22.765  0.00  0.00    +0.005 A 
ENDBRANCH  22  26
ENDBRANCH  15  19
BRANCH  11  10
ATOM     10  O   UNL     1      -3.020   0.304  24.134  0.00  0.00    -0.432 OA
BRANCH  10   8
ATOM      7  N   UNL     1      -3.910   1.397  24.369  0.00  0.00    -0.142 NA
ATOM      8  C   UNL     1      -3.553   0.698  24.625  0.00  0.00    +0.425 C 
ATOM      9  O   UNL     1      -3.728   0.395  25.371  0.00  0.00    -0.224 OA
BRANCH   7   6
ATOM      5  C   UNL     1      -4.457   2.616  24.874  0.00  0.00    +0.091 A 
ATOM      6  C   UNL     1      -4.443   1.791  24.859  0.00  0.00    +0.083 A 
ATOM     35  C   UNL     1      -4.962   1.362  25.336  0.00  0.00    +0.017 A 
ATOM     36  C   UNL     1      -5.494   1.756  25.827  0.00  0.00    +0.001 A 
ATOM     37  C   UNL     1      -5.509   2.581  25.841  0.00  0.00    +0.000 A 
ATOM     38  C   UNL     1      -4.991   3.010  25.365  0.00  0.00    +0.008 A 
BRANCH   5   3
ATOM      3  C   UNL     1      -3.939   3.045  24.398  0.00  0.00    +0.343 C 
ATOM      4  O   UNL     1      -4.062   3.081  23.581  0.00  0.00    -0.245 OA
BRANCH   3   2
ATOM      1  C   UNL     1      -2.909   4.032  24.312  0.00  0.00    +0.256 C 
ATOM      2  O   UNL     1      -3.298   3.441  24.736  0.00  0.00    -0.441 OA
ENDBRANCH   3   2
ENDBRANCH   5   3
ENDBRANCH   7   6
ENDBRANCH  10   8
ENDBRANCH  11  10
TORSDOF 7
ENDMDL
MODEL 3
REMARK VINA RESULT:      -7.7      1.379      1.982
REMARK  Name = 
REMARK  7 active torsions:
REMARK  status: ('A' for Active; 'I' for Inactive)
REMARK    1  A    between atoms: O_2  and  C_3
REMARK    2  A    between atoms: C_3  and  C_5
REMARK    3  A    between atoms: C_6  and  N_7
REMARK    4  A    between atoms: C_8  and  O_10
REMARK    5  A    between atoms: O_10  and  C_11
REMARK    6  A    between atoms: C_15  and  N_19
REMARK    7  A    between atoms: C_22  and  C_26
REMARK                            x       y       z     vdW  Elec       q    Type
REMARK                         _______ _______ _______ _____ _____    ______ ____
ROOT
ATOM     11  C   UNL     1      -2.422   3.195  25.338  0.00  0.00    +0.229 C 
ATOM     12  C   UNL     1      -2.292   3.529  24.595  0.00  0.00    +0.188 C 
ATOM     13  O   UNL     1      -1.561   3.264  24.320  0.00  0.00    -0.348 OA
ATOM     14  C   UNL     1      -1.239   2.767  24.894  0.00  0.00    +0.168 C 
ATOM     15  C   UNL     1      -0.586   2.295  25.079  0.00  0.00    +0.155 C 
ATOM     16  C   UNL     1      -0.716   1.962  25.822  0.00  0.00    +0.166 C 
ATOM     17  O   UNL     1      -1.448   2.227  26.097  0.00  0.00    -0.348 OA
ATOM     18  C   UNL     1      -1.770   2.724  25.524  0.00  0.00    +0.186 C 
ENDROOT
BRANCH  15  19
ATOM     19  N   UNL     1       0.077   2.178  24.604  0.00  0.00    -0.200 NA
ATOM     20  C   UNL     1       0.244   1.427  24.306  0.00  0.00    +0.237 A 
ATOM     21  N   UNL     1       0.908   1.310  23.830  0.00  0.00    -0.212 NA
ATOM     22  C   UNL     1       1.075   0.559  23.532  0.00  0.00    +0.086 A 
ATOM     23  C   UNL     1       0.576  -0.074  23.709  0.00  0.00    +0.040 A 
ATOM     24  C   UNL     1      -0.087   0.042  24.184  0.00  0.00    +0.103 A 
ATOM     25  N   UNL     1      -0.254   0.793  24.482  0.00  0.00    -0.211 NA
BRANCH  22  26
ATOM     26  C   UNL     1       1.738   0.442  23.057  0.00  0.00    +0.021 A 
ATOM     27  C   UNL     1       2.463   0.768  23.274  0.00  0.00    +0.042 A 
ATOM     28  C   UNL     1       3.128   0.652  22.799  0.00  0.00    +0.176 A 
ATOM     29  C   UNL     1       3.066   0.208  22.106  0.00  0.00    +0.176 A 
ATOM     30  O   UNL     1       3.810   0.186  21.750  0.00  0.00    -0.435 OA
ATOM     31  C   UNL     1       4.331   0.616  22.223  0.00  0.00    +0.429 C 
ATOM     32  O   UNL     1       3.910   0.903  22.870  0.00  0.00    -0.435 OA
ATOM     33  C   UNL     1       2.340  -0.119  21.888  0.00  0.00    +0.040 A 
ATOM     34  C   UNL     1       1.677  -0.002  22.364  0.00  0.00    +0.005 A 
ENDBRANCH  22  26
ENDBRANCH  15  19
BRANCH  11  10
ATOM     10  O   UNL     1      -3.086   3.312  25.813  0.00  0.00    -0.432 OA
BRANCH  10   8
ATOM      7  N   UNL     1      -4.161   2.396  25.595  0.00  0.00    -0.142 NA
ATOM      8  C   UNL     1      -3.839   3.153  25.517  0.00  0.00    +0.425 C 
ATOM      9  O   UNL     1      -4.270   3.748  25.144  0.00  0.00    -0.224 OA
BRANCH   7   6
ATOM      5  C   UNL     1      -5.102   1.477  25.037  0.00  0.00    +0.091 A 
ATOM      6  C   UNL     1      -4.914   2.237  25.299  0.00  0.00    +0.083 A 
ATOM     35  C   UNL     1      -5.480   2.836  25.264  0.00  0.00    +0.017 A 
ATOM     36  C   UNL     1      -6.233   2.677  24.969  0.00  0.00    +0.001 A 
ATOM     37  C   UNL     1      -6.421   1.917  24.707  0.00  0.00    +0.000 A 
ATOM     38  C   UNL     1      -5.855   1.318  24.741  0.00  0.00    +0.008 A 
BRANCH   5   3
ATOM      3  C   UNL     1      -4.537   0.878  25.072  0.00  0.00    +0.343 C 
ATOM      4  O   UNL     1      -4.351   0.527  25.796  0.00  0.00    -0.245 OA
BRANCH   3   2
ATOM      1  C   UNL     1      -3.798  -0.114  24.356  0.00  0.00    +0.256 C 
ATOM      2  O   UNL     1      -4.156   0.629  24.383  0.00  0.00    -0.441 OA
ENDBRANCH   3   2
ENDBRANCH   5   3
ENDBRANCH   7   6
ENDBRANCH  10   8
ENDBRANCH  11  10
TORSDOF 7
ENDMDL
MODEL 4
REMARK VINA RESULT:      -7.3      1.392      2.466
REMARK  Name = 
REMARK  7 active torsions:
REMARK  status: ('A' for Active; 'I' for Inactive)
REMARK    1  A    between atoms: O_2  and  C_3
REMARK    2  A    between atoms: C_3  and  C_5
REMARK    3  A    between atoms: C_6  and  N_7
REMARK    4  A    between atoms: C_8  and  O_10
REMARK    5  A    between atoms: O_10  and  C_11
REMARK    6  A    between atoms: C_15  and  N_19
REMARK    7  A    between atoms: C_22  and  C_26
REMARK                            x       y       z     vdW  Elec       q    Type
REMARK                         _______ _______ _______ _____ _____    ______ ____
ROOT
ATOM     11  C   UNL     1      -3.300  -0.366  25.003  0.00  0.00    +0.229 C 
ATOM     12  C   UNL     1      -3.283  -0.562  24.201  0.00  0.00    +0.188 C 
ATOM     13  O   UNL     1      -2.494  -0.623  23.969  0.00  0.00    -0.348 OA
ATOM     14  C   UNL     1      -2.023  -0.465  24.627  0.00  0.00    +0.168 C 
ATOM     15  C   UNL     1      -1.242  -0.405  24.890  0.00  0.00    +0.155 C 
ATOM     16  C   UNL     1      -1.259  -0.209  25.691  0.00  0.00    +0.166 C 
ATOM     17  O   UNL     1      -2.048  -0.148  25.923  0.00  0.00    -0.348 OA
ATOM     18  C   UNL     1      -2.520  -0.306  25.266  0.00  0.00    +0.186 C 
ENDROOT
BRANCH  15  19
ATOM     19  N   UNL     1      -0.566  -0.520  24.433  0.00  0.00    -0.200 NA
ATOM     20  C   UNL     1      -0.083   0.121  24.243  0.00  0.00    +0.237 A 
ATOM     21  N   UNL     1       0.595   0.005  23.785  0.00  0.00    -0.212 NA
ATOM     22  C   UNL     1       1.078   0.646  23.595  0.00  0.00    +0.086 A 
ATOM     23  C   UNL     1       0.885   1.402  23.863  0.00  0.00    +0.040 A 
ATOM     24  C   UNL     1       0.209   1.518  24.321  0.00  0.00    +0.103 A 
ATOM     25  N   UNL     1      -0.275   0.877  24.511  0.00  0.00    -0.211 NA
BRANCH  22  26
ATOM     26  C   UNL     1       1.754   0.531  23.138  0.00  0.00    +0.021 A 
ATOM     27  C   UNL     1       2.468   0.878  23.361  0.00  0.00    +0.042 A 
ATOM     28  C   UNL     1       3.145   0.762  22.904  0.00  0.00    +0.176 A 
ATOM     29  C   UNL     1       3.107   0.300  22.222  0.00  0.00    +0.176 A 
ATOM     30  O   UNL     1       3.858   0.284  21.882  0.00  0.00    -0.435 OA
ATOM     31  C   UNL     1       4.361   0.736  22.355  0.00  0.00    +0.429 C 
ATOM     32  O   UNL     1       3.919   1.032  22.985  0.00  0.00    -0.435 OA
ATOM     33  C   UNL     1       2.392  -0.047  21.997  0.00  0.00    +0.040 A 
ATOM     34  C   UNL     1       1.716   0.069  22.455  0.00  0.00    +0.005 A 
ENDBRANCH  22  26
ENDBRANCH  15  19
BRANCH  11  10
ATOM     10  O   UNL     1      -3.976  -0.251  25.460  0.00  0.00    -0.432 OA
BRANCH  10   8
ATOM      7  N   UNL     1      -4.528   1.067  25.489  0.00  0.00    -0.142 NA
ATOM      8  C   UNL     1      -4.552   0.287  25.218  0.00  0.00    +0.425 C 
ATOM      9  O   UNL     1      -5.151   0.048  24.705  0.00  0.00    -0.224 OA
BRANCH   7   6
ATOM      5  C   UNL     1      -4.925   2.410  25.206  0.00  0.00    +0.091 A 
ATOM      6  C   UNL     1      -5.104   1.605  25.247  0.00  0.00    +0.083 A 
ATOM     35  C   UNL     1      -5.859   1.341  25.047  0.00  0.00    +0.017 A 
ATOM     36  C   UNL     1      -6.435   1.879  24.805  0.00  0.00    +0.001 A 
ATOM     37  C   UNL     1      -6.256   2.683  24.763  0.00  0.00    +0.000 A 
ATOM     38  C   UNL     1      -5.501   2.948  24.963  0.00  0.00    +0.008 A 
BRANCH   5   3
ATOM      3  C   UNL     1      -4.170   2.675  25.406  0.00  0.00    +0.343 C 
ATOM      4  O   UNL     1      -3.959   2.756  26.200  0.00  0.00    -0.245 OA
BRANCH   3   2
ATOM      1  C   UNL     1      -2.991   3.358  24.979  0.00  0.00    +0.256 C 
ATOM      2  O   UNL     1      -3.626   2.859  24.814  0.00  0.00    -0.441 OA
ENDBRANCH   3   2
ENDBRANCH   5   3
ENDBRANCH   7   6
ENDBRANCH  10   8
ENDBRANCH  11  10
TORSDOF 7
ENDMDL
MODEL 5
REMARK VINA RESULT:      -6.6      1.503      7.666
REMARK  Name = 
REMARK  7 active torsions:
REMARK  status: ('A' for Active; 'I' for Inactive)
REMARK    1  A    between atoms: O_2  and  C_3
REMARK    2  A    between atoms: C_3  and  C_5
REMARK    3  A    between atoms: C_6  and  N_7
REMARK    4  A    between atoms: C_8  and  O_10
REMARK    5  A    between atoms: O_10  and  C_11
REMARK    6  A    between atoms: C_15  and  N_19
REMARK    7  A    between atoms: C_22  and  C_26
REMARK                            x       y       z     vdW  Elec       q    Type
REMARK                         _______ _______ _______ _____ _____    ______ ____
ROOT
ATOM     11  C   UNL     1       0.737   0.497  23.533  0.00  0.00    +0.229 C 
ATOM     12  C   UNL     1       0.689   1.321  23.538  0.00  0.00    +0.188 C 
ATOM     13  O   UNL     1      -0.006   1.533  23.928  0.00  0.00    -0.348 OA
ATOM     14  C   UNL     1      -0.388   0.841  24.163  0.00  0.00    +0.168 C 
ATOM     15  C   UNL     1      -1.055   0.545  24.549  0.00  0.00    +0.155 C 
ATOM     16  C   UNL     1      -1.007  -0.279  24.544  0.00  0.00    +0.166 C 
ATOM     17  O   UNL     1      -0.311  -0.491  24.154  0.00  0.00    -0.348 OA
ATOM     18  C   UNL     1       0.071   0.200  23.919  0.00  0.00    +0.186 C 
ENDROOT
BRANCH  15  19
ATOM     19  N   UNL     1      -1.661   0.993  24.882  0.00  0.00    -0.200 NA
ATOM     20  C   UNL     1      -2.430   0.928  24.590  0.00  0.00    +0.237 A 
ATOM     21  N   UNL     1      -3.038   1.377  24.923  0.00  0.00    -0.212 NA
ATOM     22  C   UNL     1      -3.807   1.311  24.632  0.00  0.00    +0.086 A 
ATOM     23  C   UNL     1      -3.968   0.797  24.007  0.00  0.00    +0.040 A 
ATOM     24  C   UNL     1      -3.362   0.348  23.674  0.00  0.00    +0.103 A 
ATOM     25  N   UNL     1      -2.593   0.414  23.966  0.00  0.00    -0.211 NA
BRANCH  22  26
ATOM     26  C   UNL     1      -4.413   1.760  24.965  0.00  0.00    +0.021 A 
ATOM     27  C   UNL     1      -4.368   2.583  24.960  0.00  0.00    +0.042 A 
ATOM     28  C   UNL     1      -4.975   3.032  25.293  0.00  0.00    +0.176 A 
ATOM     29  C   UNL     1      -5.627   2.657  25.631  0.00  0.00    +0.176 A 
ATOM     30  O   UNL     1      -6.137   3.239  25.915  0.00  0.00    -0.435 OA
ATOM     31  C   UNL     1      -5.801   3.974  25.753  0.00  0.00    +0.429 C 
ATOM     32  O   UNL     1      -5.082   3.845  25.369  0.00  0.00    -0.435 OA
ATOM     33  C   UNL     1      -5.673   1.832  25.636  0.00  0.00    +0.040 A 
ATOM     34  C   UNL     1      -5.066   1.384  25.303  0.00  0.00    +0.005 A 
ENDBRANCH  22  26
ENDBRANCH  15  19
BRANCH  11  10
ATOM     10  O   UNL     1       1.344   0.049  23.200  0.00  0.00    -0.432 OA
BRANCH  10   8
ATOM      7  N   UNL     1       2.757  -0.133  23.084  0.00  0.00    -0.142 NA
ATOM      8  C   UNL     1       2.101   0.367  23.127  0.00  0.00    +0.425 C 
ATOM      9  O   UNL     1       2.204   1.185  23.098  0.00  0.00    -0.224 OA
BRANCH   7   6
ATOM      5  C   UNL     1       4.174  -0.274  23.199  0.00  0.00    +0.091 A 
ATOM      6  C   UNL     1       3.514   0.185  23.011  0.00  0.00    +0.083 A 
ATOM     35  C   UNL     1       3.613   0.961  22.751  0.00  0.00    +0.017 A 
ATOM     36  C   UNL     1       4.370   1.279  22.678  0.00  0.00    +0.001 A 
ATOM     37  C   UNL     1       5.030   0.821  22.866  0.00  0.00    +0.000 A 
ATOM     38  C   UNL     1       4.931   0.045  23.126  0.00  0.00    +0.008 A 
BRANCH   5   3
ATOM      3  C   UNL     1       4.075  -1.050  23.459  0.00  0.00    +0.343 C 
ATOM      4  O   UNL     1       3.518  -1.540  23.095  0.00  0.00    -0.245 OA
BRANCH   3   2
ATOM      1  C   UNL     1       4.679  -2.148  24.147  0.00  0.00    +0.256 C 
ATOM      2  O   UNL     1       4.533  -1.338  24.083  0.00  0.00    -0.441 OA
ENDBRANCH   3   2
ENDBRANCH   5   3
ENDBRANCH   7   6
ENDBRANCH  10   8
ENDBRANCH  11  10
TORSDOF 7
ENDMDL
