MODEL 1
REMARK VINA RESULT:     -10.5      0.000      0.000
REMARK  Name = 
REMARK  8 active torsions:
REMARK  status: ('A' for Active; 'I' for Inactive)
REMARK    1  A    between atoms: C_2  and  N_3
REMARK    2  A    between atoms: N_6  and  C_7
REMARK    3  A    between atoms: C_7  and  C_8
REMARK    4  A    between atoms: C_12  and  C_13
REMARK    5  A    between atoms: C_13  and  C_14
REMARK    6  A    between atoms: N_16  and  C_17
REMARK    7  A    between atoms: C_17  and  C_18
REMARK    8  A    between atoms: C_25  and  C_26
REMARK                            x       y       z     vdW  Elec       q    Type
REMARK                         _______ _______ _______ _____ _____    ______ ____
ROOT
ATOM      8  C   UNL     1      -4.021   0.836  24.226  0.00  0.00    +0.043 C 
ATOM      9  C   UNL     1      -4.657   0.969  24.733  0.00  0.00    -0.033 C 
ATOM     10  C   UNL     1      -4.805   1.729  25.019  0.00  0.00    -0.048 C 
ATOM     11  C   UNL     1      -5.441   1.862  25.526  0.00  0.00    +0.026 C 
ATOM     12  C   UNL     1      -4.315   2.356  24.797  0.00  0.00    +0.027 C 
ATOM     24  C   UNL     1      -3.679   2.221  24.289  0.00  0.00    +0.005 C 
ATOM     25  C   UNL     1      -3.531   1.462  24.004  0.00  0.00    +0.006 C 
ENDROOT
BRANCH  25  26
ATOM     26  C   UNL     1      -2.895   1.328  23.497  0.00  0.00    +0.000 C 
ATOM     27  C   UNL     1      -2.979   1.452  22.686  0.00  0.00    +0.000 C 
ATOM     28  C   UNL     1      -2.173   1.069  23.801  0.00  0.00    +0.000 C 
ENDBRANCH  25  26
BRANCH   8   7
ATOM      7  C   UNL     1      -3.873   0.075  23.940  0.00  0.00    +0.121 C 
BRANCH   7   6
ATOM      3  N   UNL     1      -3.843  -1.972  24.697  0.00  0.00    -0.187 NA
ATOM      4  C   UNL     1      -3.875  -1.334  24.174  0.00  0.00    +0.339 C 
ATOM      5  O   UNL     1      -3.941  -1.469  23.364  0.00  0.00    -0.249 OA
ATOM      6  N   UNL     1      -3.841  -0.562  24.463  0.00  0.00    -0.187 NA
BRANCH   3   2
ATOM      1  C   UNL     1      -3.437  -3.340  24.771  0.00  0.00    +0.025 C 
ATOM      2  C   UNL     1      -3.877  -2.744  24.407  0.00  0.00    +0.117 C 
ENDBRANCH   3   2
ENDBRANCH   7   6
ENDBRANCH   8   7
BRANCH  12  13
ATOM     13  C   UNL     1      -4.463   3.115  25.082  0.00  0.00    +0.091 C 
BRANCH  13  14
ATOM     14  C   UNL     1      -3.919   3.481  25.583  0.00  0.00    +0.242 C 
ATOM     15  O   UNL     1      -3.988   3.393  26.401  0.00  0.00    -0.273 OA
ATOM     16  N   UNL     1      -3.307   3.934  25.268  0.00  0.00    -0.200 NA
BRANCH  16  17
ATOM     17  C   UNL     1      -2.764   4.299  25.769  0.00  0.00    +0.143 C 
BRANCH  17  18
ATOM     18  C   UNL     1      -2.051   4.586  25.468  0.00  0.00    +0.019 A 
ATOM     19  C   UNL     1      -1.388   4.096  25.436  0.00  0.00    +0.001 A 
ATOM     20  C   UNL     1      -0.676   4.383  25.135  0.00  0.00    +0.020 A 
ATOM     21  C   UNL     1      -0.627   5.161  24.864  0.00  0.00    +0.099 A 
ATOM     22  N   UNL     1      -1.289   5.652  24.895  0.00  0.00    -0.243 NA
ATOM     23  C   UNL     1      -2.002   5.364  25.197  0.00  0.00    +0.096 A 
ENDBRANCH  17  18
ENDBRANCH  16  17
ENDBRANCH  13  14
ENDBRANCH  12  13
TORSDOF 8
ENDMDL
MODEL 2
REMARK VINA RESULT:     -10.3      2.587      4.243
REMARK  Name = 
REMARK  8 active torsions:
REMARK  status: ('A' for Active; 'I' for Inactive)
REMARK    1  A    between atoms: C_2  and  N_3
REMARK    2  A    between atoms: N_6  and  C_7
REMARK    3  A    between atoms: C_7  and  C_8
REMARK    4  A    between atoms: C_12  and  C_13
REMARK    5  A    between atoms: C_13  and  C_14
REMARK    6  A    between atoms: N_16  and  C_17
REMARK    7  A    between atoms: C_17  and  C_18
REMARK    8  A    between atoms: C_25  and  C_26
REMARK                            x       y       z     vdW  Elec       q    Type
REMARK                         _______ _______ _______ _____ _____    ______ ____
ROOT
ATOM      8  C   UNL     1      -0.689   1.417  24.406  0.00  0.00    +0.043 C 
ATOM      9  C   UNL     1      -0.423   2.197  24.379  0.00  0.00    -0.033 C 
ATOM     10  C   UNL     1      -0.893   2.803  24.684  0.00  0.00    -0.048 C 
ATOM     11  C   UNL     1      -0.626   3.584  24.657  0.00  0.00    +0.026 C 
ATOM     12  C   UNL     1      -1.628   2.629  25.015  0.00  0.00    +0.027 C 
ATOM     24  C   UNL     1      -1.893   1.848  25.042  0.00  0.00    +0.005 C 
ATOM     25  C   UNL     1      -1.424   1.242  24.737  0.00  0.00    +0.006 C 
ENDROOT
BRANCH  25  26
ATOM     26  C   UNL     1      -1.690   0.461  24.764  0.00  0.00    +0.000 C 
ATOM     27  C   UNL     1      -2.140   0.157  24.144  0.00  0.00    +0.000 C 
ATOM     28  C   UNL     1      -1.504  -0.015  25.411  0.00  0.00    +0.000 C 
ENDBRANCH  25  26
BRANCH   8   7
ATOM      7  C   UNL     1      -0.219   0.810  24.101  0.00  0.00    +0.121 C 
BRANCH   7   6
ATOM      3  N   UNL     1       1.701   0.574  23.091  0.00  0.00    -0.187 NA
ATOM      4  C   UNL     1       0.950   0.404  23.387  0.00  0.00    +0.339 C 
ATOM      5  O   UNL     1       0.617  -0.340  23.265  0.00  0.00    -0.249 OA
ATOM      6  N   UNL     1       0.532   0.980  23.805  0.00  0.00    -0.187 NA
BRANCH   3   2
ATOM      1  C   UNL     1       2.873   0.165  22.383  0.00  0.00    +0.025 C 
ATOM      2  C   UNL     1       2.119  -0.002  22.673  0.00  0.00    +0.117 C 
ENDBRANCH   3   2
ENDBRANCH   7   6
ENDBRANCH   8   7
BRANCH  12  13
ATOM     13  C   UNL     1      -2.097   3.235  25.319  0.00  0.00    +0.091 C 
BRANCH  13  14
ATOM     14  C   UNL     1      -2.834   3.395  24.985  0.00  0.00    +0.242 C 
ATOM     15  O   UNL     1      -2.883   3.800  24.268  0.00  0.00    -0.273 OA
ATOM     16  N   UNL     1      -3.522   3.149  25.367  0.00  0.00    -0.200 NA
BRANCH  16  17
ATOM     17  C   UNL     1      -4.259   3.309  25.033  0.00  0.00    +0.143 C 
BRANCH  17  18
ATOM     18  C   UNL     1      -4.927   2.899  25.292  0.00  0.00    +0.019 A 
ATOM     19  C   UNL     1      -5.242   2.290  24.833  0.00  0.00    +0.001 A 
ATOM     20  C   UNL     1      -5.910   1.881  25.092  0.00  0.00    +0.020 A 
ATOM     21  C   UNL     1      -6.264   2.082  25.809  0.00  0.00    +0.099 A 
ATOM     22  N   UNL     1      -5.950   2.691  26.269  0.00  0.00    -0.243 NA
ATOM     23  C   UNL     1      -5.281   3.100  26.010  0.00  0.00    +0.096 A 
ENDBRANCH  17  18
ENDBRANCH  16  17
ENDBRANCH  13  14
ENDBRANCH  12  13
TORSDOF 8
ENDMDL
MODEL 3
REMARK VINA RESULT:      -9.8      2.706      4.514
REMARK  Name = 
REMARK  8 active torsions:
REMARK  status: ('A' for Active; 'I' for Inactive)
REMARK    1  A    between atoms: C_2  and  N_3
REMARK    2  A    between atoms: N_6  and  C_7
REMARK    3  A    between atoms: C_7  and  C_8
REMARK    4  A    between atoms: C_12  and  C_13
REMARK    5  A    between atoms: C_13  and  C_14
REMARK    6  A    between atoms: N_16  and  C_17
REMARK    7  A    between atoms: C_17  and  C_18
REMARK    8  A    between atoms: C_25  and  C_26
REMARK                            x       y       z     vdW  Elec       q    Type
REMARK                         _______ _______ _______ _____ _____    ______ ____
ROOT
ATOM      8  C   UNL     1      -0.772   0.562  24.309  0.00  0.00    +0.043 C 
ATOM      9  C   UNL     1      -0.948  -0.243  24.342  0.00  0.00    -0.033 C 
ATOM     10  C   UNL     1      -1.691  -0.492  24.602  0.00  0.00    -0.048 C 
ATOM     11  C   UNL     1      -1.868  -1.297  24.635  0.00  0.00    +0.026 C 
ATOM     12  C   UNL     1      -2.257   0.065  24.830  0.00  0.00    +0.027 C 
ATOM     24  C   UNL     1      -2.078   0.870  24.797  0.00  0.00    +0.005 C 
ATOM     25  C   UNL     1      -1.337   1.118  24.537  0.00  0.00    +0.006 C 
ENDROOT
BRANCH  25  26
ATOM     26  C   UNL     1      -1.159   1.923  24.503  0.00  0.00    +0.000 C 
ATOM     27  C   UNL     1      -0.841   2.303  25.162  0.00  0.00    +0.000 C 
ATOM     28  C   UNL     1      -1.299   2.348  23.810  0.00  0.00    +0.000 C 
ENDBRANCH  25  26
BRANCH   8   7
ATOM      7  C   UNL     1      -0.029   0.810  24.049  0.00  0.00    +0.121 C 
BRANCH   7   6
ATOM      3  N   UNL     1       1.623   0.053  22.839  0.00  0.00    -0.187 NA
ATOM      4  C   UNL     1       1.191   0.524  23.362  0.00  0.00    +0.339 C 
ATOM      5  O   UNL     1       1.546   1.176  23.719  0.00  0.00    -0.249 OA
ATOM      6  N   UNL     1       0.403   0.340  23.527  0.00  0.00    -0.187 NA
BRANCH   3   2
ATOM      1  C   UNL     1       2.765  -0.048  21.986  0.00  0.00    +0.025 C 
ATOM      2  C   UNL     1       2.411   0.237  22.675  0.00  0.00    +0.117 C 
ENDBRANCH   3   2
ENDBRANCH   7   6
ENDBRANCH   8   7
BRANCH  12  13
ATOM     13  C   UNL     1      -2.998  -0.184  25.090  0.00  0.00    +0.091 C 
BRANCH  13  14
ATOM     14  C   UNL     1      -3.682   0.131  24.751  0.00  0.00    +0.242 C 
ATOM     15  O   UNL     1      -3.927  -0.125  24.006  0.00  0.00    -0.273 OA
ATOM     16  N   UNL     1      -4.119   0.700  25.156  0.00  0.00    -0.200 NA
BRANCH  16  17
ATOM     17  C   UNL     1      -4.802   1.014  24.817  0.00  0.00    +0.143 C 
BRANCH  17  18
ATOM     18  C   UNL     1      -5.138   1.702  25.125  0.00  0.00    +0.019 A 
ATOM     19  C   UNL     1      -4.923   2.439  24.821  0.00  0.00    +0.001 A 
ATOM     20  C   UNL     1      -5.259   3.126  25.129  0.00  0.00    +0.020 A 
ATOM     21  C   UNL     1      -5.809   3.077  25.742  0.00  0.00    +0.099 A 
ATOM     22  N   UNL     1      -6.024   2.341  26.046  0.00  0.00    -0.243 NA
ATOM     23  C   UNL     1      -5.688   1.653  25.737  0.00  0.00    +0.096 A 
ENDBRANCH  17  18
ENDBRANCH  16  17
ENDBRANCH  13  14
ENDBRANCH  12  13
TORSDOF 8
ENDMDL
MODEL 4
REMARK VINA RESULT:      -9.6      2.647      5.171
REMARK  Name = 
REMARK  8 active torsions:
REMARK  status: ('A' for Active; 'I' for Inactive)
REMARK    1  A    between atoms: C_2  and  N_3
REMARK    2  A    between atoms: N_6  and  C_7
REMARK    3  A    between atoms: C_7  and  C_8
REMARK    4  A    between atoms: C_12  and  C_13
REMARK    5  A    between atoms: C_13  and  C_14
REMARK    6  A    between atoms: N_16  and  C_17
REMARK    7  A    between atoms: C_17  and  C_18
REMARK    8  A    between atoms: C_25  and  C_26
REMARK                            x       y       z     vdW  Elec       q    Type
REMARK                         _______ _______ _______ _____ _____    ______ ____
ROOT
ATOM      8  C   UNL     1      -0.837   1.484  24.121  0.00  0.00    +0.043 C 
ATOM      9  C   UNL     1      -1.225   1.521  23.394  0.00  0.00    -0.033 C 
ATOM     10  C   UNL     1      -2.050   1.541  23.367  0.00  0.00    -0.048 C 
ATOM     11  C   UNL     1      -2.437   1.578  22.640  0.00  0.00    +0.026 C 
ATOM     12  C   UNL     1      -2.486   1.523  24.067  0.00  0.00    +0.027 C 
ATOM     24  C   UNL     1      -2.097   1.486  24.794  0.00  0.00    +0.005 C 
ATOM     25  C   UNL     1      -1.273   1.466  24.821  0.00  0.00    +0.006 C 
ENDROOT
BRANCH  25  26
ATOM     26  C   UNL     1      -0.884   1.429  25.548  0.00  0.00    +0.000 C 
ATOM     27  C   UNL     1      -0.733   0.699  25.898  0.00  0.00    +0.000 C 
ATOM     28  C   UNL     1      -0.646   2.124  25.924  0.00  0.00    +0.000 C 
ENDBRANCH  25  26
BRANCH   8   7
ATOM      7  C   UNL     1      -0.012   1.465  24.148  0.00  0.00    +0.121 C 
BRANCH   7   6
ATOM      3  N   UNL     1       1.626   0.537  23.043  0.00  0.00    -0.187 NA
ATOM      4  C   UNL     1       1.211   1.058  23.530  0.00  0.00    +0.339 C 
ATOM      5  O   UNL     1       1.600   1.691  23.885  0.00  0.00    -0.249 OA
ATOM      6  N   UNL     1       0.403   0.944  23.661  0.00  0.00    -0.187 NA
BRANCH   3   2
ATOM      1  C   UNL     1       2.842   0.150  22.400  0.00  0.00    +0.025 C 
ATOM      2  C   UNL     1       2.433   0.651  22.912  0.00  0.00    +0.117 C 
ENDBRANCH   3   2
ENDBRANCH   7   6
ENDBRANCH   8   7
BRANCH  12  13
ATOM     13  C   UNL     1      -3.310   1.542  24.040  0.00  0.00    +0.091 C 
BRANCH  13  14
ATOM     14  C   UNL     1      -3.750   0.992  24.469  0.00  0.00    +0.242 C 
ATOM     15  O   UNL     1      -4.171   1.232  25.137  0.00  0.00    -0.273 OA
ATOM     16  N   UNL     1      -3.771   0.203  24.231  0.00  0.00    -0.200 NA
BRANCH  16  17
ATOM     17  C   UNL     1      -4.211  -0.346  24.659  0.00  0.00    +0.143 C 
BRANCH  17  18
ATOM     18  C   UNL     1      -4.077  -1.154  24.557  0.00  0.00    +0.019 A 
ATOM     19  C   UNL     1      -3.654  -1.578  25.124  0.00  0.00    +0.001 A 
ATOM     20  C   UNL     1      -3.520  -2.385  25.022  0.00  0.00    +0.020 A 
ATOM     21  C   UNL     1      -3.810  -2.769  24.351  0.00  0.00    +0.099 A 
ATOM     22  N   UNL     1      -4.232  -2.346  23.783  0.00  0.00    -0.243 NA
ATOM     23  C   UNL     1      -4.366  -1.538  23.887  0.00  0.00    +0.096 A 
ENDBRANCH  17  18
ENDBRANCH  16  17
ENDBRANCH  13  14
ENDBRANCH  12  13
TORSDOF 8
ENDMDL
MODEL 5
REMARK VINA RESULT:      -9.2      1.313      5.514
REMARK  Name = 
REMARK  8 active torsions:
REMARK  status: ('A' for Active; 'I' for Inactive)
REMARK    1  A    between atoms: C_2  and  N_3
REMARK    2  A    between atoms: N_6  and  C_7
REMARK    3  A    between atoms: C_7  and  C_8
REMARK    4  A    between atoms: C_12  and  C_13
REMARK    5  A    between atoms: C_13  and  C_14
REMARK    6  A    between atoms: N_16  and  C_17
REMARK    7  A    between atoms: C_17  and  C_18
REMARK    8  A    between atoms: C_25  and  C_26
REMARK                            x       y       z     vdW  Elec       q    Type
REMARK                         _______ _______ _______ _____ _____    ______ ____
ROOT
ATOM      8  C   UNL     1      -2.415   2.268  24.687  0.00  0.00    +0.043 C 
ATOM      9  C   UNL     1      -3.189   2.552  24.672  0.00  0.00    -0.033 C 
ATOM     10  C   UNL     1      -3.820   2.026  24.592  0.00  0.00    -0.048 C 
ATOM     11  C   UNL     1      -4.594   2.310  24.577  0.00  0.00    +0.026 C 
ATOM     12  C   UNL     1      -3.676   1.216  24.527  0.00  0.00    +0.027 C 
ATOM     24  C   UNL     1      -2.901   0.933  24.542  0.00  0.00    +0.005 C 
ATOM     25  C   UNL     1      -2.271   1.458  24.622  0.00  0.00    +0.006 C 
ENDROOT
BRANCH  25  26
ATOM     26  C   UNL     1      -1.496   1.174  24.638  0.00  0.00    +0.000 C 
ATOM     27  C   UNL     1      -1.138   0.991  25.357  0.00  0.00    +0.000 C 
ATOM     28  C   UNL     1      -1.080   1.074  23.932  0.00  0.00    +0.000 C 
ENDBRANCH  25  26
BRANCH   8   7
ATOM      7  C   UNL     1      -1.784   2.794  24.768  0.00  0.00    +0.121 C 
BRANCH   7   6
ATOM      3  N   UNL     1      -1.471   4.936  25.042  0.00  0.00    -0.187 NA
ATOM      4  C   UNL     1      -1.326   4.144  24.862  0.00  0.00    +0.339 C 
ATOM      5  O   UNL     1      -0.581   3.910  24.599  0.00  0.00    -0.249 OA
ATOM      6  N   UNL     1      -1.928   3.586  24.947  0.00  0.00    -0.187 NA
BRANCH   3   2
ATOM      1  C   UNL     1      -1.057   6.293  24.869  0.00  0.00    +0.025 C 
ATOM      2  C   UNL     1      -0.868   5.495  24.957  0.00  0.00    +0.117 C 
ENDBRANCH   3   2
ENDBRANCH   7   6
ENDBRANCH   8   7
BRANCH  12  13
ATOM     13  C   UNL     1      -4.307   0.691  24.447  0.00  0.00    +0.091 C 
BRANCH  13  14
ATOM     14  C   UNL     1      -4.315  -0.013  24.877  0.00  0.00    +0.242 C 
ATOM     15  O   UNL     1      -4.500  -0.003  25.680  0.00  0.00    -0.273 OA
ATOM     16  N   UNL     1      -4.139  -0.727  24.503  0.00  0.00    -0.200 NA
BRANCH  16  17
ATOM     17  C   UNL     1      -4.147  -1.430  24.933  0.00  0.00    +0.143 C 
BRANCH  17  18
ATOM     18  C   UNL     1      -3.769  -2.101  24.636  0.00  0.00    +0.019 A 
ATOM     19  C   UNL     1      -3.039  -2.334  24.942  0.00  0.00    +0.001 A 
ATOM     20  C   UNL     1      -2.662  -3.004  24.645  0.00  0.00    +0.020 A 
ATOM     21  C   UNL     1      -3.014  -3.442  24.041  0.00  0.00    +0.099 A 
ATOM     22  N   UNL     1      -3.743  -3.210  23.734  0.00  0.00    -0.243 NA
ATOM     23  C   UNL     1      -4.121  -2.539  24.031  0.00  0.00    +0.096 A 
ENDBRANCH  17  18
ENDBRANCH  16  17
ENDBRANCH  13  14
ENDBRANCH  12  13
TORSDOF 8
ENDMDL
MODEL 6
REMARK VINA RESULT:      -7.3     16.442     18.824
REMARK  Name = 
REMARK  8 active torsions:
REMARK  status: ('A' for Active; 'I' for Inactive)
REMARK    1  A    between atoms: C_2  and  N_3
REMARK    2  A    between atoms: N_6  and  C_7
REMARK    3  A    between atoms: C_7  and  C_8
REMARK    4  A    between atoms: C_12  and  C_13
REMARK    5  A    between atoms: C_13  and  C_14
REMARK    6  A    between atoms: N_16  and  C_17
REMARK    7  A    between atoms: C_17  and  C_18
REMARK    8  A    between atoms: C_25  and  C_26
REMARK                            x       y       z     vdW  Elec       q    Type
REMARK                         _______ _______ _______ _____ _____    ______ ____
ROOT
ATOM      8  C   UNL     1      12.092   8.483  19.448  0.00  0.00    +0.043 C 
ATOM      9  C   UNL     1      12.806   8.753  19.136  0.00  0.00    -0.033 C 
ATOM     10  C   UNL     1      13.468   8.823  19.624  0.00  0.00    -0.048 C 
ATOM     11  C   UNL     1      14.182   9.094  19.312  0.00  0.00    +0.026 C 
ATOM     12  C   UNL     1      13.416   8.622  20.422  0.00  0.00    +0.027 C 
ATOM     24  C   UNL     1      12.701   8.352  20.733  0.00  0.00    +0.005 C 
ATOM     25  C   UNL     1      12.040   8.282  20.247  0.00  0.00    +0.006 C 
ENDROOT
BRANCH  25  26
ATOM     26  C   UNL     1      11.325   8.011  20.558  0.00  0.00    +0.000 C 
ATOM     27  C   UNL     1      10.782   8.547  20.873  0.00  0.00    +0.000 C 
ATOM     28  C   UNL     1      11.153   7.205  20.553  0.00  0.00    +0.000 C 
ENDBRANCH  25  26
BRANCH   8   7
ATOM      7  C   UNL     1      11.429   8.413  18.961  0.00  0.00    +0.121 C 
BRANCH   7   6
ATOM      3  N   UNL     1      11.010   8.394  16.819  0.00  0.00    -0.187 NA
ATOM      4  C   UNL     1      10.914   8.505  17.631  0.00  0.00    +0.339 C 
ATOM      5  O   UNL     1      10.210   8.816  17.925  0.00  0.00    -0.249 OA
ATOM      6  N   UNL     1      11.525   8.303  18.149  0.00  0.00    -0.187 NA
BRANCH   3   2
ATOM      1  C   UNL     1      10.575   8.951  15.577  0.00  0.00    +0.025 C 
ATOM      2  C   UNL     1      10.400   8.596  16.301  0.00  0.00    +0.117 C 
ENDBRANCH   3   2
ENDBRANCH   7   6
ENDBRANCH   8   7
BRANCH  12  13
ATOM     13  C   UNL     1      14.078   8.692  20.909  0.00  0.00    +0.091 C 
BRANCH  13  14
ATOM     14  C   UNL     1      14.461   8.015  21.185  0.00  0.00    +0.242 C 
ATOM     15  O   UNL     1      14.266   7.704  21.924  0.00  0.00    -0.273 OA
ATOM     16  N   UNL     1      15.038   7.650  20.724  0.00  0.00    -0.200 NA
BRANCH  16  17
ATOM     17  C   UNL     1      15.421   6.974  21.000  0.00  0.00    +0.143 C 
BRANCH  17  18
ATOM     18  C   UNL     1      16.018   6.623  20.551  0.00  0.00    +0.019 A 
ATOM     19  C   UNL     1      16.809   6.736  20.755  0.00  0.00    +0.001 A 
ATOM     20  C   UNL     1      17.405   6.386  20.306  0.00  0.00    +0.020 A 
ATOM     21  C   UNL     1      17.210   5.922  19.652  0.00  0.00    +0.099 A 
ATOM     22  N   UNL     1      16.419   5.809  19.447  0.00  0.00    -0.243 NA
ATOM     23  C   UNL     1      15.823   6.160  19.897  0.00  0.00    +0.096 A 
ENDBRANCH  17  18
ENDBRANCH  16  17
ENDBRANCH  13  14
ENDBRANCH  12  13
TORSDOF 8
ENDMDL
