MODEL 1
REMARK VINA RESULT:     -12.2      0.000      0.000
REMARK  Name = 
REMARK  5 active torsions:
REMARK  status: ('A' for Active; 'I' for Inactive)
REMARK    1  A    between atoms: C_2  and  N_3
REMARK    2  A    between atoms: N_6  and  C_7
REMARK    3  A    between atoms: C_9  and  C_12
REMARK    4  A    between atoms: N_15  and  C_19
REMARK    5  A    between atoms: C_24  and  N_25
REMARK                            x       y       z     vdW  Elec       q    Type
REMARK                         _______ _______ _______ _____ _____    ______ ____
ROOT
ATOM     12  C   UNL     1      -4.156   1.052  24.639  0.00  0.00    +0.010 A 
ATOM     13  C   UNL     1      -3.805   0.370  24.334  0.00  0.00    +0.058 A 
ATOM     14  C   UNL     1      -3.199   0.344  23.776  0.00  0.00    +0.052 C 
ATOM     15  N   UNL     1      -4.167  -0.282  24.688  0.00  0.00    -0.233 N 
ATOM     16  N   UNL     1      -4.741  -0.003  25.210  0.00  0.00    -0.170 NA
ATOM     17  C   UNL     1      -4.735   0.821  25.180  0.00  0.00    +0.077 A 
ATOM     18  C   UNL     1      -5.221   1.327  25.614  0.00  0.00    +0.054 C 
ENDROOT
BRANCH  15  19
ATOM     19  C   UNL     1      -3.986  -1.075  24.545  0.00  0.00    +0.105 A 
ATOM     20  C   UNL     1      -4.236  -1.434  23.845  0.00  0.00    +0.021 A 
ATOM     21  C   UNL     1      -4.056  -2.226  23.702  0.00  0.00    +0.002 A 
ATOM     22  C   UNL     1      -3.626  -2.659  24.258  0.00  0.00    +0.002 A 
ATOM     23  C   UNL     1      -3.376  -2.299  24.956  0.00  0.00    +0.026 A 
ATOM     24  C   UNL     1      -3.556  -1.507  25.100  0.00  0.00    +0.160 A 
BRANCH  24  25
ATOM     25  N   UNL     1      -3.306  -1.147  25.800  0.00  0.00    +0.059 N 
ATOM     26  O   UNL     1      -2.560  -0.798  25.839  0.00  0.00    -0.126 OA
ATOM     27  O   UNL     1      -3.801  -1.137  26.459  0.00  0.00    -0.126 OA
ENDBRANCH  24  25
ENDBRANCH  15  19
BRANCH  12   9
ATOM      7  C   UNL     1      -3.498   3.078  24.498  0.00  0.00    +0.119 C 
ATOM      8  C   UNL     1      -3.579   2.375  24.922  0.00  0.00    +0.035 C 
ATOM      9  C   UNL     1      -3.962   1.827  24.437  0.00  0.00    +0.048 C 
ATOM     10  C   UNL     1      -4.117   2.194  23.713  0.00  0.00    -0.025 C 
ATOM     11  C   UNL     1      -3.830   2.966  23.752  0.00  0.00    -0.009 C 
BRANCH   7   6
ATOM      3  N   UNL     1      -1.973   4.552  25.018  0.00  0.00    -0.187 NA
ATOM      4  C   UNL     1      -2.326   3.858  24.742  0.00  0.00    +0.339 C 
ATOM      5  O   UNL     1      -1.859   3.252  24.435  0.00  0.00    -0.249 OA
ATOM      6  N   UNL     1      -3.146   3.771  24.774  0.00  0.00    -0.184 NA
BRANCH   3   2
ATOM      1  C   UNL     1      -0.819   5.393  24.969  0.00  0.00    +0.025 C 
ATOM      2  C   UNL     1      -1.154   4.638  24.986  0.00  0.00    +0.117 C 
ENDBRANCH   3   2
ENDBRANCH   7   6
ENDBRANCH  12   9
TORSDOF 5
ENDMDL
MODEL 2
REMARK VINA RESULT:     -10.9      1.030      5.044
REMARK  Name = 
REMARK  5 active torsions:
REMARK  status: ('A' for Active; 'I' for Inactive)
REMARK    1  A    between atoms: C_2  and  N_3
REMARK    2  A    between atoms: N_6  and  C_7
REMARK    3  A    between atoms: C_9  and  C_12
REMARK    4  A    between atoms: N_15  and  C_19
REMARK    5  A    between atoms: C_24  and  N_25
REMARK                            x       y       z     vdW  Elec       q    Type
REMARK                         _______ _______ _______ _____ _____    ______ ____
ROOT
ATOM     12  C   UNL     1      -3.511   2.051  24.549  0.00  0.00    +0.010 A 
ATOM     13  C   UNL     1      -2.747   2.260  24.778  0.00  0.00    +0.058 A 
ATOM     14  C   UNL     1      -2.196   1.765  25.139  0.00  0.00    +0.052 C 
ATOM     15  N   UNL     1      -2.631   3.054  24.583  0.00  0.00    -0.233 N 
ATOM     16  N   UNL     1      -3.323   3.335  24.233  0.00  0.00    -0.170 NA
ATOM     17  C   UNL     1      -3.867   2.715  24.212  0.00  0.00    +0.077 A 
ATOM     18  C   UNL     1      -4.633   2.752  23.907  0.00  0.00    +0.054 C 
ENDROOT
BRANCH  15  19
ATOM     19  C   UNL     1      -1.943   3.491  24.714  0.00  0.00    +0.105 A 
ATOM     20  C   UNL     1      -1.246   3.289  24.321  0.00  0.00    +0.021 A 
ATOM     21  C   UNL     1      -0.558   3.725  24.452  0.00  0.00    +0.002 A 
ATOM     22  C   UNL     1      -0.567   4.363  24.976  0.00  0.00    +0.002 A 
ATOM     23  C   UNL     1      -1.264   4.564  25.368  0.00  0.00    +0.026 A 
ATOM     24  C   UNL     1      -1.952   4.128  25.237  0.00  0.00    +0.160 A 
BRANCH  24  25
ATOM     25  N   UNL     1      -2.649   4.330  25.630  0.00  0.00    +0.059 N 
ATOM     26  O   UNL     1      -3.195   4.833  25.269  0.00  0.00    -0.126 OA
ATOM     27  O   UNL     1      -2.801   4.029  26.382  0.00  0.00    -0.126 OA
ENDBRANCH  24  25
ENDBRANCH  15  19
BRANCH  12   9
ATOM      7  C   UNL     1      -4.178   0.025  24.459  0.00  0.00    +0.119 C 
ATOM      8  C   UNL     1      -3.715   0.644  24.172  0.00  0.00    +0.035 C 
ATOM      9  C   UNL     1      -3.858   1.309  24.640  0.00  0.00    +0.048 C 
ATOM     10  C   UNL     1      -4.410   1.099  25.217  0.00  0.00    -0.025 C 
ATOM     11  C   UNL     1      -4.607   0.306  25.105  0.00  0.00    -0.009 C 
BRANCH   7   6
ATOM      3  N   UNL     1      -3.888  -2.130  24.263  0.00  0.00    -0.187 NA
ATOM      4  C   UNL     1      -3.859  -1.363  24.569  0.00  0.00    +0.339 C 
ATOM      5  O   UNL     1      -3.486  -1.221  25.289  0.00  0.00    -0.249 OA
ATOM      6  N   UNL     1      -4.206  -0.741  24.153  0.00  0.00    -0.184 NA
BRANCH   3   2
ATOM      1  C   UNL     1      -3.438  -3.485  24.314  0.00  0.00    +0.025 C 
ATOM      2  C   UNL     1      -3.541  -2.752  24.679  0.00  0.00    +0.117 C 
ENDBRANCH   3   2
ENDBRANCH   7   6
ENDBRANCH  12   9
TORSDOF 5
ENDMDL
MODEL 3
REMARK VINA RESULT:     -10.6      1.895      2.521
REMARK  Name = 
REMARK  5 active torsions:
REMARK  status: ('A' for Active; 'I' for Inactive)
REMARK    1  A    between atoms: C_2  and  N_3
REMARK    2  A    between atoms: N_6  and  C_7
REMARK    3  A    between atoms: C_9  and  C_12
REMARK    4  A    between atoms: N_15  and  C_19
REMARK    5  A    between atoms: C_24  and  N_25
REMARK                            x       y       z     vdW  Elec       q    Type
REMARK                         _______ _______ _______ _____ _____    ______ ____
ROOT
ATOM     12  C   UNL     1      -1.391   0.156  24.673  0.00  0.00    +0.010 A 
ATOM     13  C   UNL     1      -2.164  -0.125  24.741  0.00  0.00    +0.058 A 
ATOM     14  C   UNL     1      -2.783   0.249  25.134  0.00  0.00    +0.052 C 
ATOM     15  N   UNL     1      -2.206  -0.848  24.344  0.00  0.00    -0.233 N 
ATOM     16  N   UNL     1      -1.461  -1.013  24.032  0.00  0.00    -0.170 NA
ATOM     17  C   UNL     1      -0.956  -0.392  24.236  0.00  0.00    +0.077 A 
ATOM     18  C   UNL     1      -0.158  -0.330  24.037  0.00  0.00    +0.054 C 
ENDROOT
BRANCH  15  19
ATOM     19  C   UNL     1      -2.878  -1.323  24.272  0.00  0.00    +0.105 A 
ATOM     20  C   UNL     1      -3.585  -0.997  24.000  0.00  0.00    +0.021 A 
ATOM     21  C   UNL     1      -4.256  -1.471  23.928  0.00  0.00    +0.002 A 
ATOM     22  C   UNL     1      -4.220  -2.271  24.128  0.00  0.00    +0.002 A 
ATOM     23  C   UNL     1      -3.512  -2.596  24.400  0.00  0.00    +0.026 A 
ATOM     24  C   UNL     1      -2.841  -2.122  24.472  0.00  0.00    +0.160 A 
BRANCH  24  25
ATOM     25  N   UNL     1      -2.133  -2.448  24.744  0.00  0.00    +0.059 N 
ATOM     26  O   UNL     1      -1.603  -2.785  24.210  0.00  0.00    -0.126 OA
ATOM     27  O   UNL     1      -1.956  -2.436  25.549  0.00  0.00    -0.126 OA
ENDBRANCH  24  25
ENDBRANCH  15  19
BRANCH  12   9
ATOM      7  C   UNL     1      -0.722   2.135  25.112  0.00  0.00    +0.119 C 
ATOM      8  C   UNL     1      -1.034   1.580  24.587  0.00  0.00    +0.035 C 
ATOM      9  C   UNL     1      -1.103   0.862  24.988  0.00  0.00    +0.048 C 
ATOM     10  C   UNL     1      -0.834   0.974  25.761  0.00  0.00    -0.025 C 
ATOM     11  C   UNL     1      -0.599   1.762  25.836  0.00  0.00    -0.009 C 
BRANCH   7   6
ATOM      3  N   UNL     1      -0.936   4.305  24.995  0.00  0.00    -0.187 NA
ATOM      4  C   UNL     1      -1.096   3.513  25.166  0.00  0.00    +0.339 C 
ATOM      5  O   UNL     1      -1.789   3.310  25.563  0.00  0.00    -0.249 OA
ATOM      6  N   UNL     1      -0.562   2.927  24.940  0.00  0.00    -0.184 NA
BRANCH   3   2
ATOM      1  C   UNL     1      -1.357   5.670  24.971  0.00  0.00    +0.025 C 
ATOM      2  C   UNL     1      -1.470   4.892  25.221  0.00  0.00    +0.117 C 
ENDBRANCH   3   2
ENDBRANCH   7   6
ENDBRANCH  12   9
TORSDOF 5
ENDMDL
MODEL 4
REMARK VINA RESULT:     -10.1      2.710      4.227
REMARK  Name = 
REMARK  5 active torsions:
REMARK  status: ('A' for Active; 'I' for Inactive)
REMARK    1  A    between atoms: C_2  and  N_3
REMARK    2  A    between atoms: N_6  and  C_7
REMARK    3  A    between atoms: C_9  and  C_12
REMARK    4  A    between atoms: N_15  and  C_19
REMARK    5  A    between atoms: C_24  and  N_25
REMARK                            x       y       z     vdW  Elec       q    Type
REMARK                         _______ _______ _______ _____ _____    ______ ____
ROOT
ATOM     12  C   UNL     1      -2.172   1.362  24.898  0.00  0.00    +0.010 A 
ATOM     13  C   UNL     1      -2.971   1.192  24.782  0.00  0.00    +0.058 A 
ATOM     14  C   UNL     1      -3.280   0.478  24.510  0.00  0.00    +0.052 C 
ATOM     15  N   UNL     1      -3.406   1.863  24.984  0.00  0.00    -0.233 N 
ATOM     16  N   UNL     1      -2.876   2.448  25.226  0.00  0.00    -0.170 NA
ATOM     17  C   UNL     1      -2.113   2.138  25.173  0.00  0.00    +0.077 A 
ATOM     18  C   UNL     1      -1.414   2.533  25.361  0.00  0.00    +0.054 C 
ENDROOT
BRANCH  15  19
ATOM     19  C   UNL     1      -4.227   1.938  24.951  0.00  0.00    +0.105 A 
ATOM     20  C   UNL     1      -4.706   1.412  25.369  0.00  0.00    +0.021 A 
ATOM     21  C   UNL     1      -5.526   1.486  25.336  0.00  0.00    +0.002 A 
ATOM     22  C   UNL     1      -5.869   2.086  24.885  0.00  0.00    +0.002 A 
ATOM     23  C   UNL     1      -5.390   2.612  24.467  0.00  0.00    +0.026 A 
ATOM     24  C   UNL     1      -4.569   2.538  24.500  0.00  0.00    +0.160 A 
BRANCH  24  25
ATOM     25  N   UNL     1      -4.091   3.064  24.082  0.00  0.00    +0.059 N 
ATOM     26  O   UNL     1      -3.839   3.764  24.438  0.00  0.00    -0.126 OA
ATOM     27  O   UNL     1      -3.864   2.891  23.308  0.00  0.00    -0.126 OA
ENDBRANCH  24  25
ENDBRANCH  15  19
BRANCH  12   9
ATOM      7  C   UNL     1      -0.587   0.140  24.155  0.00  0.00    +0.119 C 
ATOM      8  C   UNL     1      -1.193   0.686  24.034  0.00  0.00    +0.035 C 
ATOM      9  C   UNL     1      -1.543   0.846  24.764  0.00  0.00    +0.048 C 
ATOM     10  C   UNL     1      -1.151   0.399  25.337  0.00  0.00    -0.025 C 
ATOM     11  C   UNL     1      -0.560  -0.037  24.960  0.00  0.00    -0.009 C 
BRANCH   7   6
ATOM      3  N   UNL     1       1.133  -0.137  22.839  0.00  0.00    -0.187 NA
ATOM      4  C   UNL     1       0.639   0.177  23.421  0.00  0.00    +0.339 C 
ATOM      5  O   UNL     1       0.876   0.839  23.851  0.00  0.00    -0.249 OA
ATOM      6  N   UNL     1      -0.093  -0.173  23.573  0.00  0.00    -0.184 NA
BRANCH   3   2
ATOM      1  C   UNL     1       2.365  -0.109  22.115  0.00  0.00    +0.025 C 
ATOM      2  C   UNL     1       1.864   0.213  22.687  0.00  0.00    +0.117 C 
ENDBRANCH   3   2
ENDBRANCH   7   6
ENDBRANCH  12   9
TORSDOF 5
ENDMDL
MODEL 5
REMARK VINA RESULT:      -9.8      1.559      2.123
REMARK  Name = 
REMARK  5 active torsions:
REMARK  status: ('A' for Active; 'I' for Inactive)
REMARK    1  A    between atoms: C_2  and  N_3
REMARK    2  A    between atoms: N_6  and  C_7
REMARK    3  A    between atoms: C_9  and  C_12
REMARK    4  A    between atoms: N_15  and  C_19
REMARK    5  A    between atoms: C_24  and  N_25
REMARK                            x       y       z     vdW  Elec       q    Type
REMARK                         _______ _______ _______ _____ _____    ______ ____
ROOT
ATOM     12  C   UNL     1      -2.942   0.697  24.159  0.00  0.00    +0.010 A 
ATOM     13  C   UNL     1      -3.438   0.041  24.233  0.00  0.00    +0.058 A 
ATOM     14  C   UNL     1      -4.262   0.056  24.252  0.00  0.00    +0.052 C 
ATOM     15  N   UNL     1      -2.964  -0.632  24.285  0.00  0.00    -0.233 N 
ATOM     16  N   UNL     1      -2.175  -0.393  24.242  0.00  0.00    -0.170 NA
ATOM     17  C   UNL     1      -2.162   0.429  24.165  0.00  0.00    +0.077 A 
ATOM     18  C   UNL     1      -1.487   0.900  24.103  0.00  0.00    +0.054 C 
ENDROOT
BRANCH  15  19
ATOM     19  C   UNL     1      -3.230  -1.409  24.365  0.00  0.00    +0.105 A 
ATOM     20  C   UNL     1      -3.736  -1.731  23.797  0.00  0.00    +0.021 A 
ATOM     21  C   UNL     1      -4.003  -2.508  23.877  0.00  0.00    +0.002 A 
ATOM     22  C   UNL     1      -3.764  -2.962  24.523  0.00  0.00    +0.002 A 
ATOM     23  C   UNL     1      -3.259  -2.639  25.090  0.00  0.00    +0.026 A 
ATOM     24  C   UNL     1      -2.992  -1.863  25.011  0.00  0.00    +0.160 A 
BRANCH  24  25
ATOM     25  N   UNL     1      -2.487  -1.540  25.578  0.00  0.00    +0.059 N 
ATOM     26  O   UNL     1      -1.670  -1.608  25.488  0.00  0.00    -0.126 OA
ATOM     27  O   UNL     1      -2.798  -1.151  26.234  0.00  0.00    -0.126 OA
ENDBRANCH  24  25
ENDBRANCH  15  19
BRANCH  12   9
ATOM      7  C   UNL     1      -3.613   2.709  24.394  0.00  0.00    +0.119 C 
ATOM      8  C   UNL     1      -3.416   1.974  24.711  0.00  0.00    +0.035 C 
ATOM      9  C   UNL     1      -3.185   1.482  24.091  0.00  0.00    +0.048 C 
ATOM     10  C   UNL     1      -3.238   1.914  23.389  0.00  0.00    -0.025 C 
ATOM     11  C   UNL     1      -3.503   2.673  23.577  0.00  0.00    -0.009 C 
BRANCH   7   6
ATOM      3  N   UNL     1      -4.939   4.122  25.401  0.00  0.00    -0.187 NA
ATOM      4  C   UNL     1      -4.678   3.464  24.975  0.00  0.00    +0.339 C 
ATOM      5  O   UNL     1      -5.220   2.905  24.707  0.00  0.00    -0.249 OA
ATOM      6  N   UNL     1      -3.874   3.367  24.819  0.00  0.00    -0.184 NA
BRANCH   3   2
ATOM      1  C   UNL     1      -6.044   4.970  25.719  0.00  0.00    +0.025 C 
ATOM      2  C   UNL     1      -5.743   4.219  25.557  0.00  0.00    +0.117 C 
ENDBRANCH   3   2
ENDBRANCH   7   6
ENDBRANCH  12   9
TORSDOF 5
ENDMDL
