MODEL 1
REMARK VINA RESULT:     -11.7      0.000      0.000
REMARK  Name = 
REMARK  6 active torsions:
REMARK  status: ('A' for Active; 'I' for Inactive)
REMARK    1  A    between atoms: C_2  and  C_3
REMARK    2  A    between atoms: C_2  and  C_25
REMARK    3  A    between atoms: C_10  and  N_11
REMARK    4  A    between atoms: C_12  and  C_14
REMARK    5  A    between atoms: N_27  and  C_28
REMARK    6  A    between atoms: C_28  and  C_29
REMARK                            x       y       z     vdW  Elec       q    Type
REMARK                         _______ _______ _______ _____ _____    ______ ____
ROOT
ATOM      3  C   UNL     1      -4.492   2.784  24.568  0.00  0.00    +0.039 C 
ATOM      4  C   UNL     1      -5.130   2.734  25.090  0.00  0.00    +0.003 C 
ATOM      5  C   UNL     1      -5.383   1.998  25.361  0.00  0.00    +0.000 C 
ATOM      6  C   UNL     1      -5.000   1.312  25.112  0.00  0.00    +0.002 C 
ATOM      7  C   UNL     1      -5.636   1.262  25.633  0.00  0.00    +0.000 C 
ATOM      8  C   UNL     1      -5.253   0.575  25.383  0.00  0.00    +0.002 C 
ATOM      9  C   UNL     1      -4.870  -0.111  25.133  0.00  0.00    +0.022 C 
ATOM     10  C   UNL     1      -4.232  -0.060  24.611  0.00  0.00    +0.096 C 
ATOM     20  C   UNL     1      -3.979   0.676  24.339  0.00  0.00    +0.022 C 
ATOM     21  C   UNL     1      -3.341   0.726  23.818  0.00  0.00    +0.002 C 
ATOM     22  C   UNL     1      -4.362   1.362  24.589  0.00  0.00    +0.032 C 
ATOM     23  C   UNL     1      -4.109   2.099  24.318  0.00  0.00    +0.152 C 
ATOM     24  O   UNL     1      -3.472   2.149  23.796  0.00  0.00    -0.223 OA
ENDROOT
BRANCH  10  11
ATOM     11  N   UNL     1      -3.848  -0.747  24.361  0.00  0.00    -0.202 NA
ATOM     12  C   UNL     1      -3.589  -1.300  24.914  0.00  0.00    +0.284 C 
ATOM     13  O   UNL     1      -3.713  -1.167  25.720  0.00  0.00    -0.267 OA
BRANCH  12  14
ATOM     14  C   UNL     1      -3.206  -1.987  24.664  0.00  0.00    +0.155 A 
ATOM     15  C   UNL     1      -3.646  -2.642  24.428  0.00  0.00    +0.123 A 
ATOM     16  N   UNL     1      -3.262  -3.329  24.178  0.00  0.00    -0.239 NA
ATOM     17  C   UNL     1      -2.438  -3.359  24.165  0.00  0.00    +0.120 A 
ATOM     18  C   UNL     1      -1.997  -2.703  24.402  0.00  0.00    +0.120 A 
ATOM     19  N   UNL     1      -2.381  -2.017  24.652  0.00  0.00    -0.236 NA
ENDBRANCH  12  14
ENDBRANCH  10  11
BRANCH   3   2
ATOM      1  C   UNL     1      -4.415   3.762  23.527  0.00  0.00    +0.010 C 
ATOM      2  C   UNL     1      -4.239   3.522  24.297  0.00  0.00    +0.081 C 
BRANCH   2  25
ATOM     25  C   UNL     1      -3.809   4.019  24.796  0.00  0.00    +0.241 C 
ATOM     26  O   UNL     1      -4.200   4.467  25.368  0.00  0.00    -0.273 OA
ATOM     27  N   UNL     1      -2.988   4.068  24.722  0.00  0.00    -0.201 NA
BRANCH  27  28
ATOM     28  C   UNL     1      -2.559   4.565  25.221  0.00  0.00    +0.141 C 
BRANCH  28  29
ATOM     29  C   UNL     1      -1.739   4.612  25.150  0.00  0.00    -0.001 A 
ATOM     30  C   UNL     1      -1.388   5.302  24.863  0.00  0.00    -0.003 A 
ATOM     31  C   UNL     1      -0.568   5.348  24.792  0.00  0.00    -0.000 A 
ATOM     32  C   UNL     1      -0.097   4.706  25.009  0.00  0.00    -0.000 A 
ATOM     33  C   UNL     1      -0.448   4.017  25.296  0.00  0.00    -0.000 A 
ATOM     34  C   UNL     1      -1.269   3.969  25.367  0.00  0.00    -0.003 A 
ENDBRANCH  28  29
ENDBRANCH  27  28
ENDBRANCH   2  25
ENDBRANCH   3   2
TORSDOF 6
ENDMDL
MODEL 2
REMARK VINA RESULT:     -10.4      2.817      4.851
REMARK  Name = 
REMARK  6 active torsions:
REMARK  status: ('A' for Active; 'I' for Inactive)
REMARK    1  A    between atoms: C_2  and  C_3
REMARK    2  A    between atoms: C_2  and  C_25
REMARK    3  A    between atoms: C_10  and  N_11
REMARK    4  A    between atoms: C_12  and  C_14
REMARK    5  A    between atoms: N_27  and  C_28
REMARK    6  A    between atoms: C_28  and  C_29
REMARK                            x       y       z     vdW  Elec       q    Type
REMARK                         _______ _______ _______ _____ _____    ______ ____
ROOT
ATOM      3  C   UNL     1      -2.838   2.470  24.636  0.00  0.00    +0.039 C 
ATOM      4  C   UNL     1      -2.653   2.825  25.359  0.00  0.00    +0.003 C 
ATOM      5  C   UNL     1      -1.865   2.899  25.592  0.00  0.00    +0.000 C 
ATOM      6  C   UNL     1      -1.263   2.618  25.104  0.00  0.00    +0.002 C 
ATOM      7  C   UNL     1      -1.078   2.973  25.824  0.00  0.00    +0.000 C 
ATOM      8  C   UNL     1      -0.475   2.692  25.336  0.00  0.00    +0.002 C 
ATOM      9  C   UNL     1       0.128   2.411  24.849  0.00  0.00    +0.022 C 
ATOM     10  C   UNL     1      -0.057   2.056  24.126  0.00  0.00    +0.096 C 
ATOM     20  C   UNL     1      -0.845   1.983  23.893  0.00  0.00    +0.022 C 
ATOM     21  C   UNL     1      -1.030   1.628  23.172  0.00  0.00    +0.002 C 
ATOM     22  C   UNL     1      -1.448   2.263  24.381  0.00  0.00    +0.032 C 
ATOM     23  C   UNL     1      -2.236   2.190  24.148  0.00  0.00    +0.152 C 
ATOM     24  O   UNL     1      -2.421   1.835  23.427  0.00  0.00    -0.223 OA
ENDROOT
BRANCH  10  11
ATOM     11  N   UNL     1       0.546   1.776  23.638  0.00  0.00    -0.202 NA
ATOM     12  C   UNL     1       1.021   1.150  23.887  0.00  0.00    +0.284 C 
ATOM     13  O   UNL     1       0.893   0.803  24.626  0.00  0.00    -0.267 OA
BRANCH  12  14
ATOM     14  C   UNL     1       1.624   0.869  23.399  0.00  0.00    +0.155 A 
ATOM     15  C   UNL     1       1.497   0.208  22.924  0.00  0.00    +0.123 A 
ATOM     16  N   UNL     1       2.101  -0.073  22.436  0.00  0.00    -0.239 NA
ATOM     17  C   UNL     1       2.832   0.309  22.424  0.00  0.00    +0.120 A 
ATOM     18  C   UNL     1       2.960   0.971  22.900  0.00  0.00    +0.120 A 
ATOM     19  N   UNL     1       2.356   1.251  23.388  0.00  0.00    -0.236 NA
ENDBRANCH  12  14
ENDBRANCH  10  11
BRANCH   3   2
ATOM      1  C   UNL     1      -3.939   2.906  23.834  0.00  0.00    +0.010 C 
ATOM      2  C   UNL     1      -3.626   2.397  24.404  0.00  0.00    +0.081 C 
BRANCH   2  25
ATOM     25  C   UNL     1      -4.102   1.813  24.740  0.00  0.00    +0.241 C 
ATOM     26  O   UNL     1      -4.688   2.021  25.284  0.00  0.00    -0.273 OA
ATOM     27  N   UNL     1      -3.993   1.021  24.534  0.00  0.00    -0.201 NA
BRANCH  27  28
ATOM     28  C   UNL     1      -4.469   0.438  24.870  0.00  0.00    +0.141 C 
BRANCH  28  29
ATOM     29  C   UNL     1      -4.256  -0.356  24.807  0.00  0.00    -0.001 A 
ATOM     30  C   UNL     1      -4.439  -0.780  24.124  0.00  0.00    -0.003 A 
ATOM     31  C   UNL     1      -4.226  -1.574  24.062  0.00  0.00    -0.000 A 
ATOM     32  C   UNL     1      -3.828  -1.945  24.683  0.00  0.00    -0.000 A 
ATOM     33  C   UNL     1      -3.645  -1.521  25.366  0.00  0.00    -0.000 A 
ATOM     34  C   UNL     1      -3.858  -0.725  25.429  0.00  0.00    -0.003 A 
ENDBRANCH  28  29
ENDBRANCH  27  28
ENDBRANCH   2  25
ENDBRANCH   3   2
TORSDOF 6
ENDMDL
MODEL 3
REMARK VINA RESULT:     -10.2      2.629      4.466
REMARK  Name = 
REMARK  6 active torsions:
REMARK  status: ('A' for Active; 'I' for Inactive)
REMARK    1  A    between atoms: C_2  and  C_3
REMARK    2  A    between atoms: C_2  and  C_25
REMARK    3  A    between atoms: C_10  and  N_11
REMARK    4  A    between atoms: C_12  and  C_14
REMARK    5  A    between atoms: N_27  and  C_28
REMARK    6  A    between atoms: C_28  and  C_29
REMARK                            x       y       z     vdW  Elec       q    Type
REMARK                         _______ _______ _______ _____ _____    ______ ____
ROOT
ATOM      3  C   UNL     1      -2.017   3.598  25.428  0.00  0.00    +0.039 C 
ATOM      4  C   UNL     1      -1.718   3.543  26.197  0.00  0.00    +0.003 C 
ATOM      5  C   UNL     1      -1.033   3.109  26.342  0.00  0.00    +0.000 C 
ATOM      6  C   UNL     1      -0.645   2.729  25.721  0.00  0.00    +0.002 C 
ATOM      7  C   UNL     1      -0.347   2.675  26.487  0.00  0.00    +0.000 C 
ATOM      8  C   UNL     1       0.041   2.295  25.866  0.00  0.00    +0.002 C 
ATOM      9  C   UNL     1       0.428   1.915  25.245  0.00  0.00    +0.022 C 
ATOM     10  C   UNL     1       0.129   1.970  24.477  0.00  0.00    +0.096 C 
ATOM     20  C   UNL     1      -0.556   2.404  24.332  0.00  0.00    +0.022 C 
ATOM     21  C   UNL     1      -0.855   2.458  23.565  0.00  0.00    +0.002 C 
ATOM     22  C   UNL     1      -0.944   2.784  24.953  0.00  0.00    +0.032 C 
ATOM     23  C   UNL     1      -1.630   3.218  24.808  0.00  0.00    +0.152 C 
ATOM     24  O   UNL     1      -1.928   3.273  24.041  0.00  0.00    -0.223 OA
ENDROOT
BRANCH  10  11
ATOM     11  N   UNL     1       0.517   1.589  23.856  0.00  0.00    -0.202 NA
ATOM     12  C   UNL     1       0.626   0.772  23.876  0.00  0.00    +0.284 C 
ATOM     13  O   UNL     1       0.347   0.334  24.518  0.00  0.00    -0.267 OA
BRANCH  12  14
ATOM     14  C   UNL     1       1.014   0.392  23.255  0.00  0.00    +0.155 A 
ATOM     15  C   UNL     1       0.609  -0.150  22.784  0.00  0.00    +0.123 A 
ATOM     16  N   UNL     1       0.997  -0.530  22.163  0.00  0.00    -0.239 NA
ATOM     17  C   UNL     1       1.792  -0.367  22.013  0.00  0.00    +0.120 A 
ATOM     18  C   UNL     1       2.198   0.176  22.484  0.00  0.00    +0.120 A 
ATOM     19  N   UNL     1       1.809   0.555  23.104  0.00  0.00    -0.236 NA
ENDBRANCH  12  14
ENDBRANCH  10  11
BRANCH   3   2
ATOM      1  C   UNL     1      -2.691   4.658  24.746  0.00  0.00    +0.010 C 
ATOM      2  C   UNL     1      -2.703   4.032  25.283  0.00  0.00    +0.081 C 
BRANCH   2  25
ATOM     25  C   UNL     1      -3.403   3.841  25.676  0.00  0.00    +0.241 C 
ATOM     26  O   UNL     1      -3.579   4.194  26.402  0.00  0.00    -0.273 OA
ATOM     27  N   UNL     1      -3.927   3.296  25.344  0.00  0.00    -0.201 NA
BRANCH  27  28
ATOM     28  C   UNL     1      -4.626   3.105  25.737  0.00  0.00    +0.141 C 
BRANCH  28  29
ATOM     29  C   UNL     1      -5.107   2.498  25.453  0.00  0.00    -0.001 A 
ATOM     30  C   UNL     1      -4.798   1.740  25.350  0.00  0.00    -0.003 A 
ATOM     31  C   UNL     1      -5.279   1.134  25.066  0.00  0.00    -0.000 A 
ATOM     32  C   UNL     1      -6.069   1.284  24.884  0.00  0.00    -0.000 A 
ATOM     33  C   UNL     1      -6.378   2.042  24.986  0.00  0.00    -0.000 A 
ATOM     34  C   UNL     1      -5.897   2.650  25.271  0.00  0.00    -0.003 A 
ENDBRANCH  28  29
ENDBRANCH  27  28
ENDBRANCH   2  25
ENDBRANCH   3   2
TORSDOF 6
ENDMDL
MODEL 4
REMARK VINA RESULT:     -10.1      3.578      5.484
REMARK  Name = 
REMARK  6 active torsions:
REMARK  status: ('A' for Active; 'I' for Inactive)
REMARK    1  A    between atoms: C_2  and  C_3
REMARK    2  A    between atoms: C_2  and  C_25
REMARK    3  A    between atoms: C_10  and  N_11
REMARK    4  A    between atoms: C_12  and  C_14
REMARK    5  A    between atoms: N_27  and  C_28
REMARK    6  A    between atoms: C_28  and  C_29
REMARK                            x       y       z     vdW  Elec       q    Type
REMARK                         _______ _______ _______ _____ _____    ______ ____
ROOT
ATOM      3  C   UNL     1      -0.028   0.703  23.972  0.00  0.00    +0.039 C 
ATOM      4  C   UNL     1       0.389   1.414  24.030  0.00  0.00    +0.003 C 
ATOM      5  C   UNL     1       0.005   2.096  24.289  0.00  0.00    +0.000 C 
ATOM      6  C   UNL     1      -0.794   2.069  24.490  0.00  0.00    +0.002 C 
ATOM      7  C   UNL     1      -0.378   2.778  24.548  0.00  0.00    +0.000 C 
ATOM      8  C   UNL     1      -1.178   2.751  24.749  0.00  0.00    +0.002 C 
ATOM      9  C   UNL     1      -1.977   2.724  24.950  0.00  0.00    +0.022 C 
ATOM     10  C   UNL     1      -2.394   2.013  24.892  0.00  0.00    +0.096 C 
ATOM     20  C   UNL     1      -2.010   1.331  24.633  0.00  0.00    +0.022 C 
ATOM     21  C   UNL     1      -2.426   0.621  24.575  0.00  0.00    +0.002 C 
ATOM     22  C   UNL     1      -1.210   1.358  24.432  0.00  0.00    +0.032 C 
ATOM     23  C   UNL     1      -0.827   0.676  24.173  0.00  0.00    +0.152 C 
ATOM     24  O   UNL     1      -1.243  -0.034  24.115  0.00  0.00    -0.223 OA
ENDROOT
BRANCH  10  11
ATOM     11  N   UNL     1      -3.193   1.987  25.094  0.00  0.00    -0.202 NA
ATOM     12  C   UNL     1      -3.684   2.626  24.922  0.00  0.00    +0.284 C 
ATOM     13  O   UNL     1      -3.375   3.295  24.548  0.00  0.00    -0.267 OA
BRANCH  12  14
ATOM     14  C   UNL     1      -4.484   2.600  25.124  0.00  0.00    +0.155 A 
ATOM     15  C   UNL     1      -4.768   3.059  25.746  0.00  0.00    +0.123 A 
ATOM     16  N   UNL     1      -5.568   3.032  25.948  0.00  0.00    -0.239 NA
ATOM     17  C   UNL     1      -6.083   2.546  25.525  0.00  0.00    +0.120 A 
ATOM     18  C   UNL     1      -5.799   2.086  24.901  0.00  0.00    +0.120 A 
ATOM     19  N   UNL     1      -4.999   2.113  24.701  0.00  0.00    -0.236 NA
ENDBRANCH  12  14
ENDBRANCH  10  11
BRANCH   3   2
ATOM      1  C   UNL     1       0.205  -0.704  24.077  0.00  0.00    +0.010 C 
ATOM      2  C   UNL     1       0.357   0.020  23.712  0.00  0.00    +0.081 C 
BRANCH   2  25
ATOM     25  C   UNL     1       0.894   0.062  23.087  0.00  0.00    +0.241 C 
ATOM     26  O   UNL     1       0.620   0.102  22.309  0.00  0.00    -0.273 OA
ATOM     27  N   UNL     1       1.705   0.065  23.239  0.00  0.00    -0.201 NA
BRANCH  27  28
ATOM     28  C   UNL     1       2.242   0.107  22.615  0.00  0.00    +0.141 C 
BRANCH  28  29
ATOM     29  C   UNL     1       3.046   0.206  22.768  0.00  0.00    -0.001 A 
ATOM     30  C   UNL     1       3.413   0.925  22.600  0.00  0.00    -0.003 A 
ATOM     31  C   UNL     1       4.217   1.023  22.753  0.00  0.00    -0.000 A 
ATOM     32  C   UNL     1       4.656   0.402  23.074  0.00  0.00    -0.000 A 
ATOM     33  C   UNL     1       4.289  -0.317  23.242  0.00  0.00    -0.000 A 
ATOM     34  C   UNL     1       3.483  -0.416  23.089  0.00  0.00    -0.003 A 
ENDBRANCH  28  29
ENDBRANCH  27  28
ENDBRANCH   2  25
ENDBRANCH   3   2
TORSDOF 6
ENDMDL
MODEL 5
REMARK VINA RESULT:     -10.1      1.115      5.277
REMARK  Name = 
REMARK  6 active torsions:
REMARK  status: ('A' for Active; 'I' for Inactive)
REMARK    1  A    between atoms: C_2  and  C_3
REMARK    2  A    between atoms: C_2  and  C_25
REMARK    3  A    between atoms: C_10  and  N_11
REMARK    4  A    between atoms: C_12  and  C_14
REMARK    5  A    between atoms: N_27  and  C_28
REMARK    6  A    between atoms: C_28  and  C_29
REMARK                            x       y       z     vdW  Elec       q    Type
REMARK                         _______ _______ _______ _____ _____    ______ ____
ROOT
ATOM      3  C   UNL     1      -4.309   0.292  24.536  0.00  0.00    +0.039 C 
ATOM      4  C   UNL     1      -4.990   0.475  24.967  0.00  0.00    +0.003 C 
ATOM      5  C   UNL     1      -5.106   1.241  25.249  0.00  0.00    +0.000 C 
ATOM      6  C   UNL     1      -4.543   1.824  25.101  0.00  0.00    +0.002 C 
ATOM      7  C   UNL     1      -5.222   2.007  25.531  0.00  0.00    +0.000 C 
ATOM      8  C   UNL     1      -4.659   2.591  25.383  0.00  0.00    +0.002 C 
ATOM      9  C   UNL     1      -4.096   3.175  25.234  0.00  0.00    +0.022 C 
ATOM     10  C   UNL     1      -3.415   2.992  24.804  0.00  0.00    +0.096 C 
ATOM     20  C   UNL     1      -3.299   2.226  24.522  0.00  0.00    +0.022 C 
ATOM     21  C   UNL     1      -2.619   2.044  24.091  0.00  0.00    +0.002 C 
ATOM     22  C   UNL     1      -3.862   1.642  24.670  0.00  0.00    +0.032 C 
ATOM     23  C   UNL     1      -3.746   0.876  24.388  0.00  0.00    +0.152 C 
ATOM     24  O   UNL     1      -3.067   0.693  23.958  0.00  0.00    -0.223 OA
ENDROOT
BRANCH  10  11
ATOM     11  N   UNL     1      -2.852   3.577  24.656  0.00  0.00    -0.202 NA
ATOM     12  C   UNL     1      -2.464   3.945  25.283  0.00  0.00    +0.284 C 
ATOM     13  O   UNL     1      -2.640   3.729  26.061  0.00  0.00    -0.267 OA
BRANCH  12  14
ATOM     14  C   UNL     1      -1.901   4.530  25.135  0.00  0.00    +0.155 A 
ATOM     15  C   UNL     1      -2.116   5.325  25.156  0.00  0.00    +0.123 A 
ATOM     16  N   UNL     1      -1.553   5.910  25.008  0.00  0.00    -0.239 NA
ATOM     17  C   UNL     1      -0.774   5.698  24.839  0.00  0.00    +0.120 A 
ATOM     18  C   UNL     1      -0.558   4.901  24.817  0.00  0.00    +0.120 A 
ATOM     19  N   UNL     1      -1.122   4.318  24.966  0.00  0.00    -0.236 NA
ENDBRANCH  12  14
ENDBRANCH  10  11
BRANCH   3   2
ATOM      1  C   UNL     1      -4.434  -0.676  23.491  0.00  0.00    +0.010 C 
ATOM      2  C   UNL     1      -4.194  -0.475  24.254  0.00  0.00    +0.081 C 
BRANCH   2  25
ATOM     25  C   UNL     1      -3.837  -1.042  24.737  0.00  0.00    +0.241 C 
ATOM     26  O   UNL     1      -4.264  -1.385  25.354  0.00  0.00    -0.273 OA
ATOM     27  N   UNL     1      -3.054  -1.265  24.602  0.00  0.00    -0.201 NA
BRANCH  27  28
ATOM     28  C   UNL     1      -2.698  -1.831  25.083  0.00  0.00    +0.141 C 
BRANCH  28  29
ATOM     29  C   UNL     1      -1.878  -1.919  25.080  0.00  0.00    -0.001 A 
ATOM     30  C   UNL     1      -1.524  -2.476  24.585  0.00  0.00    -0.003 A 
ATOM     31  C   UNL     1      -0.705  -2.564  24.582  0.00  0.00    -0.000 A 
ATOM     32  C   UNL     1      -0.237  -2.095  25.074  0.00  0.00    -0.000 A 
ATOM     33  C   UNL     1      -0.591  -1.538  25.570  0.00  0.00    -0.000 A 
ATOM     34  C   UNL     1      -1.412  -1.450  25.573  0.00  0.00    -0.003 A 
ENDBRANCH  28  29
ENDBRANCH  27  28
ENDBRANCH   2  25
ENDBRANCH   3   2
TORSDOF 6
ENDMDL
MODEL 6
REMARK VINA RESULT:      -9.9      2.773      4.250
REMARK  Name = 
REMARK  6 active torsions:
REMARK  status: ('A' for Active; 'I' for Inactive)
REMARK    1  A    between atoms: C_2  and  C_3
REMARK    2  A    between atoms: C_2  and  C_25
REMARK    3  A    between atoms: C_10  and  N_11
REMARK    4  A    between atoms: C_12  and  C_14
REMARK    5  A    between atoms: N_27  and  C_28
REMARK    6  A    between atoms: C_28  and  C_29
REMARK                            x       y       z     vdW  Elec       q    Type
REMARK                         _______ _______ _______ _____ _____    ______ ____
ROOT
ATOM      3  C   UNL     1      -3.395  -0.087  24.778  0.00  0.00    +0.039 C 
ATOM      4  C   UNL     1      -3.283  -0.602  25.415  0.00  0.00    +0.003 C 
ATOM      5  C   UNL     1      -2.523  -0.847  25.617  0.00  0.00    +0.000 C 
ATOM      6  C   UNL     1      -1.874  -0.579  25.185  0.00  0.00    +0.002 C 
ATOM      7  C   UNL     1      -1.762  -1.093  25.820  0.00  0.00    +0.000 C 
ATOM      8  C   UNL     1      -1.113  -0.824  25.387  0.00  0.00    +0.002 C 
ATOM      9  C   UNL     1      -0.464  -0.556  24.955  0.00  0.00    +0.022 C 
ATOM     10  C   UNL     1      -0.576  -0.041  24.319  0.00  0.00    +0.096 C 
ATOM     20  C   UNL     1      -1.336   0.204  24.117  0.00  0.00    +0.022 C 
ATOM     21  C   UNL     1      -1.448   0.718  23.481  0.00  0.00    +0.002 C 
ATOM     22  C   UNL     1      -1.986  -0.064  24.549  0.00  0.00    +0.032 C 
ATOM     23  C   UNL     1      -2.747   0.181  24.346  0.00  0.00    +0.152 C 
ATOM     24  O   UNL     1      -2.858   0.695  23.711  0.00  0.00    -0.223 OA
ENDROOT
BRANCH  10  11
ATOM     11  N   UNL     1       0.074   0.227  23.887  0.00  0.00    -0.202 NA
ATOM     12  C   UNL     1       0.635  -0.310  23.609  0.00  0.00    +0.284 C 
ATOM     13  O   UNL     1       0.547  -1.116  23.764  0.00  0.00    -0.267 OA
BRANCH  12  14
ATOM     14  C   UNL     1       1.285  -0.041  23.177  0.00  0.00    +0.155 A 
ATOM     15  C   UNL     1       1.445  -0.358  22.433  0.00  0.00    +0.123 A 
ATOM     16  N   UNL     1       2.095  -0.090  22.001  0.00  0.00    -0.239 NA
ATOM     17  C   UNL     1       2.585   0.496  22.314  0.00  0.00    +0.120 A 
ATOM     18  C   UNL     1       2.424   0.813  23.059  0.00  0.00    +0.120 A 
ATOM     19  N   UNL     1       1.775   0.544  23.490  0.00  0.00    -0.236 NA
ENDBRANCH  12  14
ENDBRANCH  10  11
BRANCH   3   2
ATOM      1  C   UNL     1      -4.479  -0.051  23.846  0.00  0.00    +0.010 C 
ATOM      2  C   UNL     1      -4.157   0.158  24.576  0.00  0.00    +0.081 C 
BRANCH   2  25
ATOM     25  C   UNL     1      -4.597   0.614  25.105  0.00  0.00    +0.241 C 
ATOM     26  O   UNL     1      -5.024   0.248  25.709  0.00  0.00    -0.273 OA
ATOM     27  N   UNL     1      -4.610   1.436  25.030  0.00  0.00    -0.201 NA
BRANCH  27  28
ATOM     28  C   UNL     1      -5.049   1.891  25.558  0.00  0.00    +0.141 C 
BRANCH  28  29
ATOM     29  C   UNL     1      -4.993   2.714  25.541  0.00  0.00    -0.001 A 
ATOM     30  C   UNL     1      -4.257   3.079  25.619  0.00  0.00    -0.003 A 
ATOM     31  C   UNL     1      -4.201   3.901  25.602  0.00  0.00    -0.000 A 
ATOM     32  C   UNL     1      -4.881   4.360  25.506  0.00  0.00    -0.000 A 
ATOM     33  C   UNL     1      -5.616   3.995  25.427  0.00  0.00    -0.000 A 
ATOM     34  C   UNL     1      -5.672   3.171  25.445  0.00  0.00    -0.003 A 
ENDBRANCH  28  29
ENDBRANCH  27  28
ENDBRANCH   2  25
ENDBRANCH   3   2
TORSDOF 6
ENDMDL
MODEL 7
REMARK VINA RESULT:      -9.9      1.923      5.725
REMARK  Name = 
REMARK  6 active torsions:
REMARK  status: ('A' for Active; 'I' for Inactive)
REMARK    1  A    between atoms: C_2  and  C_3
REMARK    2  A    between atoms: C_2  and  C_25
REMARK    3  A    between atoms: C_10  and  N_11
REMARK    4  A    between atoms: C_12  and  C_14
REMARK    5  A    between atoms: N_27  and  C_28
REMARK    6  A    between atoms: C_28  and  C_29
REMARK                            x       y       z     vdW  Elec       q    Type
REMARK                         _______ _______ _______ _____ _____    ______ ____
ROOT
ATOM      3  C   UNL     1      -0.642   0.886  24.455  0.00  0.00    +0.039 C 
ATOM      4  C   UNL     1      -0.101   1.228  24.976  0.00  0.00    +0.003 C 
ATOM      5  C   UNL     1      -0.309   1.901  25.403  0.00  0.00    +0.000 C 
ATOM      6  C   UNL     1      -1.058   2.233  25.311  0.00  0.00    +0.002 C 
ATOM      7  C   UNL     1      -0.517   2.575  25.831  0.00  0.00    +0.000 C 
ATOM      8  C   UNL     1      -1.267   2.907  25.738  0.00  0.00    +0.002 C 
ATOM      9  C   UNL     1      -2.015   3.240  25.646  0.00  0.00    +0.022 C 
ATOM     10  C   UNL     1      -2.557   2.898  25.124  0.00  0.00    +0.096 C 
ATOM     20  C   UNL     1      -2.349   2.224  24.697  0.00  0.00    +0.022 C 
ATOM     21  C   UNL     1      -2.890   1.883  24.176  0.00  0.00    +0.002 C 
ATOM     22  C   UNL     1      -1.599   1.891  24.789  0.00  0.00    +0.032 C 
ATOM     23  C   UNL     1      -1.391   1.218  24.362  0.00  0.00    +0.152 C 
ATOM     24  O   UNL     1      -1.932   0.876  23.841  0.00  0.00    -0.223 OA
ENDROOT
BRANCH  10  11
ATOM     11  N   UNL     1      -3.307   3.230  25.032  0.00  0.00    -0.202 NA
ATOM     12  C   UNL     1      -3.766   3.403  25.694  0.00  0.00    +0.284 C 
ATOM     13  O   UNL     1      -3.477   3.242  26.450  0.00  0.00    -0.267 OA
BRANCH  12  14
ATOM     14  C   UNL     1      -4.516   3.736  25.601  0.00  0.00    +0.155 A 
ATOM     15  C   UNL     1      -5.186   3.313  25.829  0.00  0.00    +0.123 A 
ATOM     16  N   UNL     1      -5.936   3.646  25.736  0.00  0.00    -0.239 NA
ATOM     17  C   UNL     1      -6.014   4.402  25.415  0.00  0.00    +0.120 A 
ATOM     18  C   UNL     1      -5.343   4.826  25.187  0.00  0.00    +0.120 A 
ATOM     19  N   UNL     1      -4.594   4.492  25.280  0.00  0.00    -0.236 NA
ENDBRANCH  12  14
ENDBRANCH  10  11
BRANCH   3   2
ATOM      1  C   UNL     1      -0.155   0.282  23.253  0.00  0.00    +0.010 C 
ATOM      2  C   UNL     1      -0.433   0.212  24.027  0.00  0.00    +0.081 C 
BRANCH   2  25
ATOM     25  C   UNL     1      -0.502  -0.534  24.373  0.00  0.00    +0.241 C 
ATOM     26  O   UNL     1       0.150  -0.881  24.741  0.00  0.00    -0.273 OA
ATOM     27  N   UNL     1      -1.225  -0.933  24.352  0.00  0.00    -0.201 NA
BRANCH  27  28
ATOM     28  C   UNL     1      -1.294  -1.678  24.698  0.00  0.00    +0.141 C 
BRANCH  28  29
ATOM     29  C   UNL     1      -2.035  -2.034  24.768  0.00  0.00    -0.001 A 
ATOM     30  C   UNL     1      -2.525  -1.846  25.405  0.00  0.00    -0.003 A 
ATOM     31  C   UNL     1      -3.265  -2.202  25.474  0.00  0.00    -0.000 A 
ATOM     32  C   UNL     1      -3.517  -2.746  24.907  0.00  0.00    -0.000 A 
ATOM     33  C   UNL     1      -3.027  -2.933  24.270  0.00  0.00    -0.000 A 
ATOM     34  C   UNL     1      -2.285  -2.577  24.200  0.00  0.00    -0.003 A 
ENDBRANCH  28  29
ENDBRANCH  27  28
ENDBRANCH   2  25
ENDBRANCH   3   2
TORSDOF 6
ENDMDL
MODEL 8
REMARK VINA RESULT:      -9.8      2.199      6.376
REMARK  Name = 
REMARK  6 active torsions:
REMARK  status: ('A' for Active; 'I' for Inactive)
REMARK    1  A    between atoms: C_2  and  C_3
REMARK    2  A    between atoms: C_2  and  C_25
REMARK    3  A    between atoms: C_10  and  N_11
REMARK    4  A    between atoms: C_12  and  C_14
REMARK    5  A    between atoms: N_27  and  C_28
REMARK    6  A    between atoms: C_28  and  C_29
REMARK                            x       y       z     vdW  Elec       q    Type
REMARK                         _______ _______ _______ _____ _____    ______ ____
ROOT
ATOM      3  C   UNL     1      -0.511  -0.956  24.882  0.00  0.00    +0.039 C 
ATOM      4  C   UNL     1      -0.111  -1.039  24.164  0.00  0.00    +0.003 C 
ATOM      5  C   UNL     1       0.110  -0.370  23.736  0.00  0.00    +0.000 C 
ATOM      6  C   UNL     1      -0.068   0.381  24.024  0.00  0.00    +0.002 C 
ATOM      7  C   UNL     1       0.331   0.299  23.308  0.00  0.00    +0.000 C 
ATOM      8  C   UNL     1       0.153   1.051  23.596  0.00  0.00    +0.002 C 
ATOM      9  C   UNL     1      -0.025   1.803  23.884  0.00  0.00    +0.022 C 
ATOM     10  C   UNL     1      -0.425   1.886  24.602  0.00  0.00    +0.096 C 
ATOM     20  C   UNL     1      -0.646   1.217  25.030  0.00  0.00    +0.022 C 
ATOM     21  C   UNL     1      -1.045   1.300  25.747  0.00  0.00    +0.002 C 
ATOM     22  C   UNL     1      -0.468   0.464  24.742  0.00  0.00    +0.032 C 
ATOM     23  C   UNL     1      -0.689  -0.204  25.170  0.00  0.00    +0.152 C 
ATOM     24  O   UNL     1      -1.088  -0.121  25.887  0.00  0.00    -0.223 OA
ENDROOT
BRANCH  10  11
ATOM     11  N   UNL     1      -0.603   2.639  24.889  0.00  0.00    -0.202 NA
ATOM     12  C   UNL     1      -1.016   3.174  24.418  0.00  0.00    +0.284 C 
ATOM     13  O   UNL     1      -1.253   2.957  23.657  0.00  0.00    -0.267 OA
BRANCH  12  14
ATOM     14  C   UNL     1      -1.194   3.926  24.706  0.00  0.00    +0.155 A 
ATOM     15  C   UNL     1      -0.634   4.529  24.659  0.00  0.00    +0.123 A 
ATOM     16  N   UNL     1      -0.812   5.282  24.947  0.00  0.00    -0.239 NA
ATOM     17  C   UNL     1      -1.551   5.431  25.282  0.00  0.00    +0.120 A 
ATOM     18  C   UNL     1      -2.113   4.827  25.329  0.00  0.00    +0.120 A 
ATOM     19  N   UNL     1      -1.933   4.075  25.041  0.00  0.00    -0.236 NA
ENDBRANCH  12  14
ENDBRANCH  10  11
BRANCH   3   2
ATOM      1  C   UNL     1      -0.400  -1.771  26.052  0.00  0.00    +0.010 C 
ATOM      2  C   UNL     1      -0.732  -1.626  25.310  0.00  0.00    +0.081 C 
BRANCH   2  25
ATOM     25  C   UNL     1      -1.286  -2.151  24.997  0.00  0.00    +0.241 C 
ATOM     26  O   UNL     1      -1.035  -2.856  24.649  0.00  0.00    -0.273 OA
ATOM     27  N   UNL     1      -2.091  -1.971  25.032  0.00  0.00    -0.201 NA
BRANCH  27  28
ATOM     28  C   UNL     1      -2.644  -2.495  24.719  0.00  0.00    +0.141 C 
BRANCH  28  29
ATOM     29  C   UNL     1      -3.363  -2.213  24.429  0.00  0.00    -0.001 A 
ATOM     30  C   UNL     1      -3.677  -1.507  24.720  0.00  0.00    -0.003 A 
ATOM     31  C   UNL     1      -4.396  -1.226  24.430  0.00  0.00    -0.000 A 
ATOM     32  C   UNL     1      -4.802  -1.649  23.850  0.00  0.00    -0.000 A 
ATOM     33  C   UNL     1      -4.488  -2.355  23.559  0.00  0.00    -0.000 A 
ATOM     34  C   UNL     1      -3.768  -2.637  23.849  0.00  0.00    -0.003 A 
ENDBRANCH  28  29
ENDBRANCH  27  28
ENDBRANCH   2  25
ENDBRANCH   3   2
TORSDOF 6
ENDMDL
MODEL 9
REMARK VINA RESULT:      -9.5      2.077      3.512
REMARK  Name = 
REMARK  6 active torsions:
REMARK  status: ('A' for Active; 'I' for Inactive)
REMARK    1  A    between atoms: C_2  and  C_3
REMARK    2  A    between atoms: C_2  and  C_25
REMARK    3  A    between atoms: C_10  and  N_11
REMARK    4  A    between atoms: C_12  and  C_14
REMARK    5  A    between atoms: N_27  and  C_28
REMARK    6  A    between atoms: C_28  and  C_29
REMARK                            x       y       z     vdW  Elec       q    Type
REMARK                         _______ _______ _______ _____ _____    ______ ____
ROOT
ATOM      3  C   UNL     1      -0.213   2.101  25.283  0.00  0.00    +0.039 C 
ATOM      4  C   UNL     1       0.284   2.122  24.623  0.00  0.00    +0.003 C 
ATOM      5  C   UNL     1       0.316   1.476  24.112  0.00  0.00    +0.000 C 
ATOM      6  C   UNL     1      -0.146   0.810  24.258  0.00  0.00    +0.002 C 
ATOM      7  C   UNL     1       0.349   0.831  23.600  0.00  0.00    +0.000 C 
ATOM      8  C   UNL     1      -0.114   0.163  23.746  0.00  0.00    +0.002 C 
ATOM      9  C   UNL     1      -0.576  -0.503  23.893  0.00  0.00    +0.022 C 
ATOM     10  C   UNL     1      -1.073  -0.524  24.553  0.00  0.00    +0.096 C 
ATOM     20  C   UNL     1      -1.105   0.121  25.064  0.00  0.00    +0.022 C 
ATOM     21  C   UNL     1      -1.601   0.100  25.724  0.00  0.00    +0.002 C 
ATOM     22  C   UNL     1      -0.643   0.789  24.918  0.00  0.00    +0.032 C 
ATOM     23  C   UNL     1      -0.675   1.434  25.430  0.00  0.00    +0.152 C 
ATOM     24  O   UNL     1      -1.171   1.413  26.089  0.00  0.00    -0.223 OA
ENDROOT
BRANCH  10  11
ATOM     11  N   UNL     1      -1.536  -1.191  24.699  0.00  0.00    -0.202 NA
ATOM     12  C   UNL     1      -2.172  -1.369  24.206  0.00  0.00    +0.284 C 
ATOM     13  O   UNL     1      -2.346  -0.879  23.565  0.00  0.00    -0.267 OA
BRANCH  12  14
ATOM     14  C   UNL     1      -2.635  -2.036  24.352  0.00  0.00    +0.155 A 
ATOM     15  C   UNL     1      -3.456  -1.973  24.373  0.00  0.00    +0.123 A 
ATOM     16  N   UNL     1      -3.919  -2.640  24.519  0.00  0.00    -0.239 NA
ATOM     17  C   UNL     1      -3.559  -3.372  24.645  0.00  0.00    +0.120 A 
ATOM     18  C   UNL     1      -2.736  -3.436  24.625  0.00  0.00    +0.120 A 
ATOM     19  N   UNL     1      -2.274  -2.768  24.479  0.00  0.00    -0.236 NA
ENDBRANCH  12  14
ENDBRANCH  10  11
BRANCH   3   2
ATOM      1  C   UNL     1       0.161   2.727  26.513  0.00  0.00    +0.010 C 
ATOM      2  C   UNL     1      -0.245   2.747  25.795  0.00  0.00    +0.081 C 
BRANCH   2  25
ATOM     25  C   UNL     1      -0.685   3.414  25.589  0.00  0.00    +0.241 C 
ATOM     26  O   UNL     1      -0.310   4.068  25.252  0.00  0.00    -0.273 OA
ATOM     27  N   UNL     1      -1.500   3.428  25.720  0.00  0.00    -0.201 NA
BRANCH  27  28
ATOM     28  C   UNL     1      -1.939   4.095  25.514  0.00  0.00    +0.141 C 
BRANCH  28  29
ATOM     29  C   UNL     1      -2.758   4.041  25.432  0.00  0.00    -0.001 A 
ATOM     30  C   UNL     1      -3.094   3.957  24.684  0.00  0.00    -0.003 A 
ATOM     31  C   UNL     1      -3.913   3.904  24.603  0.00  0.00    -0.000 A 
ATOM     32  C   UNL     1      -4.396   3.933  25.271  0.00  0.00    -0.000 A 
ATOM     33  C   UNL     1      -4.060   4.016  26.020  0.00  0.00    -0.000 A 
ATOM     34  C   UNL     1      -3.240   4.070  26.101  0.00  0.00    -0.003 A 
ENDBRANCH  28  29
ENDBRANCH  27  28
ENDBRANCH   2  25
ENDBRANCH   3   2
TORSDOF 6
ENDMDL
MODEL 10
REMARK VINA RESULT:      -9.3      2.596      4.979
REMARK  Name = 
REMARK  6 active torsions:
REMARK  status: ('A' for Active; 'I' for Inactive)
REMARK    1  A    between atoms: C_2  and  C_3
REMARK    2  A    between atoms: C_2  and  C_25
REMARK    3  A    between atoms: C_10  and  N_11
REMARK    4  A    between atoms: C_12  and  C_14
REMARK    5  A    between atoms: N_27  and  C_28
REMARK    6  A    between atoms: C_28  and  C_29
REMARK                            x       y       z     vdW  Elec       q    Type
REMARK                         _______ _______ _______ _____ _____    ______ ____
ROOT
ATOM      3  C   UNL     1      -1.744  -1.098  24.694  0.00  0.00    +0.039 C 
ATOM      4  C   UNL     1      -2.269  -1.683  24.442  0.00  0.00    +0.003 C 
ATOM      5  C   UNL     1      -3.080  -1.533  24.430  0.00  0.00    +0.000 C 
ATOM      6  C   UNL     1      -3.366  -0.798  24.669  0.00  0.00    +0.002 C 
ATOM      7  C   UNL     1      -3.890  -1.382  24.417  0.00  0.00    +0.000 C 
ATOM      8  C   UNL     1      -4.177  -0.646  24.657  0.00  0.00    +0.002 C 
ATOM      9  C   UNL     1      -4.464   0.089  24.896  0.00  0.00    +0.022 C 
ATOM     10  C   UNL     1      -3.939   0.675  25.148  0.00  0.00    +0.096 C 
ATOM     20  C   UNL     1      -3.128   0.524  25.160  0.00  0.00    +0.022 C 
ATOM     21  C   UNL     1      -2.604   1.109  25.412  0.00  0.00    +0.002 C 
ATOM     22  C   UNL     1      -2.841  -0.212  24.921  0.00  0.00    +0.032 C 
ATOM     23  C   UNL     1      -2.031  -0.363  24.933  0.00  0.00    +0.152 C 
ATOM     24  O   UNL     1      -1.506   0.222  25.185  0.00  0.00    -0.223 OA
ENDROOT
BRANCH  10  11
ATOM     11  N   UNL     1      -4.226   1.410  25.387  0.00  0.00    -0.202 NA
ATOM     12  C   UNL     1      -4.817   1.784  24.951  0.00  0.00    +0.284 C 
ATOM     13  O   UNL     1      -5.123   1.422  24.275  0.00  0.00    -0.267 OA
BRANCH  12  14
ATOM     14  C   UNL     1      -5.105   2.520  25.191  0.00  0.00    +0.155 A 
ATOM     15  C   UNL     1      -5.746   2.565  25.707  0.00  0.00    +0.123 A 
ATOM     16  N   UNL     1      -6.033   3.300  25.946  0.00  0.00    -0.239 NA
ATOM     17  C   UNL     1      -5.678   3.991  25.668  0.00  0.00    +0.120 A 
ATOM     18  C   UNL     1      -5.036   3.947  25.151  0.00  0.00    +0.120 A 
ATOM     19  N   UNL     1      -4.750   3.211  24.913  0.00  0.00    -0.236 NA
ENDBRANCH  12  14
ENDBRANCH  10  11
BRANCH   3   2
ATOM      1  C   UNL     1      -0.555  -1.425  25.418  0.00  0.00    +0.010 C 
ATOM      2  C   UNL     1      -0.933  -1.249  24.706  0.00  0.00    +0.081 C 
BRANCH   2  25
ATOM     25  C   UNL     1      -0.499  -1.225  24.005  0.00  0.00    +0.241 C 
ATOM     26  O   UNL     1      -0.637  -1.786  23.414  0.00  0.00    -0.273 OA
ATOM     27  N   UNL     1       0.073  -0.641  23.893  0.00  0.00    -0.201 NA
BRANCH  27  28
ATOM     28  C   UNL     1       0.507  -0.617  23.193  0.00  0.00    +0.141 C 
BRANCH  28  29
ATOM     29  C   UNL     1       1.152  -0.108  23.123  0.00  0.00    -0.001 A 
ATOM     30  C   UNL     1       1.112   0.655  23.437  0.00  0.00    -0.003 A 
ATOM     31  C   UNL     1       1.757   1.163  23.367  0.00  0.00    -0.000 A 
ATOM     32  C   UNL     1       2.443   0.910  22.984  0.00  0.00    -0.000 A 
ATOM     33  C   UNL     1       2.483   0.148  22.671  0.00  0.00    -0.000 A 
ATOM     34  C   UNL     1       1.837  -0.361  22.740  0.00  0.00    -0.003 A 
ENDBRANCH  28  29
ENDBRANCH  27  28
ENDBRANCH   2  25
ENDBRANCH   3   2
TORSDOF 6
ENDMDL
