MODEL 1
REMARK VINA RESULT:     -10.5      0.000      0.000
REMARK  Name = 
REMARK  4 active torsions:
REMARK  status: ('A' for Active; 'I' for Inactive)
REMARK    1  A    between atoms: C_5  and  C_6
REMARK    2  A    between atoms: C_6  and  N_7
REMARK    3  A    between atoms: N_11  and  C_12
REMARK    4  A    between atoms: C_12  and  C_13
REMARK                            x       y       z     vdW  Elec       q    Type
REMARK                         _______ _______ _______ _____ _____    ______ ____
ROOT
ATOM      7  N   UNL     1      -3.891   0.269  24.901  0.00  0.00    -0.258 N 
ATOM      8  C   UNL     1      -3.079   0.356  24.782  0.00  0.00    +0.116 C 
ATOM      9  C   UNL     1      -2.942   1.125  24.517  0.00  0.00    +0.113 C 
ATOM     10  C   UNL     1      -2.249   1.523  24.311  0.00  0.00    +0.094 C 
ATOM     11  N   UNL     1      -2.282   2.307  24.060  0.00  0.00    -0.263 NA
ATOM     18  C   UNL     1      -3.009   2.695  24.015  0.00  0.00    +0.094 C 
ATOM     19  C   UNL     1      -3.702   2.299  24.221  0.00  0.00    +0.112 C 
ATOM     20  N   UNL     1      -3.668   1.513  24.472  0.00  0.00    -0.261 N 
ATOM     21  C   UNL     1      -4.255   0.984  24.709  0.00  0.00    +0.308 C 
ATOM     22  O   UNL     1      -5.064   1.142  24.748  0.00  0.00    -0.252 OA
ENDROOT
BRANCH   7   6
ATOM      6  C   UNL     1      -4.272  -0.413  25.165  0.00  0.00    +0.122 C 
BRANCH   6   5
ATOM      1  F   UNL     1      -3.326  -3.371  24.047  0.00  0.00    -0.204 F 
ATOM      2  C   UNL     1      -3.563  -2.631  24.326  0.00  0.00    +0.140 A 
ATOM      3  C   UNL     1      -4.067  -2.161  23.873  0.00  0.00    +0.029 A 
ATOM      4  C   UNL     1      -4.304  -1.422  24.152  0.00  0.00    -0.000 A 
ATOM      5  C   UNL     1      -4.036  -1.152  24.885  0.00  0.00    -0.002 A 
ATOM     23  C   UNL     1      -3.531  -1.623  25.338  0.00  0.00    -0.000 A 
ATOM     24  C   UNL     1      -3.295  -2.362  25.058  0.00  0.00    +0.029 A 
ENDBRANCH   6   5
ENDBRANCH   7   6
BRANCH  11  12
ATOM     12  C   UNL     1      -1.589   2.705  23.854  0.00  0.00    +0.139 C 
BRANCH  12  13
ATOM     13  C   UNL     1      -1.168   3.124  24.425  0.00  0.00    +0.155 A 
ATOM     14  N   UNL     1      -1.316   3.899  24.667  0.00  0.00    -0.226 NA
ATOM     15  C   UNL     1      -0.764   4.096  25.247  0.00  0.00    +0.121 A 
ATOM     16  C   UNL     1      -0.273   3.443  25.364  0.00  0.00    +0.121 A 
ATOM     17  N   UNL     1      -0.523   2.842  24.856  0.00  0.00    -0.226 NA
ENDBRANCH  12  13
ENDBRANCH  11  12
TORSDOF 4
ENDMDL
MODEL 2
REMARK VINA RESULT:     -10.3      1.416      1.768
REMARK  Name = 
REMARK  4 active torsions:
REMARK  status: ('A' for Active; 'I' for Inactive)
REMARK    1  A    between atoms: C_5  and  C_6
REMARK    2  A    between atoms: C_6  and  N_7
REMARK    3  A    between atoms: N_11  and  C_12
REMARK    4  A    between atoms: C_12  and  C_13
REMARK                            x       y       z     vdW  Elec       q    Type
REMARK                         _______ _______ _______ _____ _____    ______ ____
ROOT
ATOM      7  N   UNL     1      -2.455  -0.352  25.430  0.00  0.00    -0.258 N 
ATOM      8  C   UNL     1      -2.698   0.289  24.970  0.00  0.00    +0.116 C 
ATOM      9  C   UNL     1      -2.059   0.805  24.894  0.00  0.00    +0.113 C 
ATOM     10  C   UNL     1      -1.975   1.526  24.503  0.00  0.00    +0.094 C 
ATOM     11  N   UNL     1      -1.254   1.926  24.524  0.00  0.00    -0.263 NA
ATOM     18  C   UNL     1      -0.616   1.604  24.937  0.00  0.00    +0.094 C 
ATOM     19  C   UNL     1      -0.699   0.883  25.329  0.00  0.00    +0.112 C 
ATOM     20  N   UNL     1      -1.421   0.483  25.308  0.00  0.00    -0.261 N 
ATOM     21  C   UNL     1      -1.666  -0.231  25.638  0.00  0.00    +0.308 C 
ATOM     22  O   UNL     1      -1.203  -0.737  26.098  0.00  0.00    -0.252 OA
ENDROOT
BRANCH   7   6
ATOM      6  C   UNL     1      -2.919  -0.999  25.644  0.00  0.00    +0.122 C 
BRANCH   6   5
ATOM      1  F   UNL     1      -4.540  -2.706  23.331  0.00  0.00    -0.204 F 
ATOM      2  C   UNL     1      -4.135  -2.279  23.909  0.00  0.00    +0.140 A 
ATOM      3  C   UNL     1      -4.409  -1.537  24.142  0.00  0.00    +0.029 A 
ATOM      4  C   UNL     1      -4.004  -1.110  24.720  0.00  0.00    -0.000 A 
ATOM      5  C   UNL     1      -3.325  -1.425  25.066  0.00  0.00    -0.002 A 
ATOM     23  C   UNL     1      -3.050  -2.168  24.833  0.00  0.00    -0.000 A 
ATOM     24  C   UNL     1      -3.456  -2.594  24.254  0.00  0.00    +0.029 A 
ENDBRANCH   6   5
ENDBRANCH   7   6
BRANCH  11  12
ATOM     12  C   UNL     1      -1.170   2.647  24.132  0.00  0.00    +0.139 C 
BRANCH  12  13
ATOM     13  C   UNL     1      -1.268   3.355  24.544  0.00  0.00    +0.155 A 
ATOM     14  N   UNL     1      -1.988   3.707  24.738  0.00  0.00    -0.226 NA
ATOM     15  C   UNL     1      -1.829   4.405  25.148  0.00  0.00    +0.121 A 
ATOM     16  C   UNL     1      -1.009   4.484  25.208  0.00  0.00    +0.121 A 
ATOM     17  N   UNL     1      -0.663   3.835  24.834  0.00  0.00    -0.226 NA
ENDBRANCH  12  13
ENDBRANCH  11  12
TORSDOF 4
ENDMDL
MODEL 3
REMARK VINA RESULT:      -9.9      1.600      2.485
REMARK  Name = 
REMARK  4 active torsions:
REMARK  status: ('A' for Active; 'I' for Inactive)
REMARK    1  A    between atoms: C_5  and  C_6
REMARK    2  A    between atoms: C_6  and  N_7
REMARK    3  A    between atoms: N_11  and  C_12
REMARK    4  A    between atoms: C_12  and  C_13
REMARK                            x       y       z     vdW  Elec       q    Type
REMARK                         _______ _______ _______ _____ _____    ______ ____
ROOT
ATOM      7  N   UNL     1      -2.121  -0.121  25.193  0.00  0.00    -0.258 N 
ATOM      8  C   UNL     1      -2.859   0.130  24.921  0.00  0.00    +0.116 C 
ATOM      9  C   UNL     1      -2.824   0.945  24.805  0.00  0.00    +0.113 C 
ATOM     10  C   UNL     1      -3.385   1.491  24.543  0.00  0.00    +0.094 C 
ATOM     11  N   UNL     1      -3.187   2.289  24.481  0.00  0.00    -0.263 NA
ATOM     18  C   UNL     1      -2.428   2.542  24.681  0.00  0.00    +0.094 C 
ATOM     19  C   UNL     1      -1.866   1.998  24.942  0.00  0.00    +0.112 C 
ATOM     20  N   UNL     1      -2.065   1.199  25.005  0.00  0.00    -0.261 N 
ATOM     21  C   UNL     1      -1.630   0.540  25.244  0.00  0.00    +0.308 C 
ATOM     22  O   UNL     1      -0.843   0.541  25.492  0.00  0.00    -0.252 OA
ENDROOT
BRANCH   7   6
ATOM      6  C   UNL     1      -1.911  -0.897  25.379  0.00  0.00    +0.122 C 
BRANCH   6   5
ATOM      1  F   UNL     1      -3.828  -3.405  24.417  0.00  0.00    -0.204 F 
ATOM      2  C   UNL     1      -3.349  -2.778  24.658  0.00  0.00    +0.140 A 
ATOM      3  C   UNL     1      -3.529  -2.361  25.346  0.00  0.00    +0.029 A 
ATOM      4  C   UNL     1      -3.051  -1.734  25.587  0.00  0.00    -0.000 A 
ATOM      5  C   UNL     1      -2.391  -1.524  25.139  0.00  0.00    -0.002 A 
ATOM     23  C   UNL     1      -2.209  -1.940  24.450  0.00  0.00    -0.000 A 
ATOM     24  C   UNL     1      -2.689  -2.567  24.210  0.00  0.00    +0.029 A 
ENDBRANCH   6   5
ENDBRANCH   7   6
BRANCH  11  12
ATOM     12  C   UNL     1      -3.748   2.834  24.220  0.00  0.00    +0.139 C 
BRANCH  12  13
ATOM     13  C   UNL     1      -4.320   3.121  24.740  0.00  0.00    +0.155 A 
ATOM     14  N   UNL     1      -4.239   3.773  25.239  0.00  0.00    -0.226 NA
ATOM     15  C   UNL     1      -4.942   3.861  25.661  0.00  0.00    +0.121 A 
ATOM     16  C   UNL     1      -5.459   3.263  25.422  0.00  0.00    +0.121 A 
ATOM     17  N   UNL     1      -5.074   2.805  24.853  0.00  0.00    -0.226 NA
ENDBRANCH  12  13
ENDBRANCH  11  12
TORSDOF 4
ENDMDL
MODEL 4
REMARK VINA RESULT:      -9.9      2.624      3.749
REMARK  Name = 
REMARK  4 active torsions:
REMARK  status: ('A' for Active; 'I' for Inactive)
REMARK    1  A    between atoms: C_5  and  C_6
REMARK    2  A    between atoms: C_6  and  N_7
REMARK    3  A    between atoms: N_11  and  C_12
REMARK    4  A    between atoms: C_12  and  C_13
REMARK                            x       y       z     vdW  Elec       q    Type
REMARK                         _______ _______ _______ _____ _____    ______ ____
ROOT
ATOM      7  N   UNL     1      -3.516   2.521  24.192  0.00  0.00    -0.258 N 
ATOM      8  C   UNL     1      -3.107   2.180  24.823  0.00  0.00    +0.116 C 
ATOM      9  C   UNL     1      -2.419   1.837  24.524  0.00  0.00    +0.113 C 
ATOM     10  C   UNL     1      -1.805   1.424  24.887  0.00  0.00    +0.094 C 
ATOM     11  N   UNL     1      -1.175   1.139  24.437  0.00  0.00    -0.263 NA
ATOM     18  C   UNL     1      -1.160   1.267  23.622  0.00  0.00    +0.094 C 
ATOM     19  C   UNL     1      -1.774   1.680  23.258  0.00  0.00    +0.112 C 
ATOM     20  N   UNL     1      -2.404   1.965  23.709  0.00  0.00    -0.261 N 
ATOM     21  C   UNL     1      -3.082   2.388  23.504  0.00  0.00    +0.308 C 
ATOM     22  O   UNL     1      -3.289   2.635  22.744  0.00  0.00    -0.252 OA
ENDROOT
BRANCH   7   6
ATOM      6  C   UNL     1      -4.234   2.924  24.242  0.00  0.00    +0.122 C 
BRANCH   6   5
ATOM      1  F   UNL     1      -6.533   1.945  26.398  0.00  0.00    -0.204 F 
ATOM      2  C   UNL     1      -5.958   2.189  25.858  0.00  0.00    +0.140 A 
ATOM      3  C   UNL     1      -5.865   1.788  25.144  0.00  0.00    +0.029 A 
ATOM      4  C   UNL     1      -5.290   2.033  24.605  0.00  0.00    -0.000 A 
ATOM      5  C   UNL     1      -4.809   2.679  24.781  0.00  0.00    -0.002 A 
ATOM     23  C   UNL     1      -4.902   3.081  25.496  0.00  0.00    -0.000 A 
ATOM     24  C   UNL     1      -5.477   2.836  26.034  0.00  0.00    +0.029 A 
ENDBRANCH   6   5
ENDBRANCH   7   6
BRANCH  11  12
ATOM     12  C   UNL     1      -0.561   0.725  24.801  0.00  0.00    +0.139 C 
BRANCH  12  13
ATOM     13  C   UNL     1      -0.599  -0.095  24.870  0.00  0.00    +0.155 A 
ATOM     14  N   UNL     1      -0.322  -0.642  24.318  0.00  0.00    -0.226 NA
ATOM     15  C   UNL     1      -0.473  -1.399  24.610  0.00  0.00    +0.121 A 
ATOM     16  C   UNL     1      -0.844  -1.319  25.343  0.00  0.00    +0.121 A 
ATOM     17  N   UNL     1      -0.922  -0.514  25.504  0.00  0.00    -0.226 NA
ENDBRANCH  12  13
ENDBRANCH  11  12
TORSDOF 4
ENDMDL
MODEL 5
REMARK VINA RESULT:      -9.6      2.071      4.877
REMARK  Name = 
REMARK  4 active torsions:
REMARK  status: ('A' for Active; 'I' for Inactive)
REMARK    1  A    between atoms: C_5  and  C_6
REMARK    2  A    between atoms: C_6  and  N_7
REMARK    3  A    between atoms: N_11  and  C_12
REMARK    4  A    between atoms: C_12  and  C_13
REMARK                            x       y       z     vdW  Elec       q    Type
REMARK                         _______ _______ _______ _____ _____    ______ ____
ROOT
ATOM      7  N   UNL     1      -3.301   2.203  24.433  0.00  0.00    -0.258 N 
ATOM      8  C   UNL     1      -2.762   1.629  24.682  0.00  0.00    +0.116 C 
ATOM      9  C   UNL     1      -3.188   0.961  24.910  0.00  0.00    +0.113 C 
ATOM     10  C   UNL     1      -2.950   0.227  25.202  0.00  0.00    +0.094 C 
ATOM     11  N   UNL     1      -3.513  -0.346  25.385  0.00  0.00    -0.263 NA
ATOM     18  C   UNL     1      -4.315  -0.186  25.277  0.00  0.00    +0.094 C 
ATOM     19  C   UNL     1      -4.554   0.547  24.985  0.00  0.00    +0.112 C 
ATOM     20  N   UNL     1      -3.990   1.122  24.801  0.00  0.00    -0.261 N 
ATOM     21  C   UNL     1      -4.059   1.889  24.507  0.00  0.00    +0.308 C 
ATOM     22  O   UNL     1      -4.764   2.274  24.319  0.00  0.00    -0.252 OA
ENDROOT
BRANCH   7   6
ATOM      6  C   UNL     1      -3.113   2.958  24.159  0.00  0.00    +0.122 C 
BRANCH   6   5
ATOM      1  F   UNL     1      -0.692   4.683  25.594  0.00  0.00    -0.204 F 
ATOM      2  C   UNL     1      -1.298   4.252  25.236  0.00  0.00    +0.140 A 
ATOM      3  C   UNL     1      -2.075   4.335  25.498  0.00  0.00    +0.029 A 
ATOM      4  C   UNL     1      -2.681   3.904  25.139  0.00  0.00    -0.000 A 
ATOM      5  C   UNL     1      -2.508   3.389  24.518  0.00  0.00    -0.002 A 
ATOM     23  C   UNL     1      -1.730   3.306  24.255  0.00  0.00    -0.000 A 
ATOM     24  C   UNL     1      -1.125   3.737  24.614  0.00  0.00    +0.029 A 
ENDBRANCH   6   5
ENDBRANCH   7   6
BRANCH  11  12
ATOM     12  C   UNL     1      -3.276  -1.081  25.677  0.00  0.00    +0.139 C 
BRANCH  12  13
ATOM     13  C   UNL     1      -3.168  -1.715  25.161  0.00  0.00    +0.155 A 
ATOM     14  N   UNL     1      -3.751  -2.241  24.910  0.00  0.00    -0.226 NA
ATOM     15  C   UNL     1      -3.401  -2.786  24.399  0.00  0.00    +0.121 A 
ATOM     16  C   UNL     1      -2.600  -2.597  24.335  0.00  0.00    +0.121 A 
ATOM     17  N   UNL     1      -2.456  -1.935  24.806  0.00  0.00    -0.226 NA
ENDBRANCH  12  13
ENDBRANCH  11  12
TORSDOF 4
ENDMDL
MODEL 6
REMARK VINA RESULT:      -9.4      2.433      5.210
REMARK  Name = 
REMARK  4 active torsions:
REMARK  status: ('A' for Active; 'I' for Inactive)
REMARK    1  A    between atoms: C_5  and  C_6
REMARK    2  A    between atoms: C_6  and  N_7
REMARK    3  A    between atoms: N_11  and  C_12
REMARK    4  A    between atoms: C_12  and  C_13
REMARK                            x       y       z     vdW  Elec       q    Type
REMARK                         _______ _______ _______ _____ _____    ______ ____
ROOT
ATOM      7  N   UNL     1      -1.440   1.586  24.697  0.00  0.00    -0.258 N 
ATOM      8  C   UNL     1      -2.218   1.340  24.817  0.00  0.00    +0.116 C 
ATOM      9  C   UNL     1      -2.205   0.538  25.010  0.00  0.00    +0.113 C 
ATOM     10  C   UNL     1      -2.808   0.003  25.186  0.00  0.00    +0.094 C 
ATOM     11  N   UNL     1      -2.624  -0.782  25.361  0.00  0.00    -0.263 NA
ATOM     18  C   UNL     1      -1.838  -1.032  25.359  0.00  0.00    +0.094 C 
ATOM     19  C   UNL     1      -1.235  -0.497  25.183  0.00  0.00    +0.112 C 
ATOM     20  N   UNL     1      -1.419   0.288  25.008  0.00  0.00    -0.261 N 
ATOM     21  C   UNL     1      -0.946   0.935  24.814  0.00  0.00    +0.308 C 
ATOM     22  O   UNL     1      -0.123   0.933  24.750  0.00  0.00    -0.252 OA
ENDROOT
BRANCH   7   6
ATOM      6  C   UNL     1      -1.198   2.348  24.494  0.00  0.00    +0.122 C 
BRANCH   6   5
ATOM      1  F   UNL     1      -2.534   4.962  26.001  0.00  0.00    -0.204 F 
ATOM      2  C   UNL     1      -2.199   4.308  25.624  0.00  0.00    +0.140 A 
ATOM      3  C   UNL     1      -1.556   3.920  25.964  0.00  0.00    +0.029 A 
ATOM      4  C   UNL     1      -1.222   3.267  25.588  0.00  0.00    -0.000 A 
ATOM      5  C   UNL     1      -1.531   3.001  24.871  0.00  0.00    -0.002 A 
ATOM     23  C   UNL     1      -2.175   3.389  24.530  0.00  0.00    -0.000 A 
ATOM     24  C   UNL     1      -2.509   4.043  24.907  0.00  0.00    +0.029 A 
ENDBRANCH   6   5
ENDBRANCH   7   6
BRANCH  11  12
ATOM     12  C   UNL     1      -3.227  -1.317  25.538  0.00  0.00    +0.139 C 
BRANCH  12  13
ATOM     13  C   UNL     1      -3.532  -1.805  24.947  0.00  0.00    +0.155 A 
ATOM     14  N   UNL     1      -4.084  -1.585  24.374  0.00  0.00    -0.226 NA
ATOM     15  C   UNL     1      -4.233  -2.243  23.898  0.00  0.00    +0.121 A 
ATOM     16  C   UNL     1      -3.773  -2.869  24.177  0.00  0.00    +0.121 A 
ATOM     17  N   UNL     1      -3.341  -2.598  24.826  0.00  0.00    -0.226 NA
ENDBRANCH  12  13
ENDBRANCH  11  12
TORSDOF 4
ENDMDL
