MODEL 1
REMARK VINA RESULT:      -8.4      0.000      0.000
REMARK  Name = 
REMARK  7 active torsions:
REMARK  status: ('A' for Active; 'I' for Inactive)
REMARK    1  A    between atoms: C_2  and  C_4
REMARK    2  A    between atoms: C_4  and  C_5
REMARK    3  A    between atoms: C_5  and  C_6
REMARK    4  A    between atoms: N_8  and  C_9
REMARK    5  A    between atoms: C_13  and  N_17
REMARK    6  A    between atoms: C_21  and  O_22
REMARK    7  A    between atoms: O_22  and  C_23
REMARK                            x       y       z     vdW  Elec       q    Type
REMARK                         _______ _______ _______ _____ _____    ______ ____
ROOT
ATOM      9  C   UNL     1       0.591   0.614  23.676  0.00  0.00    +0.154 C 
ATOM     10  C   UNL     1       0.214  -0.016  23.300  0.00  0.00    +0.166 C 
ATOM     11  O   UNL     1      -0.502  -0.152  23.687  0.00  0.00    -0.350 OA
ATOM     12  C   UNL     1      -0.568   0.393  24.302  0.00  0.00    +0.169 C 
ATOM     13  C   UNL     1      -1.051   0.647  24.922  0.00  0.00    +0.170 C 
ATOM     14  C   UNL     1      -0.674   1.276  25.298  0.00  0.00    +0.169 C 
ATOM     15  O   UNL     1       0.042   1.412  24.911  0.00  0.00    -0.350 OA
ATOM     16  C   UNL     1       0.108   0.867  24.296  0.00  0.00    +0.167 C 
ENDROOT
BRANCH  13  17
ATOM     17  N   UNL     1      -1.782   0.326  25.128  0.00  0.00    -0.180 N 
ATOM     18  N   UNL     1      -1.907  -0.409  25.481  0.00  0.00    -0.040 NA
ATOM     19  N   UNL     1      -2.721  -0.505  25.588  0.00  0.00    -0.020 NA
ATOM     20  N   UNL     1      -3.097   0.170  25.301  0.00  0.00    -0.071 NA
ATOM     21  C   UNL     1      -2.518   0.684  25.016  0.00  0.00    +0.343 A 
BRANCH  21  22
ATOM     22  O   UNL     1      -2.649   1.425  24.680  0.00  0.00    -0.421 OA
BRANCH  22  23
ATOM     23  C   UNL     1      -3.396   1.774  24.730  0.00  0.00    +0.152 A 
ATOM     24  C   UNL     1      -3.994   1.545  24.211  0.00  0.00    +0.041 A 
ATOM     25  C   UNL     1      -4.739   1.894  24.261  0.00  0.00    +0.043 A 
ATOM     26  C   UNL     1      -4.888   2.472  24.831  0.00  0.00    +0.177 A 
ATOM     27  O   UNL     1      -5.562   2.910  25.012  0.00  0.00    -0.435 OA
ATOM     28  C   UNL     1      -5.381   3.409  25.643  0.00  0.00    +0.429 C 
ATOM     29  O   UNL     1      -4.594   3.280  25.852  0.00  0.00    -0.435 OA
ATOM     30  C   UNL     1      -4.289   2.701  25.351  0.00  0.00    +0.179 A 
ATOM     31  C   UNL     1      -3.542   2.352  25.301  0.00  0.00    +0.078 A 
ENDBRANCH  22  23
ENDBRANCH  21  22
ENDBRANCH  13  17
BRANCH   9   8
ATOM      6  C   UNL     1       1.861   0.486  23.035  0.00  0.00    +0.242 C 
ATOM      7  O   UNL     1       1.669  -0.283  22.807  0.00  0.00    -0.273 OA
ATOM      8  N   UNL     1       1.323   0.935  23.470  0.00  0.00    -0.202 NA
BRANCH   6   5
ATOM      5  C   UNL     1       2.593   0.808  22.829  0.00  0.00    +0.099 C 
BRANCH   5   4
ATOM      4  C   UNL     1       3.274   0.343  22.874  0.00  0.00    +0.124 C 
BRANCH   4   2
ATOM      1  O   UNL     1       4.506   0.845  23.396  0.00  0.00    -0.246 OA
ATOM      2  C   UNL     1       4.014   0.685  22.752  0.00  0.00    +0.365 C 
ATOM      3  O   UNL     1       4.264   0.868  21.988  0.00  0.00    -0.246 OA
ENDBRANCH   4   2
ENDBRANCH   5   4
ENDBRANCH   6   5
ENDBRANCH   9   8
TORSDOF 7
ENDMDL
MODEL 2
REMARK VINA RESULT:      -8.3      2.589      4.434
REMARK  Name = 
REMARK  7 active torsions:
REMARK  status: ('A' for Active; 'I' for Inactive)
REMARK    1  A    between atoms: C_2  and  C_4
REMARK    2  A    between atoms: C_4  and  C_5
REMARK    3  A    between atoms: C_5  and  C_6
REMARK    4  A    between atoms: N_8  and  C_9
REMARK    5  A    between atoms: C_13  and  N_17
REMARK    6  A    between atoms: C_21  and  O_22
REMARK    7  A    between atoms: O_22  and  C_23
REMARK                            x       y       z     vdW  Elec       q    Type
REMARK                         _______ _______ _______ _____ _____    ______ ____
ROOT
ATOM      9  C   UNL     1      -1.415  -0.627  25.044  0.00  0.00    +0.154 C 
ATOM     10  C   UNL     1      -1.375  -0.483  25.856  0.00  0.00    +0.166 C 
ATOM     11  O   UNL     1      -0.994   0.241  25.968  0.00  0.00    -0.350 OA
ATOM     12  C   UNL     1      -0.799   0.544  25.226  0.00  0.00    +0.169 C 
ATOM     13  C   UNL     1      -0.444   1.179  24.836  0.00  0.00    +0.170 C 
ATOM     14  C   UNL     1      -0.484   1.034  24.024  0.00  0.00    +0.169 C 
ATOM     15  O   UNL     1      -0.864   0.311  23.913  0.00  0.00    -0.350 OA
ATOM     16  C   UNL     1      -1.059   0.008  24.655  0.00  0.00    +0.167 C 
ENDROOT
BRANCH  13  17
ATOM     17  N   UNL     1      -0.107   1.841  25.195  0.00  0.00    -0.180 N 
ATOM     18  N   UNL     1       0.583   1.850  25.646  0.00  0.00    -0.040 NA
ATOM     19  N   UNL     1       0.714   2.626  25.896  0.00  0.00    -0.020 NA
ATOM     20  N   UNL     1       0.104   3.095  25.599  0.00  0.00    -0.071 NA
ATOM     21  C   UNL     1      -0.403   2.611  25.167  0.00  0.00    +0.343 A 
BRANCH  21  22
ATOM     22  O   UNL     1      -1.087   2.852  24.774  0.00  0.00    -0.421 OA
BRANCH  22  23
ATOM     23  C   UNL     1      -1.545   3.466  25.083  0.00  0.00    +0.152 A 
ATOM     24  C   UNL     1      -1.327   4.251  24.949  0.00  0.00    +0.041 A 
ATOM     25  C   UNL     1      -1.784   4.863  25.258  0.00  0.00    +0.043 A 
ATOM     26  C   UNL     1      -2.460   4.693  25.700  0.00  0.00    +0.177 A 
ATOM     27  O   UNL     1      -3.014   5.177  26.071  0.00  0.00    -0.435 OA
ATOM     28  C   UNL     1      -3.575   4.693  26.433  0.00  0.00    +0.429 C 
ATOM     29  O   UNL     1      -3.367   3.908  26.286  0.00  0.00    -0.435 OA
ATOM     30  C   UNL     1      -2.678   3.908  25.833  0.00  0.00    +0.179 A 
ATOM     31  C   UNL     1      -2.220   3.294  25.524  0.00  0.00    +0.078 A 
ENDBRANCH  22  23
ENDBRANCH  21  22
ENDBRANCH  13  17
BRANCH   9   8
ATOM      6  C   UNL     1      -2.459  -1.599  24.975  0.00  0.00    +0.242 C 
ATOM      7  O   UNL     1      -2.830  -1.248  25.622  0.00  0.00    -0.273 OA
ATOM      8  N   UNL     1      -1.751  -1.289  24.685  0.00  0.00    -0.202 NA
BRANCH   6   5
ATOM      5  C   UNL     1      -2.795  -2.262  24.615  0.00  0.00    +0.099 C 
BRANCH   5   4
ATOM      4  C   UNL     1      -3.614  -2.363  24.623  0.00  0.00    +0.124 C 
BRANCH   4   2
ATOM      1  O   UNL     1      -3.816  -3.673  24.089  0.00  0.00    -0.246 OA
ATOM      2  C   UNL     1      -3.973  -2.863  24.073  0.00  0.00    +0.365 C 
ATOM      3  O   UNL     1      -4.488  -2.554  23.508  0.00  0.00    -0.246 OA
ENDBRANCH   4   2
ENDBRANCH   5   4
ENDBRANCH   6   5
ENDBRANCH   9   8
TORSDOF 7
ENDMDL
MODEL 3
REMARK VINA RESULT:      -8.3      3.855      4.970
REMARK  Name = 
REMARK  7 active torsions:
REMARK  status: ('A' for Active; 'I' for Inactive)
REMARK    1  A    between atoms: C_2  and  C_4
REMARK    2  A    between atoms: C_4  and  C_5
REMARK    3  A    between atoms: C_5  and  C_6
REMARK    4  A    between atoms: N_8  and  C_9
REMARK    5  A    between atoms: C_13  and  N_17
REMARK    6  A    between atoms: C_21  and  O_22
REMARK    7  A    between atoms: O_22  and  C_23
REMARK                            x       y       z     vdW  Elec       q    Type
REMARK                         _______ _______ _______ _____ _____    ______ ____
ROOT
ATOM      9  C   UNL     1      -3.351   3.758  25.202  0.00  0.00    +0.154 C 
ATOM     10  C   UNL     1      -3.648   3.571  25.949  0.00  0.00    +0.166 C 
ATOM     11  O   UNL     1      -4.153   2.923  25.867  0.00  0.00    -0.350 OA
ATOM     12  C   UNL     1      -4.168   2.709  25.071  0.00  0.00    +0.169 C 
ATOM     13  C   UNL     1      -4.489   2.178  24.528  0.00  0.00    +0.170 C 
ATOM     14  C   UNL     1      -4.192   2.365  23.781  0.00  0.00    +0.169 C 
ATOM     15  O   UNL     1      -3.688   3.013  23.863  0.00  0.00    -0.350 OA
ATOM     16  C   UNL     1      -3.673   3.226  24.659  0.00  0.00    +0.167 C 
ENDROOT
BRANCH  13  17
ATOM     17  N   UNL     1      -5.014   1.566  24.702  0.00  0.00    -0.180 N 
ATOM     18  N   UNL     1      -5.807   1.652  24.912  0.00  0.00    -0.040 NA
ATOM     19  N   UNL     1      -6.122   0.899  25.036  0.00  0.00    -0.020 NA
ATOM     20  N   UNL     1      -5.523   0.348  24.903  0.00  0.00    -0.071 NA
ATOM     21  C   UNL     1      -4.839   0.759  24.696  0.00  0.00    +0.343 A 
BRANCH  21  22
ATOM     22  O   UNL     1      -4.107   0.425  24.515  0.00  0.00    -0.421 OA
BRANCH  22  23
ATOM     23  C   UNL     1      -3.960  -0.367  24.696  0.00  0.00    +0.152 A 
ATOM     24  C   UNL     1      -3.696  -0.576  25.450  0.00  0.00    +0.041 A 
ATOM     25  C   UNL     1      -3.549  -1.367  25.630  0.00  0.00    +0.043 A 
ATOM     26  C   UNL     1      -3.667  -1.950  25.058  0.00  0.00    +0.177 A 
ATOM     27  O   UNL     1      -3.569  -2.769  25.075  0.00  0.00    -0.435 OA
ATOM     28  C   UNL     1      -3.773  -3.066  24.333  0.00  0.00    +0.429 C 
ATOM     29  O   UNL     1      -3.997  -2.431  23.857  0.00  0.00    -0.435 OA
ATOM     30  C   UNL     1      -3.931  -1.741  24.305  0.00  0.00    +0.179 A 
ATOM     31  C   UNL     1      -4.078  -0.949  24.124  0.00  0.00    +0.078 A 
ENDBRANCH  22  23
ENDBRANCH  21  22
ENDBRANCH  13  17
BRANCH   9   8
ATOM      6  C   UNL     1      -2.103   4.416  25.423  0.00  0.00    +0.242 C 
ATOM      7  O   UNL     1      -1.905   3.851  25.990  0.00  0.00    -0.273 OA
ATOM      8  N   UNL     1      -2.826   4.370  25.028  0.00  0.00    -0.202 NA
BRANCH   6   5
ATOM      5  C   UNL     1      -1.577   5.028  25.248  0.00  0.00    +0.099 C 
BRANCH   5   4
ATOM      4  C   UNL     1      -0.799   4.854  25.037  0.00  0.00    +0.124 C 
BRANCH   4   2
ATOM      1  O   UNL     1      -0.082   4.991  23.808  0.00  0.00    -0.246 OA
ATOM      2  C   UNL     1      -0.406   5.328  24.488  0.00  0.00    +0.365 C 
ATOM      3  O   UNL     1      -0.337   6.140  24.619  0.00  0.00    -0.246 OA
ENDBRANCH   4   2
ENDBRANCH   5   4
ENDBRANCH   6   5
ENDBRANCH   9   8
TORSDOF 7
ENDMDL
MODEL 4
REMARK VINA RESULT:      -8.1      1.172      6.246
REMARK  Name = 
REMARK  7 active torsions:
REMARK  status: ('A' for Active; 'I' for Inactive)
REMARK    1  A    between atoms: C_2  and  C_4
REMARK    2  A    between atoms: C_4  and  C_5
REMARK    3  A    between atoms: C_5  and  C_6
REMARK    4  A    between atoms: N_8  and  C_9
REMARK    5  A    between atoms: C_13  and  N_17
REMARK    6  A    between atoms: C_21  and  O_22
REMARK    7  A    between atoms: O_22  and  C_23
REMARK                            x       y       z     vdW  Elec       q    Type
REMARK                         _______ _______ _______ _____ _____    ______ ____
ROOT
ATOM      9  C   UNL     1      -2.992   1.366  24.472  0.00  0.00    +0.154 C 
ATOM     10  C   UNL     1      -3.179   0.711  24.006  0.00  0.00    +0.166 C 
ATOM     11  O   UNL     1      -2.535   0.194  24.024  0.00  0.00    -0.350 OA
ATOM     12  C   UNL     1      -1.951   0.529  24.501  0.00  0.00    +0.169 C 
ATOM     13  C   UNL     1      -1.193   0.417  24.807  0.00  0.00    +0.170 C 
ATOM     14  C   UNL     1      -1.007   1.072  25.273  0.00  0.00    +0.169 C 
ATOM     15  O   UNL     1      -1.650   1.588  25.255  0.00  0.00    -0.350 OA
ATOM     16  C   UNL     1      -2.234   1.253  24.778  0.00  0.00    +0.167 C 
ENDROOT
BRANCH  13  17
ATOM     17  N   UNL     1      -0.707  -0.235  24.670  0.00  0.00    -0.180 N 
ATOM     18  N   UNL     1      -0.757  -0.966  25.050  0.00  0.00    -0.040 NA
ATOM     19  N   UNL     1      -0.166  -1.454  24.744  0.00  0.00    -0.020 NA
ATOM     20  N   UNL     1       0.248  -1.025  24.174  0.00  0.00    -0.071 NA
ATOM     21  C   UNL     1      -0.086  -0.272  24.128  0.00  0.00    +0.343 A 
BRANCH  21  22
ATOM     22  O   UNL     1       0.158   0.338  23.629  0.00  0.00    -0.421 OA
BRANCH  22  23
ATOM     23  C   UNL     1       0.878   0.279  23.228  0.00  0.00    +0.152 A 
ATOM     24  C   UNL     1       0.941  -0.205  22.563  0.00  0.00    +0.041 A 
ATOM     25  C   UNL     1       1.659  -0.264  22.163  0.00  0.00    +0.043 A 
ATOM     26  C   UNL     1       2.315   0.162  22.427  0.00  0.00    +0.177 A 
ATOM     27  O   UNL     1       3.089   0.215  22.147  0.00  0.00    -0.435 OA
ATOM     28  C   UNL     1       3.504   0.731  22.638  0.00  0.00    +0.429 C 
ATOM     29  O   UNL     1       2.986   0.998  23.222  0.00  0.00    -0.435 OA
ATOM     30  C   UNL     1       2.252   0.647  23.091  0.00  0.00    +0.179 A 
ATOM     31  C   UNL     1       1.532   0.705  23.493  0.00  0.00    +0.078 A 
ENDBRANCH  22  23
ENDBRANCH  21  22
ENDBRANCH  13  17
BRANCH   9   8
ATOM      6  C   UNL     1      -4.293   1.915  24.687  0.00  0.00    +0.242 C 
ATOM      7  O   UNL     1      -4.621   1.161  24.628  0.00  0.00    -0.273 OA
ATOM      8  N   UNL     1      -3.478   2.018  24.609  0.00  0.00    -0.202 NA
BRANCH   6   5
ATOM      5  C   UNL     1      -4.779   2.569  24.824  0.00  0.00    +0.099 C 
BRANCH   5   4
ATOM      4  C   UNL     1      -5.472   2.481  25.263  0.00  0.00    +0.124 C 
BRANCH   4   2
ATOM      1  O   UNL     1      -5.811   3.857  25.444  0.00  0.00    -0.246 OA
ATOM      2  C   UNL     1      -5.731   3.094  25.749  0.00  0.00    +0.365 C 
ATOM      3  O   UNL     1      -5.910   2.946  26.541  0.00  0.00    -0.246 OA
ENDBRANCH   4   2
ENDBRANCH   5   4
ENDBRANCH   6   5
ENDBRANCH   9   8
TORSDOF 7
ENDMDL
MODEL 5
REMARK VINA RESULT:      -8.1      1.872      2.495
REMARK  Name = 
REMARK  7 active torsions:
REMARK  status: ('A' for Active; 'I' for Inactive)
REMARK    1  A    between atoms: C_2  and  C_4
REMARK    2  A    between atoms: C_4  and  C_5
REMARK    3  A    between atoms: C_5  and  C_6
REMARK    4  A    between atoms: N_8  and  C_9
REMARK    5  A    between atoms: C_13  and  N_17
REMARK    6  A    between atoms: C_21  and  O_22
REMARK    7  A    between atoms: O_22  and  C_23
REMARK                            x       y       z     vdW  Elec       q    Type
REMARK                         _______ _______ _______ _____ _____    ______ ____
ROOT
ATOM      9  C   UNL     1       0.040   2.025  24.644  0.00  0.00    +0.154 C 
ATOM     10  C   UNL     1      -0.192   1.665  25.348  0.00  0.00    +0.166 C 
ATOM     11  O   UNL     1      -0.816   2.103  25.665  0.00  0.00    -0.350 OA
ATOM     12  C   UNL     1      -0.970   2.734  25.157  0.00  0.00    +0.169 C 
ATOM     13  C   UNL     1      -1.449   3.395  25.038  0.00  0.00    +0.170 C 
ATOM     14  C   UNL     1      -1.217   3.756  24.333  0.00  0.00    +0.169 C 
ATOM     15  O   UNL     1      -0.594   3.318  24.017  0.00  0.00    -0.350 OA
ATOM     16  C   UNL     1      -0.440   2.686  24.525  0.00  0.00    +0.167 C 
ENDROOT
BRANCH  13  17
ATOM     17  N   UNL     1      -2.055   3.650  25.537  0.00  0.00    -0.180 N 
ATOM     18  N   UNL     1      -1.960   4.075  26.237  0.00  0.00    -0.040 NA
ATOM     19  N   UNL     1      -2.710   4.212  26.555  0.00  0.00    -0.020 NA
ATOM     20  N   UNL     1      -3.267   3.870  26.052  0.00  0.00    -0.071 NA
ATOM     21  C   UNL     1      -2.863   3.523  25.422  0.00  0.00    +0.343 A 
BRANCH  21  22
ATOM     22  O   UNL     1      -3.205   3.120  24.789  0.00  0.00    -0.421 OA
BRANCH  22  23
ATOM     23  C   UNL     1      -3.986   2.857  24.842  0.00  0.00    +0.152 A 
ATOM     24  C   UNL     1      -4.608   3.380  24.703  0.00  0.00    +0.041 A 
ATOM     25  C   UNL     1      -5.387   3.117  24.756  0.00  0.00    +0.043 A 
ATOM     26  C   UNL     1      -5.546   2.330  24.947  0.00  0.00    +0.177 A 
ATOM     27  O   UNL     1      -6.252   1.915  25.038  0.00  0.00    -0.435 OA
ATOM     28  C   UNL     1      -6.067   1.136  25.233  0.00  0.00    +0.429 C 
ATOM     29  O   UNL     1      -5.246   1.069  25.262  0.00  0.00    -0.435 OA
ATOM     30  C   UNL     1      -4.924   1.807  25.086  0.00  0.00    +0.179 A 
ATOM     31  C   UNL     1      -4.143   2.070  25.033  0.00  0.00    +0.078 A 
ENDBRANCH  22  23
ENDBRANCH  21  22
ENDBRANCH  13  17
BRANCH   9   8
ATOM      6  C   UNL     1       0.665   0.987  23.889  0.00  0.00    +0.242 C 
ATOM      7  O   UNL     1       0.080   0.458  24.131  0.00  0.00    -0.273 OA
ATOM      8  N   UNL     1       0.646   1.771  24.145  0.00  0.00    -0.202 NA
BRANCH   6   5
ATOM      5  C   UNL     1       1.272   0.732  23.389  0.00  0.00    +0.099 C 
BRANCH   5   4
ATOM      4  C   UNL     1       1.167   0.057  22.927  0.00  0.00    +0.124 C 
BRANCH   4   2
ATOM      1  O   UNL     1       1.481  -0.379  21.603  0.00  0.00    -0.246 OA
ATOM      2  C   UNL     1       1.727  -0.139  22.353  0.00  0.00    +0.365 C 
ATOM      3  O   UNL     1       2.531  -0.096  22.530  0.00  0.00    -0.246 OA
ENDBRANCH   4   2
ENDBRANCH   5   4
ENDBRANCH   6   5
ENDBRANCH   9   8
TORSDOF 7
ENDMDL
MODEL 6
REMARK VINA RESULT:      -8.0      2.582      5.638
REMARK  Name = 
REMARK  7 active torsions:
REMARK  status: ('A' for Active; 'I' for Inactive)
REMARK    1  A    between atoms: C_2  and  C_4
REMARK    2  A    between atoms: C_4  and  C_5
REMARK    3  A    between atoms: C_5  and  C_6
REMARK    4  A    between atoms: N_8  and  C_9
REMARK    5  A    between atoms: C_13  and  N_17
REMARK    6  A    between atoms: C_21  and  O_22
REMARK    7  A    between atoms: O_22  and  C_23
REMARK                            x       y       z     vdW  Elec       q    Type
REMARK                         _______ _______ _______ _____ _____    ______ ____
ROOT
ATOM      9  C   UNL     1      -2.660   2.523  24.346  0.00  0.00    +0.154 C 
ATOM     10  C   UNL     1      -2.704   2.233  23.575  0.00  0.00    +0.166 C 
ATOM     11  O   UNL     1      -2.115   1.661  23.484  0.00  0.00    -0.350 OA
ATOM     12  C   UNL     1      -1.707   1.598  24.198  0.00  0.00    +0.169 C 
ATOM     13  C   UNL     1      -1.092   1.207  24.584  0.00  0.00    +0.170 C 
ATOM     14  C   UNL     1      -1.048   1.497  25.355  0.00  0.00    +0.169 C 
ATOM     15  O   UNL     1      -1.636   2.068  25.445  0.00  0.00    -0.350 OA
ATOM     16  C   UNL     1      -2.044   2.131  24.731  0.00  0.00    +0.167 C 
ENDROOT
BRANCH  13  17
ATOM     17  N   UNL     1      -0.606   0.626  24.255  0.00  0.00    -0.180 N 
ATOM     18  N   UNL     1      -0.037   0.744  23.670  0.00  0.00    -0.040 NA
ATOM     19  N   UNL     1       0.317   0.016  23.508  0.00  0.00    -0.020 NA
ATOM     20  N   UNL     1      -0.035  -0.551  23.993  0.00  0.00    -0.071 NA
ATOM     21  C   UNL     1      -0.605  -0.175  24.455  0.00  0.00    +0.343 A 
BRANCH  21  22
ATOM     22  O   UNL     1      -1.088  -0.535  25.017  0.00  0.00    -0.421 OA
BRANCH  22  23
ATOM     23  C   UNL     1      -1.469  -1.245  24.839  0.00  0.00    +0.152 A 
ATOM     24  C   UNL     1      -1.032  -1.942  24.770  0.00  0.00    +0.041 A 
ATOM     25  C   UNL     1      -1.412  -2.651  24.592  0.00  0.00    +0.043 A 
ATOM     26  C   UNL     1      -2.230  -2.666  24.484  0.00  0.00    +0.177 A 
ATOM     27  O   UNL     1      -2.753  -3.277  24.306  0.00  0.00    -0.435 OA
ATOM     28  C   UNL     1      -3.513  -2.961  24.265  0.00  0.00    +0.429 C 
ATOM     29  O   UNL     1      -3.460  -2.152  24.418  0.00  0.00    -0.435 OA
ATOM     30  C   UNL     1      -2.667  -1.970  24.553  0.00  0.00    +0.179 A 
ATOM     31  C   UNL     1      -2.287  -1.259  24.731  0.00  0.00    +0.078 A 
ENDBRANCH  22  23
ENDBRANCH  21  22
ENDBRANCH  13  17
BRANCH   9   8
ATOM      6  C   UNL     1      -3.966   3.036  24.612  0.00  0.00    +0.242 C 
ATOM      7  O   UNL     1      -4.299   2.390  24.223  0.00  0.00    -0.273 OA
ATOM      8  N   UNL     1      -3.146   3.103  24.674  0.00  0.00    -0.202 NA
BRANCH   6   5
ATOM      5  C   UNL     1      -4.452   3.617  24.941  0.00  0.00    +0.099 C 
BRANCH   5   4
ATOM      4  C   UNL     1      -5.240   3.445  25.114  0.00  0.00    +0.124 C 
BRANCH   4   2
ATOM      1  O   UNL     1      -5.737   3.442  26.453  0.00  0.00    -0.246 OA
ATOM      2  C   UNL     1      -5.619   3.832  25.736  0.00  0.00    +0.365 C 
ATOM      3  O   UNL     1      -5.881   4.608  25.640  0.00  0.00    -0.246 OA
ENDBRANCH   4   2
ENDBRANCH   5   4
ENDBRANCH   6   5
ENDBRANCH   9   8
TORSDOF 7
ENDMDL
MODEL 7
REMARK VINA RESULT:      -7.9      2.919      4.354
REMARK  Name = 
REMARK  7 active torsions:
REMARK  status: ('A' for Active; 'I' for Inactive)
REMARK    1  A    between atoms: C_2  and  C_4
REMARK    2  A    between atoms: C_4  and  C_5
REMARK    3  A    between atoms: C_5  and  C_6
REMARK    4  A    between atoms: N_8  and  C_9
REMARK    5  A    between atoms: C_13  and  N_17
REMARK    6  A    between atoms: C_21  and  O_22
REMARK    7  A    between atoms: O_22  and  C_23
REMARK                            x       y       z     vdW  Elec       q    Type
REMARK                         _______ _______ _______ _____ _____    ______ ____
ROOT
ATOM      9  C   UNL     1      -0.431   1.940  24.878  0.00  0.00    +0.154 C 
ATOM     10  C   UNL     1      -0.234   1.678  24.121  0.00  0.00    +0.166 C 
ATOM     11  O   UNL     1      -0.284   0.854  24.114  0.00  0.00    -0.350 OA
ATOM     12  C   UNL     1      -0.512   0.606  24.867  0.00  0.00    +0.169 C 
ATOM     13  C   UNL     1      -0.684  -0.056  25.329  0.00  0.00    +0.170 C 
ATOM     14  C   UNL     1      -0.881   0.206  26.086  0.00  0.00    +0.169 C 
ATOM     15  O   UNL     1      -0.831   1.029  26.092  0.00  0.00    -0.350 OA
ATOM     16  C   UNL     1      -0.603   1.277  25.340  0.00  0.00    +0.167 C 
ENDROOT
BRANCH  13  17
ATOM     17  N   UNL     1      -0.662  -0.841  25.077  0.00  0.00    -0.180 N 
ATOM     18  N   UNL     1       0.006  -1.248  24.815  0.00  0.00    -0.040 NA
ATOM     19  N   UNL     1      -0.225  -2.016  24.619  0.00  0.00    -0.020 NA
ATOM     20  N   UNL     1      -1.035  -2.083  24.760  0.00  0.00    -0.071 NA
ATOM     21  C   UNL     1      -1.305  -1.357  25.043  0.00  0.00    +0.343 A 
BRANCH  21  22
ATOM     22  O   UNL     1      -2.081  -1.178  25.256  0.00  0.00    -0.421 OA
BRANCH  22  23
ATOM     23  C   UNL     1      -2.705  -1.627  24.954  0.00  0.00    +0.152 A 
ATOM     24  C   UNL     1      -2.879  -2.364  25.280  0.00  0.00    +0.041 A 
ATOM     25  C   UNL     1      -3.502  -2.812  24.979  0.00  0.00    +0.043 A 
ATOM     26  C   UNL     1      -3.952  -2.523  24.350  0.00  0.00    +0.177 A 
ATOM     27  O   UNL     1      -4.594  -2.837  23.940  0.00  0.00    -0.435 OA
ATOM     28  C   UNL     1      -4.818  -2.295  23.361  0.00  0.00    +0.429 C 
ATOM     29  O   UNL     1      -4.313  -1.645  23.412  0.00  0.00    -0.435 OA
ATOM     30  C   UNL     1      -3.778  -1.786  24.024  0.00  0.00    +0.179 A 
ATOM     31  C   UNL     1      -3.154  -1.337  24.326  0.00  0.00    +0.078 A 
ENDBRANCH  22  23
ENDBRANCH  21  22
ENDBRANCH  13  17
BRANCH   9   8
ATOM      6  C   UNL     1      -0.818   3.297  24.662  0.00  0.00    +0.242 C 
ATOM      7  O   UNL     1      -1.161   3.085  23.942  0.00  0.00    -0.273 OA
ATOM      8  N   UNL     1      -0.453   2.725  25.130  0.00  0.00    -0.202 NA
BRANCH   6   5
ATOM      5  C   UNL     1      -0.840   4.083  24.914  0.00  0.00    +0.099 C 
BRANCH   5   4
ATOM      4  C   UNL     1      -1.509   4.543  24.769  0.00  0.00    +0.124 C 
BRANCH   4   2
ATOM      1  O   UNL     1      -1.075   5.893  24.946  0.00  0.00    -0.246 OA
ATOM      2  C   UNL     1      -1.591   5.277  25.136  0.00  0.00    +0.365 C 
ATOM      3  O   UNL     1      -2.188   5.396  25.693  0.00  0.00    -0.246 OA
ENDBRANCH   4   2
ENDBRANCH   5   4
ENDBRANCH   6   5
ENDBRANCH   9   8
TORSDOF 7
ENDMDL
MODEL 8
REMARK VINA RESULT:      -7.9      3.613      5.010
REMARK  Name = 
REMARK  7 active torsions:
REMARK  status: ('A' for Active; 'I' for Inactive)
REMARK    1  A    between atoms: C_2  and  C_4
REMARK    2  A    between atoms: C_4  and  C_5
REMARK    3  A    between atoms: C_5  and  C_6
REMARK    4  A    between atoms: N_8  and  C_9
REMARK    5  A    between atoms: C_13  and  N_17
REMARK    6  A    between atoms: C_21  and  O_22
REMARK    7  A    between atoms: O_22  and  C_23
REMARK                            x       y       z     vdW  Elec       q    Type
REMARK                         _______ _______ _______ _____ _____    ______ ____
ROOT
ATOM      9  C   UNL     1      -4.299  -0.096  24.733  0.00  0.00    +0.154 C 
ATOM     10  C   UNL     1      -4.712   0.046  25.433  0.00  0.00    +0.166 C 
ATOM     11  O   UNL     1      -4.788   0.863  25.523  0.00  0.00    -0.350 OA
ATOM     12  C   UNL     1      -4.422   1.226  24.879  0.00  0.00    +0.169 C 
ATOM     13  C   UNL     1      -4.242   1.955  24.536  0.00  0.00    +0.170 C 
ATOM     14  C   UNL     1      -3.829   1.813  23.836  0.00  0.00    +0.169 C 
ATOM     15  O   UNL     1      -3.754   0.996  23.746  0.00  0.00    -0.350 OA
ATOM     16  C   UNL     1      -4.120   0.633  24.391  0.00  0.00    +0.167 C 
ENDROOT
BRANCH  13  17
ATOM     17  N   UNL     1      -4.441   2.695  24.840  0.00  0.00    -0.180 N 
ATOM     18  N   UNL     1      -5.182   3.056  24.793  0.00  0.00    -0.040 NA
ATOM     19  N   UNL     1      -5.132   3.790  25.169  0.00  0.00    -0.020 NA
ATOM     20  N   UNL     1      -4.361   3.881  25.448  0.00  0.00    -0.071 NA
ATOM     21  C   UNL     1      -3.934   3.206  25.245  0.00  0.00    +0.343 A 
BRANCH  21  22
ATOM     22  O   UNL     1      -3.140   3.064  25.415  0.00  0.00    -0.421 OA
BRANCH  22  23
ATOM     23  C   UNL     1      -2.592   3.680  25.368  0.00  0.00    +0.152 A 
ATOM     24  C   UNL     1      -2.696   4.361  25.821  0.00  0.00    +0.041 A 
ATOM     25  C   UNL     1      -2.149   4.976  25.774  0.00  0.00    +0.043 A 
ATOM     26  C   UNL     1      -1.497   4.910  25.273  0.00  0.00    +0.177 A 
ATOM     27  O   UNL     1      -0.870   5.421  25.112  0.00  0.00    -0.435 OA
ATOM     28  C   UNL     1      -0.379   5.057  24.559  0.00  0.00    +0.429 C 
ATOM     29  O   UNL     1      -0.701   4.320  24.379  0.00  0.00    -0.435 OA
ATOM     30  C   UNL     1      -1.392   4.229  24.820  0.00  0.00    +0.179 A 
ATOM     31  C   UNL     1      -1.940   3.613  24.867  0.00  0.00    +0.078 A 
ENDBRANCH  22  23
ENDBRANCH  21  22
ENDBRANCH  13  17
BRANCH   9   8
ATOM      6  C   UNL     1      -3.770  -1.409  24.923  0.00  0.00    +0.242 C 
ATOM      7  O   UNL     1      -3.638  -1.241  25.720  0.00  0.00    -0.273 OA
ATOM      8  N   UNL     1      -4.100  -0.836  24.429  0.00  0.00    -0.202 NA
BRANCH   6   5
ATOM      5  C   UNL     1      -3.570  -2.150  24.618  0.00  0.00    +0.099 C 
BRANCH   5   4
ATOM      4  C   UNL     1      -2.844  -2.492  24.810  0.00  0.00    +0.124 C 
BRANCH   4   2
ATOM      1  O   UNL     1      -1.674  -2.904  24.103  0.00  0.00    -0.246 OA
ATOM      2  C   UNL     1      -2.475  -3.000  24.276  0.00  0.00    +0.365 C 
ATOM      3  O   UNL     1      -2.906  -3.604  23.915  0.00  0.00    -0.246 OA
ENDBRANCH   4   2
ENDBRANCH   5   4
ENDBRANCH   6   5
ENDBRANCH   9   8
TORSDOF 7
ENDMDL
MODEL 9
REMARK VINA RESULT:      -7.8      2.171      2.856
REMARK  Name = 
REMARK  7 active torsions:
REMARK  status: ('A' for Active; 'I' for Inactive)
REMARK    1  A    between atoms: C_2  and  C_4
REMARK    2  A    between atoms: C_4  and  C_5
REMARK    3  A    between atoms: C_5  and  C_6
REMARK    4  A    between atoms: N_8  and  C_9
REMARK    5  A    between atoms: C_13  and  N_17
REMARK    6  A    between atoms: C_21  and  O_22
REMARK    7  A    between atoms: O_22  and  C_23
REMARK                            x       y       z     vdW  Elec       q    Type
REMARK                         _______ _______ _______ _____ _____    ______ ____
ROOT
ATOM      9  C   UNL     1       1.348   0.776  23.399  0.00  0.00    +0.154 C 
ATOM     10  C   UNL     1       0.997   0.331  22.799  0.00  0.00    +0.166 C 
ATOM     11  O   UNL     1       0.178   0.407  22.872  0.00  0.00    -0.350 OA
ATOM     12  C   UNL     1       0.023   0.899  23.516  0.00  0.00    +0.169 C 
ATOM     13  C   UNL     1      -0.578   1.249  23.960  0.00  0.00    +0.170 C 
ATOM     14  C   UNL     1      -0.227   1.694  24.560  0.00  0.00    +0.169 C 
ATOM     15  O   UNL     1       0.591   1.617  24.487  0.00  0.00    -0.350 OA
ATOM     16  C   UNL     1       0.746   1.126  23.842  0.00  0.00    +0.167 C 
ENDROOT
BRANCH  13  17
ATOM     17  N   UNL     1      -1.388   1.169  23.826  0.00  0.00    -0.180 N 
ATOM     18  N   UNL     1      -1.841   1.619  23.304  0.00  0.00    -0.040 NA
ATOM     19  N   UNL     1      -2.621   1.352  23.347  0.00  0.00    -0.020 NA
ATOM     20  N   UNL     1      -2.649   0.737  23.896  0.00  0.00    -0.071 NA
ATOM     21  C   UNL     1      -1.888   0.624  24.192  0.00  0.00    +0.343 A 
BRANCH  21  22
ATOM     22  O   UNL     1      -1.665   0.064  24.756  0.00  0.00    -0.421 OA
BRANCH  22  23
ATOM     23  C   UNL     1      -2.181  -0.549  24.954  0.00  0.00    +0.152 A 
ATOM     24  C   UNL     1      -2.702  -0.462  25.588  0.00  0.00    +0.041 A 
ATOM     25  C   UNL     1      -3.216  -1.075  25.785  0.00  0.00    +0.043 A 
ATOM     26  C   UNL     1      -3.211  -1.776  25.350  0.00  0.00    +0.177 A 
ATOM     27  O   UNL     1      -3.651  -2.470  25.414  0.00  0.00    -0.435 OA
ATOM     28  C   UNL     1      -3.403  -2.986  24.821  0.00  0.00    +0.429 C 
ATOM     29  O   UNL     1      -2.809  -2.611  24.389  0.00  0.00    -0.435 OA
ATOM     30  C   UNL     1      -2.691  -1.863  24.716  0.00  0.00    +0.179 A 
ATOM     31  C   UNL     1      -2.175  -1.249  24.518  0.00  0.00    +0.078 A 
ENDBRANCH  22  23
ENDBRANCH  21  22
ENDBRANCH  13  17
BRANCH   9   8
ATOM      6  C   UNL     1       2.697   0.552  22.987  0.00  0.00    +0.242 C 
ATOM      7  O   UNL     1       2.426   0.168  22.308  0.00  0.00    -0.273 OA
ATOM      8  N   UNL     1       2.158   0.856  23.532  0.00  0.00    -0.202 NA
BRANCH   6   5
ATOM      5  C   UNL     1       3.508   0.632  23.121  0.00  0.00    +0.099 C 
BRANCH   5   4
ATOM      4  C   UNL     1       4.008  -0.016  23.016  0.00  0.00    +0.124 C 
BRANCH   4   2
ATOM      1  O   UNL     1       5.249   0.667  23.207  0.00  0.00    -0.246 OA
ATOM      2  C   UNL     1       4.773   0.002  23.323  0.00  0.00    +0.365 C 
ATOM      3  O   UNL     1       5.064  -0.644  23.745  0.00  0.00    -0.246 OA
ENDBRANCH   4   2
ENDBRANCH   5   4
ENDBRANCH   6   5
ENDBRANCH   9   8
TORSDOF 7
ENDMDL
