MODEL 1
REMARK VINA RESULT:      -9.5      0.000      0.000
REMARK  Name = 
REMARK  7 active torsions:
REMARK  status: ('A' for Active; 'I' for Inactive)
REMARK    1  A    between atoms: C_3  and  C_4
REMARK    2  A    between atoms: C_4  and  N_5
REMARK    3  A    between atoms: C_6  and  C_8
REMARK    4  A    between atoms: C_13  and  N_14
REMARK    5  A    between atoms: N_14  and  C_15
REMARK    6  A    between atoms: C_15  and  C_16
REMARK    7  A    between atoms: C_20  and  C_22
REMARK                            x       y       z     vdW  Elec       q    Type
REMARK                         _______ _______ _______ _____ _____    ______ ____
ROOT
ATOM      1  O   UNL     1      -3.803   1.592  25.661  0.00  0.00    -0.219 OA
ATOM      2  C   UNL     1      -3.618   1.742  24.872  0.00  0.00    +0.199 C 
ATOM      3  C   UNL     1      -3.346   2.458  24.565  0.00  0.00    +0.169 C 
ATOM     11  O   UNL     1      -3.232   2.360  23.753  0.00  0.00    -0.350 OA
ATOM     12  C   UNL     1      -3.433   1.584  23.559  0.00  0.00    +0.162 C 
ATOM     13  C   UNL     1      -3.671   1.202  24.250  0.00  0.00    +0.135 C 
ENDROOT
BRANCH   3   4
ATOM      4  C   UNL     1      -3.212   3.150  24.993  0.00  0.00    +0.147 C 
BRANCH   4   5
ATOM      5  N   UNL     1      -2.548   3.613  24.832  0.00  0.00    -0.203 NA
ATOM      6  C   UNL     1      -2.355   4.244  25.326  0.00  0.00    +0.241 C 
ATOM      7  O   UNL     1      -2.827   4.413  25.982  0.00  0.00    -0.273 OA
BRANCH   6   8
ATOM      8  C   UNL     1      -1.692   4.708  25.164  0.00  0.00    +0.078 C 
ATOM      9  C   UNL     1      -1.352   5.448  25.040  0.00  0.00    +0.010 C 
ATOM     10  C   UNL     1      -0.885   4.769  25.010  0.00  0.00    +0.010 C 
ENDBRANCH   6   8
ENDBRANCH   4   5
ENDBRANCH   3   4
BRANCH  13  14
ATOM     14  N   UNL     1      -3.920   0.418  24.310  0.00  0.00    -0.209 NA
BRANCH  14  15
ATOM     15  C   UNL     1      -3.674  -0.138  23.752  0.00  0.00    +0.115 C 
BRANCH  15  16
ATOM     16  C   UNL     1      -3.653  -0.939  23.949  0.00  0.00    -0.004 A 
ATOM     17  C   UNL     1      -4.339  -1.394  23.899  0.00  0.00    -0.003 A 
ATOM     18  C   UNL     1      -4.318  -2.195  24.096  0.00  0.00    +0.000 A 
ATOM     19  C   UNL     1      -3.611  -2.541  24.344  0.00  0.00    +0.010 A 
ATOM     20  C   UNL     1      -2.925  -2.085  24.395  0.00  0.00    +0.068 A 
ATOM     21  C   UNL     1      -2.946  -1.285  24.197  0.00  0.00    +0.007 A 
BRANCH  20  22
ATOM     22  C   UNL     1      -2.218  -2.431  24.643  0.00  0.00    +0.100 C 
ATOM     23  N   UNL     1      -1.512  -2.777  24.889  0.00  0.00    -0.191 NA
ENDBRANCH  20  22
ENDBRANCH  15  16
ENDBRANCH  14  15
ENDBRANCH  13  14
TORSDOF 7
ENDMDL
MODEL 2
REMARK VINA RESULT:      -8.9      2.084      5.838
REMARK  Name = 
REMARK  7 active torsions:
REMARK  status: ('A' for Active; 'I' for Inactive)
REMARK    1  A    between atoms: C_3  and  C_4
REMARK    2  A    between atoms: C_4  and  N_5
REMARK    3  A    between atoms: C_6  and  C_8
REMARK    4  A    between atoms: C_13  and  N_14
REMARK    5  A    between atoms: N_14  and  C_15
REMARK    6  A    between atoms: C_15  and  C_16
REMARK    7  A    between atoms: C_20  and  C_22
REMARK                            x       y       z     vdW  Elec       q    Type
REMARK                         _______ _______ _______ _____ _____    ______ ____
ROOT
ATOM      1  O   UNL     1      -1.303   0.624  23.728  0.00  0.00    -0.219 OA
ATOM      2  C   UNL     1      -1.120   0.494  24.522  0.00  0.00    +0.199 C 
ATOM      3  C   UNL     1      -1.122  -0.236  24.907  0.00  0.00    +0.169 C 
ATOM     11  O   UNL     1      -0.907  -0.108  25.693  0.00  0.00    -0.350 OA
ATOM     12  C   UNL     1      -0.773   0.699  25.794  0.00  0.00    +0.162 C 
ATOM     13  C   UNL     1      -0.905   1.072  25.070  0.00  0.00    +0.135 C 
ENDROOT
BRANCH   3   4
ATOM      4  C   UNL     1      -1.305  -0.964  24.566  0.00  0.00    +0.147 C 
BRANCH   4   5
ATOM      5  N   UNL     1      -2.040  -1.312  24.707  0.00  0.00    -0.203 NA
ATOM      6  C   UNL     1      -2.181  -2.089  24.470  0.00  0.00    +0.241 C 
ATOM      7  O   UNL     1      -1.586  -2.518  24.090  0.00  0.00    -0.273 OA
BRANCH   6   8
ATOM      8  C   UNL     1      -2.915  -2.437  24.611  0.00  0.00    +0.078 C 
ATOM      9  C   UNL     1      -3.501  -2.678  25.139  0.00  0.00    +0.010 C 
ATOM     10  C   UNL     1      -3.600  -2.799  24.329  0.00  0.00    +0.010 C 
ENDBRANCH   6   8
ENDBRANCH   4   5
ENDBRANCH   3   4
BRANCH  13  14
ATOM     14  N   UNL     1      -0.834   1.880  24.920  0.00  0.00    -0.209 NA
BRANCH  14  15
ATOM     15  C   UNL     1      -0.782   2.414  25.547  0.00  0.00    +0.115 C 
BRANCH  15  16
ATOM     16  C   UNL     1      -1.062   3.184  25.457  0.00  0.00    -0.004 A 
ATOM     17  C   UNL     1      -0.599   3.750  25.075  0.00  0.00    -0.003 A 
ATOM     18  C   UNL     1      -0.880   4.521  24.985  0.00  0.00    +0.000 A 
ATOM     19  C   UNL     1      -1.625   4.726  25.276  0.00  0.00    +0.010 A 
ATOM     20  C   UNL     1      -2.088   4.159  25.659  0.00  0.00    +0.068 A 
ATOM     21  C   UNL     1      -1.807   3.389  25.749  0.00  0.00    +0.007 A 
BRANCH  20  22
ATOM     22  C   UNL     1      -2.832   4.364  25.950  0.00  0.00    +0.100 C 
ATOM     23  N   UNL     1      -3.576   4.569  26.241  0.00  0.00    -0.191 NA
ENDBRANCH  20  22
ENDBRANCH  15  16
ENDBRANCH  14  15
ENDBRANCH  13  14
TORSDOF 7
ENDMDL
MODEL 3
REMARK VINA RESULT:      -8.8      1.427      5.298
REMARK  Name = 
REMARK  7 active torsions:
REMARK  status: ('A' for Active; 'I' for Inactive)
REMARK    1  A    between atoms: C_3  and  C_4
REMARK    2  A    between atoms: C_4  and  N_5
REMARK    3  A    between atoms: C_6  and  C_8
REMARK    4  A    between atoms: C_13  and  N_14
REMARK    5  A    between atoms: N_14  and  C_15
REMARK    6  A    between atoms: C_15  and  C_16
REMARK    7  A    between atoms: C_20  and  C_22
REMARK                            x       y       z     vdW  Elec       q    Type
REMARK                         _______ _______ _______ _____ _____    ______ ____
ROOT
ATOM      1  O   UNL     1      -2.984   1.033  23.501  0.00  0.00    -0.219 OA
ATOM      2  C   UNL     1      -3.527   1.111  24.117  0.00  0.00    +0.199 C 
ATOM      3  C   UNL     1      -4.067   0.537  24.364  0.00  0.00    +0.169 C 
ATOM     11  O   UNL     1      -4.498   0.849  24.995  0.00  0.00    -0.350 OA
ATOM     12  C   UNL     1      -4.225   1.615  25.137  0.00  0.00    +0.162 C 
ATOM     13  C   UNL     1      -3.625   1.777  24.595  0.00  0.00    +0.135 C 
ENDROOT
BRANCH   3   4
ATOM      4  C   UNL     1      -4.158  -0.214  24.038  0.00  0.00    +0.147 C 
BRANCH   4   5
ATOM      5  N   UNL     1      -3.863  -0.874  24.435  0.00  0.00    -0.203 NA
ATOM      6  C   UNL     1      -3.991  -1.630  24.131  0.00  0.00    +0.241 C 
ATOM      7  O   UNL     1      -4.414  -1.726  23.428  0.00  0.00    -0.273 OA
BRANCH   6   8
ATOM      8  C   UNL     1      -3.695  -2.291  24.527  0.00  0.00    +0.078 C 
ATOM      9  C   UNL     1      -3.521  -3.097  24.541  0.00  0.00    +0.010 C 
ATOM     10  C   UNL     1      -3.359  -2.628  25.200  0.00  0.00    +0.010 C 
ENDBRANCH   6   8
ENDBRANCH   4   5
ENDBRANCH   3   4
BRANCH  13  14
ATOM     14  N   UNL     1      -3.198   2.480  24.540  0.00  0.00    -0.209 NA
BRANCH  14  15
ATOM     15  C   UNL     1      -3.034   2.919  25.220  0.00  0.00    +0.115 C 
BRANCH  15  16
ATOM     16  C   UNL     1      -2.341   3.364  25.265  0.00  0.00    -0.004 A 
ATOM     17  C   UNL     1      -2.351   4.164  25.066  0.00  0.00    -0.003 A 
ATOM     18  C   UNL     1      -1.657   4.609  25.111  0.00  0.00    +0.000 A 
ATOM     19  C   UNL     1      -0.954   4.253  25.357  0.00  0.00    +0.010 A 
ATOM     20  C   UNL     1      -0.945   3.452  25.557  0.00  0.00    +0.068 A 
ATOM     21  C   UNL     1      -1.638   3.008  25.511  0.00  0.00    +0.007 A 
BRANCH  20  22
ATOM     22  C   UNL     1      -0.242   3.098  25.803  0.00  0.00    +0.100 C 
ATOM     23  N   UNL     1       0.461   2.745  26.049  0.00  0.00    -0.191 NA
ENDBRANCH  20  22
ENDBRANCH  15  16
ENDBRANCH  14  15
ENDBRANCH  13  14
TORSDOF 7
ENDMDL
MODEL 4
REMARK VINA RESULT:      -8.7      1.959      2.425
REMARK  Name = 
REMARK  7 active torsions:
REMARK  status: ('A' for Active; 'I' for Inactive)
REMARK    1  A    between atoms: C_3  and  C_4
REMARK    2  A    between atoms: C_4  and  N_5
REMARK    3  A    between atoms: C_6  and  C_8
REMARK    4  A    between atoms: C_13  and  N_14
REMARK    5  A    between atoms: N_14  and  C_15
REMARK    6  A    between atoms: C_15  and  C_16
REMARK    7  A    between atoms: C_20  and  C_22
REMARK                            x       y       z     vdW  Elec       q    Type
REMARK                         _______ _______ _______ _____ _____    ______ ____
ROOT
ATOM      1  O   UNL     1      -0.905   1.154  23.610  0.00  0.00    -0.219 OA
ATOM      2  C   UNL     1      -0.867   1.155  24.435  0.00  0.00    +0.199 C 
ATOM      3  C   UNL     1      -0.673   1.802  24.910  0.00  0.00    +0.169 C 
ATOM     11  O   UNL     1      -0.703   1.556  25.697  0.00  0.00    -0.350 OA
ATOM     12  C   UNL     1      -0.915   0.759  25.708  0.00  0.00    +0.162 C 
ATOM     13  C   UNL     1      -1.017   0.512  24.928  0.00  0.00    +0.135 C 
ENDROOT
BRANCH   3   4
ATOM      4  C   UNL     1      -0.483   2.559  24.645  0.00  0.00    +0.147 C 
BRANCH   4   5
ATOM      5  N   UNL     1      -0.905   3.211  24.923  0.00  0.00    -0.203 NA
ATOM      6  C   UNL     1      -0.716   3.969  24.656  0.00  0.00    +0.241 C 
ATOM      7  O   UNL     1      -0.105   4.074  24.111  0.00  0.00    -0.273 OA
BRANCH   6   8
ATOM      8  C   UNL     1      -1.138   4.621  24.934  0.00  0.00    +0.078 C 
ATOM      9  C   UNL     1      -1.782   4.933  25.345  0.00  0.00    +0.010 C 
ATOM     10  C   UNL     1      -1.226   5.438  25.004  0.00  0.00    +0.010 C 
ENDBRANCH   6   8
ENDBRANCH   4   5
ENDBRANCH   3   4
BRANCH  13  14
ATOM     14  N   UNL     1      -1.231  -0.247  24.683  0.00  0.00    -0.209 NA
BRANCH  14  15
ATOM     15  C   UNL     1      -1.683  -0.729  25.177  0.00  0.00    +0.115 C 
BRANCH  15  16
ATOM     16  C   UNL     1      -2.014  -1.425  24.884  0.00  0.00    -0.004 A 
ATOM     17  C   UNL     1      -1.561  -2.113  24.844  0.00  0.00    -0.003 A 
ATOM     18  C   UNL     1      -1.893  -2.809  24.550  0.00  0.00    +0.000 A 
ATOM     19  C   UNL     1      -2.678  -2.817  24.296  0.00  0.00    +0.010 A 
ATOM     20  C   UNL     1      -3.131  -2.128  24.336  0.00  0.00    +0.068 A 
ATOM     21  C   UNL     1      -2.799  -1.433  24.629  0.00  0.00    +0.007 A 
BRANCH  20  22
ATOM     22  C   UNL     1      -3.915  -2.136  24.081  0.00  0.00    +0.100 C 
ATOM     23  N   UNL     1      -4.699  -2.144  23.826  0.00  0.00    -0.191 NA
ENDBRANCH  20  22
ENDBRANCH  15  16
ENDBRANCH  14  15
ENDBRANCH  13  14
TORSDOF 7
ENDMDL
MODEL 5
REMARK VINA RESULT:      -8.1      2.938      4.747
REMARK  Name = 
REMARK  7 active torsions:
REMARK  status: ('A' for Active; 'I' for Inactive)
REMARK    1  A    between atoms: C_3  and  C_4
REMARK    2  A    between atoms: C_4  and  N_5
REMARK    3  A    between atoms: C_6  and  C_8
REMARK    4  A    between atoms: C_13  and  N_14
REMARK    5  A    between atoms: N_14  and  C_15
REMARK    6  A    between atoms: C_15  and  C_16
REMARK    7  A    between atoms: C_20  and  C_22
REMARK                            x       y       z     vdW  Elec       q    Type
REMARK                         _______ _______ _______ _____ _____    ______ ____
ROOT
ATOM      1  O   UNL     1      -1.852   0.501  25.134  0.00  0.00    -0.219 OA
ATOM      2  C   UNL     1      -1.661   1.066  24.564  0.00  0.00    +0.199 C 
ATOM      3  C   UNL     1      -1.023   1.030  24.040  0.00  0.00    +0.169 C 
ATOM     11  O   UNL     1      -1.042   1.708  23.571  0.00  0.00    -0.350 OA
ATOM     12  C   UNL     1      -1.690   2.162  23.803  0.00  0.00    +0.162 C 
ATOM     13  C   UNL     1      -2.072   1.765  24.417  0.00  0.00    +0.135 C 
ENDROOT
BRANCH   3   4
ATOM      4  C   UNL     1      -0.466   0.423  23.995  0.00  0.00    +0.147 C 
BRANCH   4   5
ATOM      5  N   UNL     1       0.170   0.486  23.474  0.00  0.00    -0.203 NA
ATOM      6  C   UNL     1       0.665  -0.162  23.346  0.00  0.00    +0.241 C 
ATOM      7  O   UNL     1       0.523  -0.873  23.741  0.00  0.00    -0.273 OA
BRANCH   6   8
ATOM      8  C   UNL     1       1.301  -0.099  22.825  0.00  0.00    +0.078 C 
ATOM      9  C   UNL     1       2.074   0.141  22.667  0.00  0.00    +0.010 C 
ATOM     10  C   UNL     1       1.629  -0.231  22.080  0.00  0.00    +0.010 C 
ENDBRANCH   6   8
ENDBRANCH   4   5
ENDBRANCH   3   4
BRANCH  13  14
ATOM     14  N   UNL     1      -2.748   2.022  24.815  0.00  0.00    -0.209 NA
BRANCH  14  15
ATOM     15  C   UNL     1      -3.200   2.640  24.506  0.00  0.00    +0.115 C 
BRANCH  15  16
ATOM     16  C   UNL     1      -3.914   2.847  24.863  0.00  0.00    -0.004 A 
ATOM     17  C   UNL     1      -3.962   3.529  25.323  0.00  0.00    -0.003 A 
ATOM     18  C   UNL     1      -4.677   3.736  25.681  0.00  0.00    +0.000 A 
ATOM     19  C   UNL     1      -5.343   3.259  25.578  0.00  0.00    +0.010 A 
ATOM     20  C   UNL     1      -5.294   2.576  25.117  0.00  0.00    +0.068 A 
ATOM     21  C   UNL     1      -4.580   2.370  24.760  0.00  0.00    +0.007 A 
BRANCH  20  22
ATOM     22  C   UNL     1      -5.960   2.100  25.014  0.00  0.00    +0.100 C 
ATOM     23  N   UNL     1      -6.626   1.626  24.911  0.00  0.00    -0.191 NA
ENDBRANCH  20  22
ENDBRANCH  15  16
ENDBRANCH  14  15
ENDBRANCH  13  14
TORSDOF 7
ENDMDL
MODEL 6
REMARK VINA RESULT:      -7.7      1.374      5.439
REMARK  Name = 
REMARK  7 active torsions:
REMARK  status: ('A' for Active; 'I' for Inactive)
REMARK    1  A    between atoms: C_3  and  C_4
REMARK    2  A    between atoms: C_4  and  N_5
REMARK    3  A    between atoms: C_6  and  C_8
REMARK    4  A    between atoms: C_13  and  N_14
REMARK    5  A    between atoms: N_14  and  C_15
REMARK    6  A    between atoms: C_15  and  C_16
REMARK    7  A    between atoms: C_20  and  C_22
REMARK                            x       y       z     vdW  Elec       q    Type
REMARK                         _______ _______ _______ _____ _____    ______ ____
ROOT
ATOM      1  O   UNL     1      -4.330   0.412  25.567  0.00  0.00    -0.219 OA
ATOM      2  C   UNL     1      -4.034   0.589  24.818  0.00  0.00    +0.199 C 
ATOM      3  C   UNL     1      -3.899   0.047  24.210  0.00  0.00    +0.169 C 
ATOM     11  O   UNL     1      -3.602   0.462  23.561  0.00  0.00    -0.350 OA
ATOM     12  C   UNL     1      -3.555   1.259  23.768  0.00  0.00    +0.162 C 
ATOM     13  C   UNL     1      -3.821   1.337  24.544  0.00  0.00    +0.135 C 
ENDROOT
BRANCH   3   4
ATOM      4  C   UNL     1      -4.036  -0.765  24.245  0.00  0.00    +0.147 C 
BRANCH   4   5
ATOM      5  N   UNL     1      -3.403  -1.293  24.193  0.00  0.00    -0.203 NA
ATOM      6  C   UNL     1      -3.525  -2.097  24.328  0.00  0.00    +0.241 C 
ATOM      7  O   UNL     1      -4.279  -2.375  24.515  0.00  0.00    -0.273 OA
BRANCH   6   8
ATOM      8  C   UNL     1      -2.892  -2.625  24.276  0.00  0.00    +0.078 C 
ATOM      9  C   UNL     1      -2.508  -3.242  23.888  0.00  0.00    +0.010 C 
ATOM     10  C   UNL     1      -2.183  -2.920  24.574  0.00  0.00    +0.010 C 
ENDBRANCH   6   8
ENDBRANCH   4   5
ENDBRANCH   3   4
BRANCH  13  14
ATOM     14  N   UNL     1      -3.868   2.040  24.973  0.00  0.00    -0.209 NA
BRANCH  14  15
ATOM     15  C   UNL     1      -3.669   2.757  24.615  0.00  0.00    +0.115 C 
BRANCH  15  16
ATOM     16  C   UNL     1      -3.353   3.370  25.068  0.00  0.00    -0.004 A 
ATOM     17  C   UNL     1      -3.801   3.710  25.671  0.00  0.00    -0.003 A 
ATOM     18  C   UNL     1      -3.485   4.324  26.124  0.00  0.00    +0.000 A 
ATOM     19  C   UNL     1      -2.721   4.597  25.973  0.00  0.00    +0.010 A 
ATOM     20  C   UNL     1      -2.273   4.256  25.369  0.00  0.00    +0.068 A 
ATOM     21  C   UNL     1      -2.589   3.643  24.917  0.00  0.00    +0.007 A 
BRANCH  20  22
ATOM     22  C   UNL     1      -1.509   4.529  25.218  0.00  0.00    +0.100 C 
ATOM     23  N   UNL     1      -0.745   4.801  25.069  0.00  0.00    -0.191 NA
ENDBRANCH  20  22
ENDBRANCH  15  16
ENDBRANCH  14  15
ENDBRANCH  13  14
TORSDOF 7
ENDMDL
MODEL 7
REMARK VINA RESULT:      -7.1      1.711      2.439
REMARK  Name = 
REMARK  7 active torsions:
REMARK  status: ('A' for Active; 'I' for Inactive)
REMARK    1  A    between atoms: C_3  and  C_4
REMARK    2  A    between atoms: C_4  and  N_5
REMARK    3  A    between atoms: C_6  and  C_8
REMARK    4  A    between atoms: C_13  and  N_14
REMARK    5  A    between atoms: N_14  and  C_15
REMARK    6  A    between atoms: C_15  and  C_16
REMARK    7  A    between atoms: C_20  and  C_22
REMARK                            x       y       z     vdW  Elec       q    Type
REMARK                         _______ _______ _______ _____ _____    ______ ____
ROOT
ATOM      1  O   UNL     1      -2.906   1.232  23.750  0.00  0.00    -0.219 OA
ATOM      2  C   UNL     1      -2.440   1.456  24.393  0.00  0.00    +0.199 C 
ATOM      3  C   UNL     1      -2.465   2.185  24.779  0.00  0.00    +0.169 C 
ATOM     11  O   UNL     1      -1.908   2.169  25.387  0.00  0.00    -0.350 OA
ATOM     12  C   UNL     1      -1.538   1.432  25.376  0.00  0.00    +0.162 C 
ATOM     13  C   UNL     1      -1.867   0.991  24.762  0.00  0.00    +0.135 C 
ENDROOT
BRANCH   3   4
ATOM      4  C   UNL     1      -2.960   2.817  24.591  0.00  0.00    +0.147 C 
BRANCH   4   5
ATOM      5  N   UNL     1      -3.675   2.914  24.991  0.00  0.00    -0.203 NA
ATOM      6  C   UNL     1      -4.134   3.587  24.859  0.00  0.00    +0.241 C 
ATOM      7  O   UNL     1      -3.877   4.163  24.327  0.00  0.00    -0.273 OA
BRANCH   6   8
ATOM      8  C   UNL     1      -4.849   3.684  25.259  0.00  0.00    +0.078 C 
ATOM      9  C   UNL     1      -5.414   3.402  25.790  0.00  0.00    +0.010 C 
ATOM     10  C   UNL     1      -5.521   4.133  25.421  0.00  0.00    +0.010 C 
ENDBRANCH   6   8
ENDBRANCH   4   5
ENDBRANCH   3   4
BRANCH  13  14
ATOM     14  N   UNL     1      -1.660   0.220  24.552  0.00  0.00    -0.209 NA
BRANCH  14  15
ATOM     15  C   UNL     1      -1.646  -0.374  25.125  0.00  0.00    +0.115 C 
BRANCH  15  16
ATOM     16  C   UNL     1      -1.699  -1.165  24.899  0.00  0.00    -0.004 A 
ATOM     17  C   UNL     1      -1.013  -1.611  24.793  0.00  0.00    -0.003 A 
ATOM     18  C   UNL     1      -1.067  -2.403  24.566  0.00  0.00    +0.000 A 
ATOM     19  C   UNL     1      -1.807  -2.749  24.446  0.00  0.00    +0.010 A 
ATOM     20  C   UNL     1      -2.492  -2.302  24.552  0.00  0.00    +0.068 A 
ATOM     21  C   UNL     1      -2.439  -1.511  24.778  0.00  0.00    +0.007 A 
BRANCH  20  22
ATOM     22  C   UNL     1      -3.231  -2.648  24.432  0.00  0.00    +0.100 C 
ATOM     23  N   UNL     1      -3.970  -2.995  24.313  0.00  0.00    -0.191 NA
ENDBRANCH  20  22
ENDBRANCH  15  16
ENDBRANCH  14  15
ENDBRANCH  13  14
TORSDOF 7
ENDMDL
MODEL 8
REMARK VINA RESULT:      -6.3      4.354      5.801
REMARK  Name = 
REMARK  7 active torsions:
REMARK  status: ('A' for Active; 'I' for Inactive)
REMARK    1  A    between atoms: C_3  and  C_4
REMARK    2  A    between atoms: C_4  and  N_5
REMARK    3  A    between atoms: C_6  and  C_8
REMARK    4  A    between atoms: C_13  and  N_14
REMARK    5  A    between atoms: N_14  and  C_15
REMARK    6  A    between atoms: C_15  and  C_16
REMARK    7  A    between atoms: C_20  and  C_22
REMARK                            x       y       z     vdW  Elec       q    Type
REMARK                         _______ _______ _______ _____ _____    ______ ____
ROOT
ATOM      1  O   UNL     1      -0.177  -1.407  24.312  0.00  0.00    -0.219 OA
ATOM      2  C   UNL     1      -0.378  -0.614  24.205  0.00  0.00    +0.199 C 
ATOM      3  C   UNL     1      -1.078  -0.254  24.453  0.00  0.00    +0.169 C 
ATOM     11  O   UNL     1      -1.046   0.540  24.233  0.00  0.00    -0.350 OA
ATOM     12  C   UNL     1      -0.328   0.671  23.850  0.00  0.00    +0.162 C 
ATOM     13  C   UNL     1       0.085  -0.042  23.832  0.00  0.00    +0.135 C 
ENDROOT
BRANCH   3   4
ATOM      4  C   UNL     1      -1.699  -0.623  24.851  0.00  0.00    +0.147 C 
BRANCH   4   5
ATOM      5  N   UNL     1      -2.399  -0.797  24.451  0.00  0.00    -0.203 NA
ATOM      6  C   UNL     1      -3.051  -1.085  24.866  0.00  0.00    +0.241 C 
ATOM      7  O   UNL     1      -3.003  -1.197  25.682  0.00  0.00    -0.273 OA
BRANCH   6   8
ATOM      8  C   UNL     1      -3.751  -1.259  24.466  0.00  0.00    +0.078 C 
ATOM      9  C   UNL     1      -4.480  -1.018  24.163  0.00  0.00    +0.010 C 
ATOM     10  C   UNL     1      -4.235  -1.801  24.076  0.00  0.00    +0.010 C 
ENDBRANCH   6   8
ENDBRANCH   4   5
ENDBRANCH   3   4
BRANCH  13  14
ATOM     14  N   UNL     1       0.830  -0.164  23.500  0.00  0.00    -0.209 NA
BRANCH  14  15
ATOM     15  C   UNL     1       1.265   0.476  23.213  0.00  0.00    +0.115 C 
BRANCH  15  16
ATOM     16  C   UNL     1       1.969   0.346  22.804  0.00  0.00    -0.004 A 
ATOM     17  C   UNL     1       1.954  -0.001  22.056  0.00  0.00    -0.003 A 
ATOM     18  C   UNL     1       2.659  -0.131  21.647  0.00  0.00    +0.000 A 
ATOM     19  C   UNL     1       3.379   0.087  21.987  0.00  0.00    +0.010 A 
ATOM     20  C   UNL     1       3.393   0.434  22.735  0.00  0.00    +0.068 A 
ATOM     21  C   UNL     1       2.689   0.564  23.144  0.00  0.00    +0.007 A 
BRANCH  20  22
ATOM     22  C   UNL     1       4.114   0.651  23.074  0.00  0.00    +0.100 C 
ATOM     23  N   UNL     1       4.833   0.868  23.413  0.00  0.00    -0.191 NA
ENDBRANCH  20  22
ENDBRANCH  15  16
ENDBRANCH  14  15
ENDBRANCH  13  14
TORSDOF 7
ENDMDL
MODEL 9
REMARK VINA RESULT:      -6.2      3.463      4.194
REMARK  Name = 
REMARK  7 active torsions:
REMARK  status: ('A' for Active; 'I' for Inactive)
REMARK    1  A    between atoms: C_3  and  C_4
REMARK    2  A    between atoms: C_4  and  N_5
REMARK    3  A    between atoms: C_6  and  C_8
REMARK    4  A    between atoms: C_13  and  N_14
REMARK    5  A    between atoms: N_14  and  C_15
REMARK    6  A    between atoms: C_15  and  C_16
REMARK    7  A    between atoms: C_20  and  C_22
REMARK                            x       y       z     vdW  Elec       q    Type
REMARK                         _______ _______ _______ _____ _____    ______ ____
ROOT
ATOM      1  O   UNL     1      -2.253   1.202  22.985  0.00  0.00    -0.219 OA
ATOM      2  C   UNL     1      -2.002   1.288  23.766  0.00  0.00    +0.199 C 
ATOM      3  C   UNL     1      -2.483   1.459  24.414  0.00  0.00    +0.169 C 
ATOM     11  O   UNL     1      -2.004   1.494  25.084  0.00  0.00    -0.350 OA
ATOM     12  C   UNL     1      -1.227   1.345  24.851  0.00  0.00    +0.162 C 
ATOM     13  C   UNL     1      -1.226   1.217  24.036  0.00  0.00    +0.135 C 
ENDROOT
BRANCH   3   4
ATOM      4  C   UNL     1      -3.299   1.574  24.394  0.00  0.00    +0.147 C 
BRANCH   4   5
ATOM      5  N   UNL     1      -3.641   2.177  24.842  0.00  0.00    -0.203 NA
ATOM      6  C   UNL     1      -4.460   2.279  24.842  0.00  0.00    +0.241 C 
ATOM      7  O   UNL     1      -4.937   1.776  24.393  0.00  0.00    -0.273 OA
BRANCH   6   8
ATOM      8  C   UNL     1      -4.802   2.882  25.289  0.00  0.00    +0.078 C 
ATOM      9  C   UNL     1      -5.282   3.122  25.915  0.00  0.00    +0.010 C 
ATOM     10  C   UNL     1      -4.913   3.685  25.438  0.00  0.00    +0.010 C 
ENDBRANCH   6   8
ENDBRANCH   4   5
ENDBRANCH   3   4
BRANCH  13  14
ATOM     14  N   UNL     1      -0.565   1.049  23.572  0.00  0.00    -0.209 NA
BRANCH  14  15
ATOM     15  C   UNL     1       0.101   0.697  23.912  0.00  0.00    +0.115 C 
BRANCH  15  16
ATOM     16  C   UNL     1       0.708   0.414  23.431  0.00  0.00    -0.004 A 
ATOM     17  C   UNL     1       0.573  -0.230  22.934  0.00  0.00    -0.003 A 
ATOM     18  C   UNL     1       1.181  -0.513  22.452  0.00  0.00    +0.000 A 
ATOM     19  C   UNL     1       1.924  -0.153  22.470  0.00  0.00    +0.010 A 
ATOM     20  C   UNL     1       2.057   0.492  22.968  0.00  0.00    +0.068 A 
ATOM     21  C   UNL     1       1.450   0.774  23.448  0.00  0.00    +0.007 A 
BRANCH  20  22
ATOM     22  C   UNL     1       2.799   0.852  22.985  0.00  0.00    +0.100 C 
ATOM     23  N   UNL     1       3.541   1.210  23.001  0.00  0.00    -0.191 NA
ENDBRANCH  20  22
ENDBRANCH  15  16
ENDBRANCH  14  15
ENDBRANCH  13  14
TORSDOF 7
ENDMDL
MODEL 10
REMARK VINA RESULT:      -5.9     14.089     16.407
REMARK  Name = 
REMARK  7 active torsions:
REMARK  status: ('A' for Active; 'I' for Inactive)
REMARK    1  A    between atoms: C_3  and  C_4
REMARK    2  A    between atoms: C_4  and  N_5
REMARK    3  A    between atoms: C_6  and  C_8
REMARK    4  A    between atoms: C_13  and  N_14
REMARK    5  A    between atoms: N_14  and  C_15
REMARK    6  A    between atoms: C_15  and  C_16
REMARK    7  A    between atoms: C_20  and  C_22
REMARK                            x       y       z     vdW  Elec       q    Type
REMARK                         _______ _______ _______ _____ _____    ______ ____
ROOT
ATOM      1  O   UNL     1      -2.917 -10.445  14.192  0.00  0.00    -0.219 OA
ATOM      2  C   UNL     1      -3.736 -10.543  14.160  0.00  0.00    +0.199 C 
ATOM      3  C   UNL     1      -4.231 -10.695  14.803  0.00  0.00    +0.169 C 
ATOM     11  O   UNL     1      -5.004 -10.753  14.520  0.00  0.00    -0.350 OA
ATOM     12  C   UNL     1      -4.986 -10.636  13.703  0.00  0.00    +0.162 C 
ATOM     13  C   UNL     1      -4.203 -10.507  13.481  0.00  0.00    +0.135 C 
ENDROOT
BRANCH   3   4
ATOM      4  C   UNL     1      -3.995 -10.776  15.589  0.00  0.00    +0.147 C 
BRANCH   4   5
ATOM      5  N   UNL     1      -4.553 -10.727  16.194  0.00  0.00    -0.203 NA
ATOM      6  C   UNL     1      -4.310 -10.729  16.982  0.00  0.00    +0.241 C 
ATOM      7  O   UNL     1      -3.506 -10.781  17.165  0.00  0.00    -0.273 OA
BRANCH   6   8
ATOM      8  C   UNL     1      -4.868 -10.680  17.587  0.00  0.00    +0.078 C 
ATOM      9  C   UNL     1      -5.072 -10.779  18.380  0.00  0.00    +0.010 C 
ATOM     10  C   UNL     1      -5.630 -10.496  17.843  0.00  0.00    +0.010 C 
ENDBRANCH   6   8
ENDBRANCH   4   5
ENDBRANCH   3   4
BRANCH  13  14
ATOM     14  N   UNL     1      -3.932 -10.365  12.715  0.00  0.00    -0.209 NA
BRANCH  14  15
ATOM     15  C   UNL     1      -4.458 -10.113  12.131  0.00  0.00    +0.115 C 
BRANCH  15  16
ATOM     16  C   UNL     1      -4.170  -9.837  11.409  0.00  0.00    -0.004 A 
ATOM     17  C   UNL     1      -3.405 -10.029  11.169  0.00  0.00    -0.003 A 
ATOM     18  C   UNL     1      -3.118  -9.753  10.446  0.00  0.00    +0.000 A 
ATOM     19  C   UNL     1      -3.596  -9.284   9.963  0.00  0.00    +0.010 A 
ATOM     20  C   UNL     1      -4.362  -9.092  10.204  0.00  0.00    +0.068 A 
ATOM     21  C   UNL     1      -4.649  -9.368  10.926  0.00  0.00    +0.007 A 
BRANCH  20  22
ATOM     22  C   UNL     1      -4.840  -8.624   9.722  0.00  0.00    +0.100 C 
ATOM     23  N   UNL     1      -5.317  -8.157   9.238  0.00  0.00    -0.191 NA
ENDBRANCH  20  22
ENDBRANCH  15  16
ENDBRANCH  14  15
ENDBRANCH  13  14
TORSDOF 7
ENDMDL
