MODEL 1
REMARK VINA RESULT:     -12.5      0.000      0.000
REMARK  Name = 
REMARK  6 active torsions:
REMARK  status: ('A' for Active; 'I' for Inactive)
REMARK    1  A    between atoms: C_9  and  C_10
REMARK    2  A    between atoms: C_10  and  C_11
REMARK    3  A    between atoms: C_16  and  C_17
REMARK    4  A    between atoms: C_17  and  C_18
REMARK    5  A    between atoms: N_23  and  C_24
REMARK    6  A    between atoms: C_24  and  C_25
REMARK                            x       y       z     vdW  Elec       q    Type
REMARK                         _______ _______ _______ _____ _____    ______ ____
ROOT
ATOM     11  C   UNL     1      -3.965   1.051  24.769  0.00  0.00    +0.026 C 
ATOM     12  C   UNL     1      -3.212   1.371  24.673  0.00  0.00    +0.095 C 
ATOM     13  N   UNL     1      -3.083   2.174  24.811  0.00  0.00    -0.263 N 
ATOM     14  C   UNL     1      -3.709   2.658  25.045  0.00  0.00    +0.095 C 
ATOM     15  C   UNL     1      -4.464   2.338  25.141  0.00  0.00    +0.022 C 
ATOM     16  C   UNL     1      -4.592   1.535  25.003  0.00  0.00    +0.015 C 
ATOM     21  C   UNL     1      -2.329   2.494  24.715  0.00  0.00    +0.324 C 
ATOM     22  O   UNL     1      -1.702   2.010  24.480  0.00  0.00    -0.251 OA
ATOM     23  N   UNL     1      -2.200   3.297  24.852  0.00  0.00    -0.184 NA
ENDROOT
BRANCH  11  10
ATOM     10  C   UNL     1      -4.094   0.248  24.631  0.00  0.00    +0.047 C 
BRANCH  10   9
ATOM      1  C   UNL     1      -4.573  -2.344  23.253  0.00  0.00    +0.031 C 
ATOM      2  C   UNL     1      -4.132  -2.120  23.913  0.00  0.00    -0.022 A 
ATOM      3  C   UNL     1      -4.120  -1.331  24.152  0.00  0.00    -0.003 A 
ATOM      4  C   UNL     1      -3.678  -1.106  24.813  0.00  0.00    +0.009 A 
ATOM      5  C   UNL     1      -3.250  -1.672  25.233  0.00  0.00    -0.019 A 
ATOM      6  C   UNL     1      -2.809  -1.448  25.894  0.00  0.00    +0.053 C 
ATOM      7  C   UNL     1      -2.796  -0.658  26.133  0.00  0.00    +0.130 C 
ATOM      8  N   UNL     1      -3.225  -0.093  25.712  0.00  0.00    -0.274 NA
ATOM      9  C   UNL     1      -3.666  -0.317  25.052  0.00  0.00    +0.053 C 
ATOM     27  C   UNL     1      -3.262  -2.462  24.995  0.00  0.00    -0.004 A 
ATOM     28  C   UNL     1      -3.703  -2.686  24.334  0.00  0.00    -0.005 A 
ENDBRANCH  10   9
ENDBRANCH  11  10
BRANCH  16  17
ATOM     17  C   UNL     1      -5.347   1.215  25.099  0.00  0.00    +0.114 C 
BRANCH  17  18
ATOM     18  C   UNL     1      -5.982   1.706  25.283  0.00  0.00    +0.365 C 
ATOM     19  O   UNL     1      -6.132   1.912  26.068  0.00  0.00    -0.246 OA
ATOM     20  O   UNL     1      -6.469   1.993  24.682  0.00  0.00    -0.246 OA
ENDBRANCH  17  18
ENDBRANCH  16  17
BRANCH  23  24
ATOM     24  C   UNL     1      -1.446   3.617  24.756  0.00  0.00    +0.143 C 
BRANCH  24  25
ATOM     25  C   UNL     1      -1.246   4.323  25.133  0.00  0.00    -0.003 C 
ATOM     26  C   UNL     1      -0.740   4.859  24.763  0.00  0.00    -0.003 C 
ENDBRANCH  24  25
ENDBRANCH  23  24
TORSDOF 6
ENDMDL
MODEL 2
REMARK VINA RESULT:     -10.8      1.457      2.725
REMARK  Name = 
REMARK  6 active torsions:
REMARK  status: ('A' for Active; 'I' for Inactive)
REMARK    1  A    between atoms: C_9  and  C_10
REMARK    2  A    between atoms: C_10  and  C_11
REMARK    3  A    between atoms: C_16  and  C_17
REMARK    4  A    between atoms: C_17  and  C_18
REMARK    5  A    between atoms: N_23  and  C_24
REMARK    6  A    between atoms: C_24  and  C_25
REMARK                            x       y       z     vdW  Elec       q    Type
REMARK                         _______ _______ _______ _____ _____    ______ ____
ROOT
ATOM     11  C   UNL     1      -3.538   0.953  23.897  0.00  0.00    +0.026 C 
ATOM     12  C   UNL     1      -4.104   1.216  24.436  0.00  0.00    +0.095 C 
ATOM     13  N   UNL     1      -4.272   2.022  24.497  0.00  0.00    -0.263 N 
ATOM     14  C   UNL     1      -3.873   2.564  24.020  0.00  0.00    +0.095 C 
ATOM     15  C   UNL     1      -3.306   2.300  23.481  0.00  0.00    +0.022 C 
ATOM     16  C   UNL     1      -3.139   1.495  23.420  0.00  0.00    +0.015 C 
ATOM     21  C   UNL     1      -4.838   2.286  25.035  0.00  0.00    +0.324 C 
ATOM     22  O   UNL     1      -5.237   1.743  25.513  0.00  0.00    -0.251 OA
ATOM     23  N   UNL     1      -5.006   3.091  25.097  0.00  0.00    -0.184 NA
ENDROOT
BRANCH  11  10
ATOM     10  C   UNL     1      -3.370   0.147  23.836  0.00  0.00    +0.047 C 
BRANCH  10   9
ATOM      1  C   UNL     1      -4.434  -2.613  23.526  0.00  0.00    +0.031 C 
ATOM      2  C   UNL     1      -3.975  -2.238  24.099  0.00  0.00    -0.022 A 
ATOM      3  C   UNL     1      -3.774  -1.443  24.011  0.00  0.00    -0.003 A 
ATOM      4  C   UNL     1      -3.314  -1.067  24.585  0.00  0.00    +0.009 A 
ATOM      5  C   UNL     1      -3.056  -1.488  25.246  0.00  0.00    -0.019 A 
ATOM      6  C   UNL     1      -2.597  -1.113  25.820  0.00  0.00    +0.053 C 
ATOM      7  C   UNL     1      -2.395  -0.317  25.732  0.00  0.00    +0.130 C 
ATOM      8  N   UNL     1      -2.653   0.102  25.070  0.00  0.00    -0.274 NA
ATOM      9  C   UNL     1      -3.112  -0.273  24.497  0.00  0.00    +0.053 C 
ATOM     27  C   UNL     1      -3.258  -2.283  25.335  0.00  0.00    -0.004 A 
ATOM     28  C   UNL     1      -3.718  -2.659  24.761  0.00  0.00    -0.005 A 
ENDBRANCH  10   9
ENDBRANCH  11  10
BRANCH  16  17
ATOM     17  C   UNL     1      -2.572   1.231  22.881  0.00  0.00    +0.114 C 
BRANCH  17  18
ATOM     18  C   UNL     1      -2.181   1.771  22.397  0.00  0.00    +0.365 C 
ATOM     19  O   UNL     1      -1.471   2.110  22.646  0.00  0.00    -0.246 OA
ATOM     20  O   UNL     1      -2.499   1.974  21.663  0.00  0.00    -0.246 OA
ENDBRANCH  17  18
ENDBRANCH  16  17
BRANCH  23  24
ATOM     24  C   UNL     1      -5.572   3.355  25.635  0.00  0.00    +0.143 C 
BRANCH  24  25
ATOM     25  C   UNL     1      -5.599   4.151  25.850  0.00  0.00    -0.003 C 
ATOM     26  C   UNL     1      -6.264   4.605  25.673  0.00  0.00    -0.003 C 
ENDBRANCH  24  25
ENDBRANCH  23  24
TORSDOF 6
ENDMDL
MODEL 3
REMARK VINA RESULT:     -10.8      1.171      4.593
REMARK  Name = 
REMARK  6 active torsions:
REMARK  status: ('A' for Active; 'I' for Inactive)
REMARK    1  A    between atoms: C_9  and  C_10
REMARK    2  A    between atoms: C_10  and  C_11
REMARK    3  A    between atoms: C_16  and  C_17
REMARK    4  A    between atoms: C_17  and  C_18
REMARK    5  A    between atoms: N_23  and  C_24
REMARK    6  A    between atoms: C_24  and  C_25
REMARK                            x       y       z     vdW  Elec       q    Type
REMARK                         _______ _______ _______ _____ _____    ______ ____
ROOT
ATOM     11  C   UNL     1      -3.569   2.252  24.927  0.00  0.00    +0.026 C 
ATOM     12  C   UNL     1      -3.335   1.546  24.571  0.00  0.00    +0.095 C 
ATOM     13  N   UNL     1      -3.845   0.898  24.565  0.00  0.00    -0.263 N 
ATOM     14  C   UNL     1      -4.590   0.956  24.914  0.00  0.00    +0.095 C 
ATOM     15  C   UNL     1      -4.825   1.663  25.270  0.00  0.00    +0.022 C 
ATOM     16  C   UNL     1      -4.314   2.310  25.276  0.00  0.00    +0.015 C 
ATOM     21  C   UNL     1      -3.611   0.192  24.209  0.00  0.00    +0.324 C 
ATOM     22  O   UNL     1      -2.865   0.133  23.860  0.00  0.00    -0.251 OA
ATOM     23  N   UNL     1      -4.121  -0.457  24.202  0.00  0.00    -0.184 NA
ENDROOT
BRANCH  11  10
ATOM     10  C   UNL     1      -3.059   2.901  24.934  0.00  0.00    +0.047 C 
BRANCH  10   9
ATOM      1  C   UNL     1      -1.778   5.568  24.628  0.00  0.00    +0.031 C 
ATOM      2  C   UNL     1      -1.513   4.833  24.893  0.00  0.00    -0.022 A 
ATOM      3  C   UNL     1      -2.029   4.189  24.906  0.00  0.00    -0.003 A 
ATOM      4  C   UNL     1      -1.764   3.454  25.172  0.00  0.00    +0.009 A 
ATOM      5  C   UNL     1      -0.984   3.363  25.424  0.00  0.00    -0.019 A 
ATOM      6  C   UNL     1      -0.719   2.629  25.690  0.00  0.00    +0.053 C 
ATOM      7  C   UNL     1      -1.235   1.984  25.703  0.00  0.00    +0.130 C 
ATOM      8  N   UNL     1      -2.015   2.075  25.451  0.00  0.00    -0.274 NA
ATOM      9  C   UNL     1      -2.279   2.810  25.186  0.00  0.00    +0.053 C 
ATOM     27  C   UNL     1      -0.468   4.007  25.411  0.00  0.00    -0.004 A 
ATOM     28  C   UNL     1      -0.733   4.743  25.145  0.00  0.00    -0.005 A 
ENDBRANCH  10   9
ENDBRANCH  11  10
BRANCH  16  17
ATOM     17  C   UNL     1      -4.549   3.017  25.632  0.00  0.00    +0.114 C 
BRANCH  17  18
ATOM     18  C   UNL     1      -5.342   3.139  25.823  0.00  0.00    +0.365 C 
ATOM     19  O   UNL     1      -5.829   3.565  25.311  0.00  0.00    -0.246 OA
ATOM     20  O   UNL     1      -5.648   2.836  26.526  0.00  0.00    -0.246 OA
ENDBRANCH  17  18
ENDBRANCH  16  17
BRANCH  23  24
ATOM     24  C   UNL     1      -3.887  -1.163  23.847  0.00  0.00    +0.143 C 
BRANCH  24  25
ATOM     25  C   UNL     1      -4.372  -1.829  23.890  0.00  0.00    -0.003 C 
ATOM     26  C   UNL     1      -4.039  -2.582  23.926  0.00  0.00    -0.003 C 
ENDBRANCH  24  25
ENDBRANCH  23  24
TORSDOF 6
ENDMDL
MODEL 4
REMARK VINA RESULT:     -10.7      1.868      5.178
REMARK  Name = 
REMARK  6 active torsions:
REMARK  status: ('A' for Active; 'I' for Inactive)
REMARK    1  A    between atoms: C_9  and  C_10
REMARK    2  A    between atoms: C_10  and  C_11
REMARK    3  A    between atoms: C_16  and  C_17
REMARK    4  A    between atoms: C_17  and  C_18
REMARK    5  A    between atoms: N_23  and  C_24
REMARK    6  A    between atoms: C_24  and  C_25
REMARK                            x       y       z     vdW  Elec       q    Type
REMARK                         _______ _______ _______ _____ _____    ______ ____
ROOT
ATOM     11  C   UNL     1      -1.739   1.523  24.635  0.00  0.00    +0.026 C 
ATOM     12  C   UNL     1      -2.295   0.930  24.775  0.00  0.00    +0.095 C 
ATOM     13  N   UNL     1      -2.077   0.137  24.714  0.00  0.00    -0.263 N 
ATOM     14  C   UNL     1      -1.303  -0.064  24.513  0.00  0.00    +0.095 C 
ATOM     15  C   UNL     1      -0.746   0.529  24.373  0.00  0.00    +0.022 C 
ATOM     16  C   UNL     1      -0.964   1.322  24.433  0.00  0.00    +0.015 C 
ATOM     21  C   UNL     1      -2.633  -0.456  24.854  0.00  0.00    +0.324 C 
ATOM     22  O   UNL     1      -3.408  -0.255  25.056  0.00  0.00    -0.251 OA
ATOM     23  N   UNL     1      -2.415  -1.250  24.794  0.00  0.00    -0.184 NA
ENDROOT
BRANCH  11  10
ATOM     10  C   UNL     1      -1.956   2.316  24.695  0.00  0.00    +0.047 C 
BRANCH  10   9
ATOM      1  C   UNL     1      -3.285   4.148  26.626  0.00  0.00    +0.031 C 
ATOM      2  C   UNL     1      -3.465   3.893  25.862  0.00  0.00    -0.022 A 
ATOM      3  C   UNL     1      -2.962   3.367  25.474  0.00  0.00    -0.003 A 
ATOM      4  C   UNL     1      -3.142   3.112  24.709  0.00  0.00    +0.009 A 
ATOM      5  C   UNL     1      -3.825   3.384  24.335  0.00  0.00    -0.019 A 
ATOM      6  C   UNL     1      -4.005   3.129  23.571  0.00  0.00    +0.053 C 
ATOM      7  C   UNL     1      -3.502   2.603  23.182  0.00  0.00    +0.130 C 
ATOM      8  N   UNL     1      -2.819   2.332  23.557  0.00  0.00    -0.274 NA
ATOM      9  C   UNL     1      -2.639   2.587  24.321  0.00  0.00    +0.053 C 
ATOM     27  C   UNL     1      -4.329   3.910  24.723  0.00  0.00    -0.004 A 
ATOM     28  C   UNL     1      -4.149   4.165  25.488  0.00  0.00    -0.005 A 
ENDBRANCH  10   9
ENDBRANCH  11  10
BRANCH  16  17
ATOM     17  C   UNL     1      -0.407   1.915  24.293  0.00  0.00    +0.114 C 
BRANCH  17  18
ATOM     18  C   UNL     1       0.391   1.774  24.440  0.00  0.00    +0.365 C 
ATOM     19  O   UNL     1       0.711   1.948  25.181  0.00  0.00    -0.246 OA
ATOM     20  O   UNL     1       0.871   1.459  23.848  0.00  0.00    -0.246 OA
ENDBRANCH  17  18
ENDBRANCH  16  17
BRANCH  23  24
ATOM     24  C   UNL     1      -2.971  -1.842  24.934  0.00  0.00    +0.143 C 
BRANCH  24  25
ATOM     25  C   UNL     1      -2.822  -2.615  24.687  0.00  0.00    -0.003 C 
ATOM     26  C   UNL     1      -3.447  -3.142  24.582  0.00  0.00    -0.003 C 
ENDBRANCH  24  25
ENDBRANCH  23  24
TORSDOF 6
ENDMDL
MODEL 5
REMARK VINA RESULT:     -10.6      2.078      3.406
REMARK  Name = 
REMARK  6 active torsions:
REMARK  status: ('A' for Active; 'I' for Inactive)
REMARK    1  A    between atoms: C_9  and  C_10
REMARK    2  A    between atoms: C_10  and  C_11
REMARK    3  A    between atoms: C_16  and  C_17
REMARK    4  A    between atoms: C_17  and  C_18
REMARK    5  A    between atoms: N_23  and  C_24
REMARK    6  A    between atoms: C_24  and  C_25
REMARK                            x       y       z     vdW  Elec       q    Type
REMARK                         _______ _______ _______ _____ _____    ______ ____
ROOT
ATOM     11  C   UNL     1      -1.021   0.445  24.211  0.00  0.00    +0.026 C 
ATOM     12  C   UNL     1      -1.388   1.122  24.503  0.00  0.00    +0.095 C 
ATOM     13  N   UNL     1      -0.996   1.848  24.481  0.00  0.00    -0.263 N 
ATOM     14  C   UNL     1      -0.235   1.895  24.165  0.00  0.00    +0.095 C 
ATOM     15  C   UNL     1       0.133   1.217  23.872  0.00  0.00    +0.022 C 
ATOM     16  C   UNL     1      -0.260   0.492  23.895  0.00  0.00    +0.015 C 
ATOM     21  C   UNL     1      -1.363   2.525  24.773  0.00  0.00    +0.324 C 
ATOM     22  O   UNL     1      -2.125   2.478  25.089  0.00  0.00    -0.251 OA
ATOM     23  N   UNL     1      -0.971   3.251  24.751  0.00  0.00    -0.184 NA
ENDROOT
BRANCH  11  10
ATOM     10  C   UNL     1      -1.413  -0.281  24.233  0.00  0.00    +0.047 C 
BRANCH  10   9
ATOM      1  C   UNL     1      -4.068  -1.481  23.632  0.00  0.00    +0.031 C 
ATOM      2  C   UNL     1      -3.618  -1.401  24.319  0.00  0.00    -0.022 A 
ATOM      3  C   UNL     1      -2.883  -1.027  24.290  0.00  0.00    -0.003 A 
ATOM      4  C   UNL     1      -2.433  -0.947  24.978  0.00  0.00    +0.009 A 
ATOM      5  C   UNL     1      -2.720  -1.240  25.694  0.00  0.00    -0.019 A 
ATOM      6  C   UNL     1      -2.270  -1.160  26.381  0.00  0.00    +0.053 C 
ATOM      7  C   UNL     1      -1.535  -0.786  26.352  0.00  0.00    +0.130 C 
ATOM      8  N   UNL     1      -1.250  -0.493  25.636  0.00  0.00    -0.274 NA
ATOM      9  C   UNL     1      -1.699  -0.574  24.949  0.00  0.00    +0.053 C 
ATOM     27  C   UNL     1      -3.455  -1.614  25.724  0.00  0.00    -0.004 A 
ATOM     28  C   UNL     1      -3.905  -1.694  25.036  0.00  0.00    -0.005 A 
ENDBRANCH  10   9
ENDBRANCH  11  10
BRANCH  16  17
ATOM     17  C   UNL     1       0.108  -0.186  23.602  0.00  0.00    +0.114 C 
BRANCH  17  18
ATOM     18  C   UNL     1       0.760  -0.118  23.103  0.00  0.00    +0.365 C 
ATOM     19  O   UNL     1       1.522  -0.084  23.420  0.00  0.00    -0.246 OA
ATOM     20  O   UNL     1       0.653  -0.084  22.286  0.00  0.00    -0.246 OA
ENDBRANCH  17  18
ENDBRANCH  16  17
BRANCH  23  24
ATOM     24  C   UNL     1      -1.338   3.928  25.044  0.00  0.00    +0.143 C 
BRANCH  24  25
ATOM     25  C   UNL     1      -0.939   4.651  25.037  0.00  0.00    -0.003 C 
ATOM     26  C   UNL     1      -1.363   5.357  25.062  0.00  0.00    -0.003 C 
ENDBRANCH  24  25
ENDBRANCH  23  24
TORSDOF 6
ENDMDL
MODEL 6
REMARK VINA RESULT:     -10.6      2.765      3.897
REMARK  Name = 
REMARK  6 active torsions:
REMARK  status: ('A' for Active; 'I' for Inactive)
REMARK    1  A    between atoms: C_9  and  C_10
REMARK    2  A    between atoms: C_10  and  C_11
REMARK    3  A    between atoms: C_16  and  C_17
REMARK    4  A    between atoms: C_17  and  C_18
REMARK    5  A    between atoms: N_23  and  C_24
REMARK    6  A    between atoms: C_24  and  C_25
REMARK                            x       y       z     vdW  Elec       q    Type
REMARK                         _______ _______ _______ _____ _____    ______ ____
ROOT
ATOM     11  C   UNL     1      -1.065   0.996  24.849  0.00  0.00    +0.026 C 
ATOM     12  C   UNL     1      -0.662   0.517  24.313  0.00  0.00    +0.095 C 
ATOM     13  N   UNL     1       0.081   0.744  24.033  0.00  0.00    -0.263 N 
ATOM     14  C   UNL     1       0.419   1.451  24.290  0.00  0.00    +0.095 C 
ATOM     15  C   UNL     1       0.015   1.931  24.828  0.00  0.00    +0.022 C 
ATOM     16  C   UNL     1      -0.727   1.702  25.107  0.00  0.00    +0.015 C 
ATOM     21  C   UNL     1       0.484   0.266  23.497  0.00  0.00    +0.324 C 
ATOM     22  O   UNL     1       0.145  -0.442  23.239  0.00  0.00    -0.251 OA
ATOM     23  N   UNL     1       1.226   0.493  23.217  0.00  0.00    -0.184 NA
ENDROOT
BRANCH  11  10
ATOM     10  C   UNL     1      -1.807   0.768  25.129  0.00  0.00    +0.047 C 
BRANCH  10   9
ATOM      1  C   UNL     1      -3.264  -1.618  26.144  0.00  0.00    +0.031 C 
ATOM      2  C   UNL     1      -3.364  -1.121  25.493  0.00  0.00    -0.022 A 
ATOM      3  C   UNL     1      -2.844  -0.492  25.372  0.00  0.00    -0.003 A 
ATOM      4  C   UNL     1      -2.944   0.006  24.721  0.00  0.00    +0.009 A 
ATOM      5  C   UNL     1      -3.563  -0.127  24.191  0.00  0.00    -0.019 A 
ATOM      6  C   UNL     1      -3.662   0.370  23.540  0.00  0.00    +0.053 C 
ATOM      7  C   UNL     1      -3.143   1.000  23.419  0.00  0.00    +0.130 C 
ATOM      8  N   UNL     1      -2.525   1.133  23.949  0.00  0.00    -0.274 NA
ATOM      9  C   UNL     1      -2.425   0.635  24.600  0.00  0.00    +0.053 C 
ATOM     27  C   UNL     1      -4.082  -0.757  24.312  0.00  0.00    -0.004 A 
ATOM     28  C   UNL     1      -3.982  -1.255  24.963  0.00  0.00    -0.005 A 
ENDBRANCH  10   9
ENDBRANCH  11  10
BRANCH  16  17
ATOM     17  C   UNL     1      -1.130   2.182  25.644  0.00  0.00    +0.114 C 
BRANCH  17  18
ATOM     18  C   UNL     1      -0.741   2.809  26.010  0.00  0.00    +0.365 C 
ATOM     19  O   UNL     1      -0.814   3.574  25.708  0.00  0.00    -0.246 OA
ATOM     20  O   UNL     1      -0.278   2.674  26.679  0.00  0.00    -0.246 OA
ENDBRANCH  17  18
ENDBRANCH  16  17
BRANCH  23  24
ATOM     24  C   UNL     1       1.630   0.014  22.680  0.00  0.00    +0.143 C 
BRANCH  24  25
ATOM     25  C   UNL     1       2.451   0.067  22.616  0.00  0.00    -0.003 C 
ATOM     26  C   UNL     1       2.808   0.054  21.873  0.00  0.00    -0.003 C 
ENDBRANCH  24  25
ENDBRANCH  23  24
TORSDOF 6
ENDMDL
MODEL 7
REMARK VINA RESULT:     -10.5      2.447      4.311
REMARK  Name = 
REMARK  6 active torsions:
REMARK  status: ('A' for Active; 'I' for Inactive)
REMARK    1  A    between atoms: C_9  and  C_10
REMARK    2  A    between atoms: C_10  and  C_11
REMARK    3  A    between atoms: C_16  and  C_17
REMARK    4  A    between atoms: C_17  and  C_18
REMARK    5  A    between atoms: N_23  and  C_24
REMARK    6  A    between atoms: C_24  and  C_25
REMARK                            x       y       z     vdW  Elec       q    Type
REMARK                         _______ _______ _______ _____ _____    ______ ____
ROOT
ATOM     11  C   UNL     1      -2.504   0.762  24.799  0.00  0.00    +0.026 C 
ATOM     12  C   UNL     1      -1.789   0.982  24.454  0.00  0.00    +0.095 C 
ATOM     13  N   UNL     1      -1.241   0.405  24.235  0.00  0.00    -0.263 N 
ATOM     14  C   UNL     1      -1.409  -0.393  24.362  0.00  0.00    +0.095 C 
ATOM     15  C   UNL     1      -2.126  -0.613  24.708  0.00  0.00    +0.022 C 
ATOM     16  C   UNL     1      -2.673  -0.035  24.926  0.00  0.00    +0.015 C 
ATOM     21  C   UNL     1      -0.525   0.625  23.890  0.00  0.00    +0.324 C 
ATOM     22  O   UNL     1      -0.356   1.423  23.763  0.00  0.00    -0.251 OA
ATOM     23  N   UNL     1       0.023   0.048  23.671  0.00  0.00    -0.184 NA
ENDROOT
BRANCH  11  10
ATOM     10  C   UNL     1      -3.052   1.339  25.017  0.00  0.00    +0.047 C 
BRANCH  10   9
ATOM      1  C   UNL     1      -3.139   3.938  26.462  0.00  0.00    +0.031 C 
ATOM      2  C   UNL     1      -3.306   3.708  25.688  0.00  0.00    -0.022 A 
ATOM      3  C   UNL     1      -3.221   2.918  25.465  0.00  0.00    -0.003 A 
ATOM      4  C   UNL     1      -3.389   2.687  24.690  0.00  0.00    +0.009 A 
ATOM      5  C   UNL     1      -3.642   3.248  24.139  0.00  0.00    -0.019 A 
ATOM      6  C   UNL     1      -3.810   3.018  23.365  0.00  0.00    +0.053 C 
ATOM      7  C   UNL     1      -3.725   2.227  23.141  0.00  0.00    +0.130 C 
ATOM      8  N   UNL     1      -3.472   1.668  23.693  0.00  0.00    -0.274 NA
ATOM      9  C   UNL     1      -3.305   1.898  24.467  0.00  0.00    +0.053 C 
ATOM     27  C   UNL     1      -3.727   4.038  24.362  0.00  0.00    -0.004 A 
ATOM     28  C   UNL     1      -3.559   4.268  25.137  0.00  0.00    -0.005 A 
ENDBRANCH  10   9
ENDBRANCH  11  10
BRANCH  16  17
ATOM     17  C   UNL     1      -3.390  -0.256  25.272  0.00  0.00    +0.114 C 
BRANCH  17  18
ATOM     18  C   UNL     1      -3.522  -1.042  25.480  0.00  0.00    +0.365 C 
ATOM     19  O   UNL     1      -3.317  -1.309  26.235  0.00  0.00    -0.246 OA
ATOM     20  O   UNL     1      -3.859  -1.563  24.937  0.00  0.00    -0.246 OA
ENDBRANCH  17  18
ENDBRANCH  16  17
BRANCH  23  24
ATOM     24  C   UNL     1       0.739   0.268  23.326  0.00  0.00    +0.143 C 
BRANCH  24  25
ATOM     25  C   UNL     1       1.177  -0.284  22.897  0.00  0.00    -0.003 C 
ATOM     26  C   UNL     1       1.922  -0.083  22.606  0.00  0.00    -0.003 C 
ENDBRANCH  24  25
ENDBRANCH  23  24
TORSDOF 6
ENDMDL
MODEL 8
REMARK VINA RESULT:     -10.2      2.702      3.587
REMARK  Name = 
REMARK  6 active torsions:
REMARK  status: ('A' for Active; 'I' for Inactive)
REMARK    1  A    between atoms: C_9  and  C_10
REMARK    2  A    between atoms: C_10  and  C_11
REMARK    3  A    between atoms: C_16  and  C_17
REMARK    4  A    between atoms: C_17  and  C_18
REMARK    5  A    between atoms: N_23  and  C_24
REMARK    6  A    between atoms: C_24  and  C_25
REMARK                            x       y       z     vdW  Elec       q    Type
REMARK                         _______ _______ _______ _____ _____    ______ ____
ROOT
ATOM     11  C   UNL     1      -1.195   1.019  24.526  0.00  0.00    +0.026 C 
ATOM     12  C   UNL     1      -0.682   0.530  24.106  0.00  0.00    +0.095 C 
ATOM     13  N   UNL     1       0.058   0.811  23.871  0.00  0.00    -0.263 N 
ATOM     14  C   UNL     1       0.283   1.583  24.057  0.00  0.00    +0.095 C 
ATOM     15  C   UNL     1      -0.232   2.073  24.477  0.00  0.00    +0.022 C 
ATOM     16  C   UNL     1      -0.971   1.791  24.712  0.00  0.00    +0.015 C 
ATOM     21  C   UNL     1       0.572   0.322  23.451  0.00  0.00    +0.324 C 
ATOM     22  O   UNL     1       0.346  -0.451  23.265  0.00  0.00    -0.251 OA
ATOM     23  N   UNL     1       1.311   0.604  23.217  0.00  0.00    -0.184 NA
ENDROOT
BRANCH  11  10
ATOM     10  C   UNL     1      -1.935   0.737  24.761  0.00  0.00    +0.047 C 
BRANCH  10   9
ATOM      1  C   UNL     1      -4.444  -0.586  23.865  0.00  0.00    +0.031 C 
ATOM      2  C   UNL     1      -3.859  -0.780  24.414  0.00  0.00    -0.022 A 
ATOM      3  C   UNL     1      -3.218  -0.273  24.529  0.00  0.00    -0.003 A 
ATOM      4  C   UNL     1      -2.633  -0.467  25.079  0.00  0.00    +0.009 A 
ATOM      5  C   UNL     1      -2.691  -1.167  25.513  0.00  0.00    -0.019 A 
ATOM      6  C   UNL     1      -2.106  -1.360  26.062  0.00  0.00    +0.053 C 
ATOM      7  C   UNL     1      -1.464  -0.854  26.178  0.00  0.00    +0.130 C 
ATOM      8  N   UNL     1      -1.408  -0.155  25.743  0.00  0.00    -0.274 NA
ATOM      9  C   UNL     1      -1.992   0.039  25.194  0.00  0.00    +0.053 C 
ATOM     27  C   UNL     1      -3.332  -1.673  25.398  0.00  0.00    -0.004 A 
ATOM     28  C   UNL     1      -3.917  -1.479  24.848  0.00  0.00    -0.005 A 
ENDBRANCH  10   9
ENDBRANCH  11  10
BRANCH  16  17
ATOM     17  C   UNL     1      -1.485   2.281  25.132  0.00  0.00    +0.114 C 
BRANCH  17  18
ATOM     18  C   UNL     1      -1.296   3.074  25.247  0.00  0.00    +0.365 C 
ATOM     19  O   UNL     1      -1.541   3.641  24.700  0.00  0.00    -0.246 OA
ATOM     20  O   UNL     1      -0.861   3.303  25.910  0.00  0.00    -0.246 OA
ENDBRANCH  17  18
ENDBRANCH  16  17
BRANCH  23  24
ATOM     24  C   UNL     1       1.825   0.114  22.797  0.00  0.00    +0.143 C 
BRANCH  24  25
ATOM     25  C   UNL     1       2.631   0.286  22.772  0.00  0.00    -0.003 C 
ATOM     26  C   UNL     1       3.061   0.153  22.082  0.00  0.00    -0.003 C 
ENDBRANCH  24  25
ENDBRANCH  23  24
TORSDOF 6
ENDMDL
