MODEL 1
REMARK VINA RESULT:     -11.5      0.000      0.000
REMARK  Name = 
REMARK  4 active torsions:
REMARK  status: ('A' for Active; 'I' for Inactive)
REMARK    1  A    between atoms: N_3  and  C_4
REMARK    2  A    between atoms: C_4  and  C_5
REMARK    3  A    between atoms: N_14  and  C_15
REMARK    4  A    between atoms: C_15  and  C_16
REMARK                            x       y       z     vdW  Elec       q    Type
REMARK                         _______ _______ _______ _____ _____    ______ ____
ROOT
ATOM      1  O   UNL     1      -0.040   1.146  24.685  0.00  0.00    -0.252 OA
ATOM      2  C   UNL     1      -0.865   1.156  24.726  0.00  0.00    +0.308 C 
ATOM      3  N   UNL     1      -1.351   1.794  24.537  0.00  0.00    -0.257 N 
ATOM     11  C   UNL     1      -2.134   1.562  24.658  0.00  0.00    +0.117 C 
ATOM     12  C   UNL     1      -2.131   0.781  24.921  0.00  0.00    +0.113 C 
ATOM     13  C   UNL     1      -2.740   0.265  25.128  0.00  0.00    +0.094 C 
ATOM     14  N   UNL     1      -2.566  -0.501  25.377  0.00  0.00    -0.266 NA
ATOM     22  C   UNL     1      -1.781  -0.753  25.419  0.00  0.00    +0.094 C 
ATOM     23  C   UNL     1      -1.171  -0.238  25.212  0.00  0.00    +0.112 C 
ATOM     24  N   UNL     1      -1.346   0.530  24.963  0.00  0.00    -0.261 N 
ENDROOT
BRANCH   3   4
ATOM      4  C   UNL     1      -1.100   2.535  24.274  0.00  0.00    +0.141 C 
BRANCH   4   5
ATOM      5  C   UNL     1      -1.381   3.219  24.637  0.00  0.00    +0.079 A 
ATOM      6  N   UNL     1      -2.136   3.501  24.458  0.00  0.00    -0.246 NA
ATOM      7  C   UNL     1      -2.418   4.186  24.822  0.00  0.00    +0.099 A 
ATOM      8  C   UNL     1      -1.945   4.589  25.364  0.00  0.00    +0.021 A 
ATOM      9  C   UNL     1      -1.191   4.308  25.543  0.00  0.00    +0.003 A 
ATOM     10  C   UNL     1      -0.908   3.623  25.180  0.00  0.00    +0.016 A 
ENDBRANCH   4   5
ENDBRANCH   3   4
BRANCH  14  15
ATOM     15  C   UNL     1      -3.175  -1.018  25.584  0.00  0.00    +0.099 C 
BRANCH  15  16
ATOM     16  C   UNL     1      -3.476  -1.546  25.027  0.00  0.00    -0.006 A 
ATOM     17  C   UNL     1      -3.228  -2.334  25.029  0.00  0.00    -0.003 A 
ATOM     18  C   UNL     1      -3.528  -2.862  24.473  0.00  0.00    -0.000 A 
ATOM     19  C   UNL     1      -4.077  -2.605  23.913  0.00  0.00    -0.000 A 
ATOM     20  C   UNL     1      -4.325  -1.818  23.910  0.00  0.00    -0.000 A 
ATOM     21  C   UNL     1      -4.024  -1.289  24.468  0.00  0.00    -0.003 A 
ENDBRANCH  15  16
ENDBRANCH  14  15
TORSDOF 4
ENDMDL
MODEL 2
REMARK VINA RESULT:     -11.3      1.162      4.792
REMARK  Name = 
REMARK  4 active torsions:
REMARK  status: ('A' for Active; 'I' for Inactive)
REMARK    1  A    between atoms: N_3  and  C_4
REMARK    2  A    between atoms: C_4  and  C_5
REMARK    3  A    between atoms: N_14  and  C_15
REMARK    4  A    between atoms: C_15  and  C_16
REMARK                            x       y       z     vdW  Elec       q    Type
REMARK                         _______ _______ _______ _____ _____    ______ ____
ROOT
ATOM      1  O   UNL     1      -0.192  -0.395  23.698  0.00  0.00    -0.252 OA
ATOM      2  C   UNL     1      -0.579  -0.056  24.344  0.00  0.00    +0.308 C 
ATOM      3  N   UNL     1      -1.167  -0.415  24.798  0.00  0.00    -0.257 N 
ATOM     11  C   UNL     1      -1.398   0.120  25.384  0.00  0.00    +0.117 C 
ATOM     12  C   UNL     1      -0.953   0.807  25.290  0.00  0.00    +0.113 C 
ATOM     13  C   UNL     1      -0.942   1.519  25.707  0.00  0.00    +0.094 C 
ATOM     14  N   UNL     1      -0.426   2.122  25.483  0.00  0.00    -0.266 NA
ATOM     22  C   UNL     1       0.080   2.013  24.840  0.00  0.00    +0.094 C 
ATOM     23  C   UNL     1       0.070   1.302  24.422  0.00  0.00    +0.112 C 
ATOM     24  N   UNL     1      -0.447   0.698  24.648  0.00  0.00    -0.261 N 
ENDROOT
BRANCH   3   4
ATOM      4  C   UNL     1      -1.471  -1.173  24.687  0.00  0.00    +0.141 C 
BRANCH   4   5
ATOM      5  C   UNL     1      -2.285  -1.302  24.726  0.00  0.00    +0.079 A 
ATOM      6  N   UNL     1      -2.767  -1.082  24.093  0.00  0.00    -0.246 NA
ATOM      7  C   UNL     1      -3.581  -1.211  24.131  0.00  0.00    +0.099 A 
ATOM      8  C   UNL     1      -3.913  -1.559  24.802  0.00  0.00    +0.021 A 
ATOM      9  C   UNL     1      -3.431  -1.778  25.434  0.00  0.00    +0.003 A 
ATOM     10  C   UNL     1      -2.617  -1.650  25.396  0.00  0.00    +0.016 A 
ENDBRANCH   4   5
ENDBRANCH   3   4
BRANCH  14  15
ATOM     15  C   UNL     1      -0.416   2.834  25.899  0.00  0.00    +0.099 C 
BRANCH  15  16
ATOM     16  C   UNL     1      -0.881   3.466  25.649  0.00  0.00    -0.006 A 
ATOM     17  C   UNL     1      -1.662   3.533  25.907  0.00  0.00    -0.003 A 
ATOM     18  C   UNL     1      -2.128   4.165  25.657  0.00  0.00    -0.000 A 
ATOM     19  C   UNL     1      -1.813   4.732  25.147  0.00  0.00    -0.000 A 
ATOM     20  C   UNL     1      -1.033   4.667  24.888  0.00  0.00    -0.000 A 
ATOM     21  C   UNL     1      -0.567   4.033  25.139  0.00  0.00    -0.003 A 
ENDBRANCH  15  16
ENDBRANCH  14  15
TORSDOF 4
ENDMDL
MODEL 3
REMARK VINA RESULT:     -11.3      1.464      1.953
REMARK  Name = 
REMARK  4 active torsions:
REMARK  status: ('A' for Active; 'I' for Inactive)
REMARK    1  A    between atoms: N_3  and  C_4
REMARK    2  A    between atoms: C_4  and  C_5
REMARK    3  A    between atoms: N_14  and  C_15
REMARK    4  A    between atoms: C_15  and  C_16
REMARK                            x       y       z     vdW  Elec       q    Type
REMARK                         _______ _______ _______ _____ _____    ______ ____
ROOT
ATOM      1  O   UNL     1      -4.658   2.550  24.211  0.00  0.00    -0.252 OA
ATOM      2  C   UNL     1      -4.003   2.097  24.429  0.00  0.00    +0.308 C 
ATOM      3  N   UNL     1      -3.215   2.335  24.389  0.00  0.00    -0.257 N 
ATOM     11  C   UNL     1      -2.746   1.712  24.661  0.00  0.00    +0.117 C 
ATOM     12  C   UNL     1      -3.246   1.090  24.869  0.00  0.00    +0.113 C 
ATOM     13  C   UNL     1      -3.094   0.337  25.170  0.00  0.00    +0.094 C 
ATOM     14  N   UNL     1      -3.719  -0.178  25.328  0.00  0.00    -0.266 NA
ATOM     22  C   UNL     1      -4.496   0.060  25.185  0.00  0.00    +0.094 C 
ATOM     23  C   UNL     1      -4.648   0.813  24.884  0.00  0.00    +0.112 C 
ATOM     24  N   UNL     1      -4.023   1.328  24.726  0.00  0.00    -0.261 N 
ENDROOT
BRANCH   3   4
ATOM      4  C   UNL     1      -2.942   3.067  24.124  0.00  0.00    +0.141 C 
BRANCH   4   5
ATOM      5  C   UNL     1      -2.343   3.458  24.535  0.00  0.00    +0.079 A 
ATOM      6  N   UNL     1      -1.552   3.305  24.356  0.00  0.00    -0.246 NA
ATOM      7  C   UNL     1      -0.954   3.696  24.768  0.00  0.00    +0.099 A 
ATOM      8  C   UNL     1      -1.146   4.241  25.357  0.00  0.00    +0.021 A 
ATOM      9  C   UNL     1      -1.936   4.394  25.535  0.00  0.00    +0.003 A 
ATOM     10  C   UNL     1      -2.535   4.003  25.124  0.00  0.00    +0.016 A 
ENDBRANCH   4   5
ENDBRANCH   3   4
BRANCH  14  15
ATOM     15  C   UNL     1      -3.567  -0.931  25.630  0.00  0.00    +0.099 C 
BRANCH  15  16
ATOM     16  C   UNL     1      -3.399  -1.555  25.117  0.00  0.00    -0.006 A 
ATOM     17  C   UNL     1      -4.009  -1.924  24.702  0.00  0.00    -0.003 A 
ATOM     18  C   UNL     1      -3.841  -2.547  24.189  0.00  0.00    -0.000 A 
ATOM     19  C   UNL     1      -3.062  -2.803  24.092  0.00  0.00    -0.000 A 
ATOM     20  C   UNL     1      -2.452  -2.435  24.507  0.00  0.00    -0.000 A 
ATOM     21  C   UNL     1      -2.621  -1.810  25.020  0.00  0.00    -0.003 A 
ENDBRANCH  15  16
ENDBRANCH  14  15
TORSDOF 4
ENDMDL
MODEL 4
REMARK VINA RESULT:     -10.8      1.601      5.225
REMARK  Name = 
REMARK  4 active torsions:
REMARK  status: ('A' for Active; 'I' for Inactive)
REMARK    1  A    between atoms: N_3  and  C_4
REMARK    2  A    between atoms: C_4  and  C_5
REMARK    3  A    between atoms: N_14  and  C_15
REMARK    4  A    between atoms: C_15  and  C_16
REMARK                            x       y       z     vdW  Elec       q    Type
REMARK                         _______ _______ _______ _____ _____    ______ ____
ROOT
ATOM      1  O   UNL     1      -5.277   0.941  25.171  0.00  0.00    -0.252 OA
ATOM      2  C   UNL     1      -4.469   0.902  25.008  0.00  0.00    +0.308 C 
ATOM      3  N   UNL     1      -3.986   0.240  25.102  0.00  0.00    -0.257 N 
ATOM     11  C   UNL     1      -3.221   0.448  24.874  0.00  0.00    +0.117 C 
ATOM     12  C   UNL     1      -3.231   1.238  24.640  0.00  0.00    +0.113 C 
ATOM     13  C   UNL     1      -2.637   1.740  24.362  0.00  0.00    +0.094 C 
ATOM     14  N   UNL     1      -2.815   2.521  24.166  0.00  0.00    -0.266 NA
ATOM     22  C   UNL     1      -3.586   2.802  24.249  0.00  0.00    +0.094 C 
ATOM     23  C   UNL     1      -4.180   2.301  24.527  0.00  0.00    +0.112 C 
ATOM     24  N   UNL     1      -4.002   1.519  24.722  0.00  0.00    -0.261 N 
ENDROOT
BRANCH   3   4
ATOM      4  C   UNL     1      -4.227  -0.500  25.375  0.00  0.00    +0.141 C 
BRANCH   4   5
ATOM      5  C   UNL     1      -3.986  -1.184  24.981  0.00  0.00    +0.079 A 
ATOM      6  N   UNL     1      -4.334  -1.389  24.261  0.00  0.00    -0.246 NA
ATOM      7  C   UNL     1      -4.093  -2.072  23.867  0.00  0.00    +0.099 A 
ATOM      8  C   UNL     1      -3.506  -2.551  24.193  0.00  0.00    +0.021 A 
ATOM      9  C   UNL     1      -3.159  -2.347  24.912  0.00  0.00    +0.003 A 
ATOM     10  C   UNL     1      -3.399  -1.663  25.307  0.00  0.00    +0.016 A 
ENDBRANCH   4   5
ENDBRANCH   3   4
BRANCH  14  15
ATOM     15  C   UNL     1      -2.221   3.022  23.888  0.00  0.00    +0.099 C 
BRANCH  15  16
ATOM     16  C   UNL     1      -1.793   3.488  24.416  0.00  0.00    -0.006 A 
ATOM     17  C   UNL     1      -2.114   4.194  24.699  0.00  0.00    -0.003 A 
ATOM     18  C   UNL     1      -1.686   4.660  25.227  0.00  0.00    -0.000 A 
ATOM     19  C   UNL     1      -0.936   4.421  25.474  0.00  0.00    -0.000 A 
ATOM     20  C   UNL     1      -0.614   3.715  25.193  0.00  0.00    -0.000 A 
ATOM     21  C   UNL     1      -1.043   3.249  24.664  0.00  0.00    -0.003 A 
ENDBRANCH  15  16
ENDBRANCH  14  15
TORSDOF 4
ENDMDL
