MODEL 1
REMARK VINA RESULT:     -12.2      0.000      0.000
REMARK  Name = 
REMARK  7 active torsions:
REMARK  status: ('A' for Active; 'I' for Inactive)
REMARK    1  A    between atoms: C_6  and  N_26
REMARK    2  A    between atoms: C_8  and  C_9
REMARK    3  A    between atoms: N_11  and  C_12
REMARK    4  A    between atoms: C_12  and  C_13
REMARK    5  A    between atoms: C_12  and  C_23
REMARK    6  A    between atoms: C_13  and  C_14
REMARK    7  A    between atoms: N_29  and  C_30
REMARK                            x       y       z     vdW  Elec       q    Type
REMARK                         _______ _______ _______ _____ _____    ______ ____
ROOT
ATOM      1  C   UNL     1       0.432   1.883  23.753  0.00  0.00    +0.095 C 
ATOM      2  C   UNL     1       0.287   1.072  23.784  0.00  0.00    +0.226 C 
ATOM      3  O   UNL     1       0.860   0.540  23.520  0.00  0.00    -0.275 OA
ATOM      4  N   UNL     1      -0.430   0.792  24.080  0.00  0.00    -0.271 N 
ATOM      5  C   UNL     1      -0.652   0.000  24.146  0.00  0.00    +0.115 C 
ATOM      6  C   UNL     1      -1.411  -0.026  24.469  0.00  0.00    +0.119 C 
ATOM      7  C   UNL     1      -1.658   0.750  24.603  0.00  0.00    +0.053 C 
ATOM      8  C   UNL     1      -1.052   1.255  24.363  0.00  0.00    +0.155 C 
ENDROOT
BRANCH   6  26
ATOM     26  N   UNL     1      -1.846  -0.709  24.630  0.00  0.00    -0.187 NA
ATOM     27  C   UNL     1      -1.623  -1.204  25.251  0.00  0.00    +0.344 C 
ATOM     28  O   UNL     1      -0.964  -1.016  25.711  0.00  0.00    -0.249 OA
ATOM     29  N   UNL     1      -2.058  -1.886  25.411  0.00  0.00    -0.159 NA
BRANCH  29  30
ATOM     30  C   UNL     1      -2.716  -2.073  24.951  0.00  0.00    +0.102 A 
ATOM     31  C   UNL     1      -2.685  -2.710  24.427  0.00  0.00    +0.158 A 
ATOM     32  F   UNL     1      -1.997  -3.159  24.363  0.00  0.00    -0.203 F 
ATOM     33  C   UNL     1      -3.344  -2.898  23.966  0.00  0.00    +0.061 A 
ATOM     34  C   UNL     1      -4.033  -2.447  24.030  0.00  0.00    +0.142 A 
ATOM     35  F   UNL     1      -4.692  -2.635  23.570  0.00  0.00    -0.204 F 
ATOM     36  C   UNL     1      -4.064  -1.812  24.554  0.00  0.00    +0.031 A 
ATOM     37  C   UNL     1      -3.405  -1.624  25.015  0.00  0.00    +0.021 A 
ENDBRANCH  29  30
ENDBRANCH   6  26
BRANCH   8   9
ATOM      9  C   UNL     1      -1.065   2.080  24.400  0.00  0.00    +0.260 C 
ATOM     10  O   UNL     1      -0.807   2.525  23.755  0.00  0.00    -0.272 OA
ATOM     11  N   UNL     1      -1.336   2.458  25.081  0.00  0.00    -0.196 NA
BRANCH  11  12
ATOM     12  C   UNL     1      -1.349   3.282  25.117  0.00  0.00    +0.179 C 
BRANCH  12  23
ATOM     23  C   UNL     1      -0.693   3.692  25.407  0.00  0.00    +0.281 C 
ATOM     24  N   UNL     1      -0.432   4.375  25.027  0.00  0.00    -0.086 NA
ATOM     25  O   UNL     1      -0.300   3.416  26.079  0.00  0.00    -0.270 OA
ENDBRANCH  12  23
BRANCH  12  13
ATOM     13  C   UNL     1      -2.016   3.696  24.863  0.00  0.00    +0.059 C 
BRANCH  13  14
ATOM     14  C   UNL     1      -2.670   3.768  25.359  0.00  0.00    +0.001 A 
ATOM     15  C   UNL     1      -2.650   3.926  26.169  0.00  0.00    +0.095 A 
ATOM     16  N   UNL     1      -3.428   3.950  26.443  0.00  0.00    -0.244 NA
ATOM     17  C   UNL     1      -3.928   3.806  25.804  0.00  0.00    +0.081 A 
ATOM     18  C   UNL     1      -3.460   3.694  25.134  0.00  0.00    +0.015 A 
ATOM     19  C   UNL     1      -3.814   3.538  24.405  0.00  0.00    +0.001 A 
ATOM     20  C   UNL     1      -4.635   3.495  24.346  0.00  0.00    +0.000 A 
ATOM     21  C   UNL     1      -5.103   3.608  25.016  0.00  0.00    +0.002 A 
ATOM     22  C   UNL     1      -4.750   3.763  25.745  0.00  0.00    +0.019 A 
ENDBRANCH  13  14
ENDBRANCH  12  13
ENDBRANCH  11  12
ENDBRANCH   8   9
TORSDOF 7
ENDMDL
MODEL 2
REMARK VINA RESULT:     -11.1      2.031      3.558
REMARK  Name = 
REMARK  7 active torsions:
REMARK  status: ('A' for Active; 'I' for Inactive)
REMARK    1  A    between atoms: C_6  and  N_26
REMARK    2  A    between atoms: C_8  and  C_9
REMARK    3  A    between atoms: N_11  and  C_12
REMARK    4  A    between atoms: C_12  and  C_13
REMARK    5  A    between atoms: C_12  and  C_23
REMARK    6  A    between atoms: C_13  and  C_14
REMARK    7  A    between atoms: N_29  and  C_30
REMARK                            x       y       z     vdW  Elec       q    Type
REMARK                         _______ _______ _______ _____ _____    ______ ____
ROOT
ATOM      1  C   UNL     1      -5.574   2.823  25.532  0.00  0.00    +0.095 C 
ATOM      2  C   UNL     1      -5.678   2.035  25.314  0.00  0.00    +0.226 C 
ATOM      3  O   UNL     1      -6.436   1.707  25.302  0.00  0.00    -0.275 OA
ATOM      4  N   UNL     1      -5.027   1.574  25.107  0.00  0.00    -0.271 N 
ATOM      5  C   UNL     1      -5.046   0.782  24.878  0.00  0.00    +0.115 C 
ATOM      6  C   UNL     1      -4.271   0.542  24.723  0.00  0.00    +0.119 C 
ATOM      7  C   UNL     1      -3.774   1.187  24.856  0.00  0.00    +0.053 C 
ATOM      8  C   UNL     1      -4.240   1.824  25.093  0.00  0.00    +0.155 C 
ENDROOT
BRANCH   6  26
ATOM     26  N   UNL     1      -4.036  -0.210  24.477  0.00  0.00    -0.187 NA
ATOM     27  C   UNL     1      -3.860  -0.348  23.684  0.00  0.00    +0.344 C 
ATOM     28  O   UNL     1      -3.918   0.265  23.135  0.00  0.00    -0.249 OA
ATOM     29  N   UNL     1      -3.624  -1.100  23.438  0.00  0.00    -0.159 NA
BRANCH  29  30
ATOM     30  C   UNL     1      -3.566  -1.713  23.987  0.00  0.00    +0.102 A 
ATOM     31  C   UNL     1      -4.081  -2.357  23.942  0.00  0.00    +0.158 A 
ATOM     32  F   UNL     1      -4.654  -2.387  23.349  0.00  0.00    -0.203 F 
ATOM     33  C   UNL     1      -4.023  -2.971  24.491  0.00  0.00    +0.061 A 
ATOM     34  C   UNL     1      -3.450  -2.940  25.084  0.00  0.00    +0.142 A 
ATOM     35  F   UNL     1      -3.391  -3.553  25.632  0.00  0.00    -0.204 F 
ATOM     36  C   UNL     1      -2.936  -2.297  25.128  0.00  0.00    +0.031 A 
ATOM     37  C   UNL     1      -2.994  -1.683  24.579  0.00  0.00    +0.021 A 
ENDBRANCH  29  30
ENDBRANCH   6  26
BRANCH   8   9
ATOM      9  C   UNL     1      -3.968   2.580  25.284  0.00  0.00    +0.260 C 
ATOM     10  O   UNL     1      -4.304   2.991  25.915  0.00  0.00    -0.272 OA
ATOM     11  N   UNL     1      -3.362   2.923  24.843  0.00  0.00    -0.196 NA
BRANCH  11  12
ATOM     12  C   UNL     1      -3.090   3.678  25.033  0.00  0.00    +0.179 C 
BRANCH  12  23
ATOM     23  C   UNL     1      -3.471   4.343  24.725  0.00  0.00    +0.281 C 
ATOM     24  N   UNL     1      -3.675   4.969  25.221  0.00  0.00    -0.086 NA
ATOM     25  O   UNL     1      -3.648   4.379  23.920  0.00  0.00    -0.270 OA
ENDBRANCH  12  23
BRANCH  12  13
ATOM     13  C   UNL     1      -2.438   3.770  25.531  0.00  0.00    +0.059 C 
BRANCH  13  14
ATOM     14  C   UNL     1      -1.677   3.642  25.241  0.00  0.00    +0.001 A 
ATOM     15  C   UNL     1      -1.389   3.887  24.508  0.00  0.00    +0.095 A 
ATOM     16  N   UNL     1      -0.604   3.644  24.448  0.00  0.00    -0.244 NA
ATOM     17  C   UNL     1      -0.406   3.248  25.143  0.00  0.00    +0.081 A 
ATOM     18  C   UNL     1      -1.069   3.247  25.634  0.00  0.00    +0.015 A 
ATOM     19  C   UNL     1      -1.033   2.886  26.375  0.00  0.00    +0.001 A 
ATOM     20  C   UNL     1      -0.334   2.527  26.625  0.00  0.00    +0.000 A 
ATOM     21  C   UNL     1       0.329   2.528  26.135  0.00  0.00    +0.002 A 
ATOM     22  C   UNL     1       0.294   2.888  25.394  0.00  0.00    +0.019 A 
ENDBRANCH  13  14
ENDBRANCH  12  13
ENDBRANCH  11  12
ENDBRANCH   8   9
TORSDOF 7
ENDMDL
MODEL 3
REMARK VINA RESULT:     -10.7      1.933      4.946
REMARK  Name = 
REMARK  7 active torsions:
REMARK  status: ('A' for Active; 'I' for Inactive)
REMARK    1  A    between atoms: C_6  and  N_26
REMARK    2  A    between atoms: C_8  and  C_9
REMARK    3  A    between atoms: N_11  and  C_12
REMARK    4  A    between atoms: C_12  and  C_13
REMARK    5  A    between atoms: C_12  and  C_23
REMARK    6  A    between atoms: C_13  and  C_14
REMARK    7  A    between atoms: N_29  and  C_30
REMARK                            x       y       z     vdW  Elec       q    Type
REMARK                         _______ _______ _______ _____ _____    ______ ____
ROOT
ATOM      1  C   UNL     1       0.135   2.013  25.428  0.00  0.00    +0.095 C 
ATOM      2  C   UNL     1      -0.480   2.563  25.424  0.00  0.00    +0.226 C 
ATOM      3  O   UNL     1      -0.325   3.356  25.592  0.00  0.00    -0.275 OA
ATOM      4  N   UNL     1      -1.249   2.321  25.252  0.00  0.00    -0.271 N 
ATOM      5  C   UNL     1      -1.916   2.806  25.228  0.00  0.00    +0.115 C 
ATOM      6  C   UNL     1      -2.566   2.335  25.035  0.00  0.00    +0.119 C 
ATOM      7  C   UNL     1      -2.300   1.559  24.940  0.00  0.00    +0.053 C 
ATOM      8  C   UNL     1      -1.487   1.551  25.074  0.00  0.00    +0.155 C 
ENDROOT
BRANCH   6  26
ATOM     26  N   UNL     1      -3.345   2.595  24.951  0.00  0.00    -0.187 NA
ATOM     27  C   UNL     1      -3.519   3.217  24.438  0.00  0.00    +0.344 C 
ATOM     28  O   UNL     1      -2.915   3.579  24.008  0.00  0.00    -0.249 OA
ATOM     29  N   UNL     1      -4.298   3.476  24.354  0.00  0.00    -0.159 NA
BRANCH  29  30
ATOM     30  C   UNL     1      -4.902   3.114  24.784  0.00  0.00    +0.102 A 
ATOM     31  C   UNL     1      -5.267   3.519  25.403  0.00  0.00    +0.158 A 
ATOM     32  F   UNL     1      -5.028   4.285  25.593  0.00  0.00    -0.203 F 
ATOM     33  C   UNL     1      -5.872   3.157  25.834  0.00  0.00    +0.061 A 
ATOM     34  C   UNL     1      -6.110   2.390  25.643  0.00  0.00    +0.142 A 
ATOM     35  F   UNL     1      -6.714   2.028  26.072  0.00  0.00    -0.204 F 
ATOM     36  C   UNL     1      -5.745   1.986  25.024  0.00  0.00    +0.031 A 
ATOM     37  C   UNL     1      -5.141   2.348  24.593  0.00  0.00    +0.021 A 
ENDBRANCH  29  30
ENDBRANCH   6  26
BRANCH   8   9
ATOM      9  C   UNL     1      -0.996   0.888  25.038  0.00  0.00    +0.260 C 
ATOM     10  O   UNL     1      -0.367   0.811  25.565  0.00  0.00    -0.272 OA
ATOM     11  N   UNL     1      -1.135   0.303  24.473  0.00  0.00    -0.196 NA
BRANCH  11  12
ATOM     12  C   UNL     1      -0.645  -0.359  24.437  0.00  0.00    +0.179 C 
BRANCH  12  23
ATOM     23  C   UNL     1       0.023  -0.351  23.951  0.00  0.00    +0.281 C 
ATOM     24  N   UNL     1      -0.025  -0.043  23.189  0.00  0.00    -0.086 NA
ATOM     25  O   UNL     1       0.739  -0.652  24.232  0.00  0.00    -0.270 OA
ENDBRANCH  12  23
BRANCH  12  13
ATOM     13  C   UNL     1      -0.822  -1.029  24.885  0.00  0.00    +0.059 C 
BRANCH  13  14
ATOM     14  C   UNL     1      -1.333  -1.603  24.586  0.00  0.00    +0.001 A 
ATOM     15  C   UNL     1      -1.235  -2.020  23.880  0.00  0.00    +0.095 A 
ATOM     16  N   UNL     1      -1.873  -2.536  23.798  0.00  0.00    -0.244 NA
ATOM     17  C   UNL     1      -2.365  -2.438  24.452  0.00  0.00    +0.081 A 
ATOM     18  C   UNL     1      -2.032  -1.861  24.939  0.00  0.00    +0.015 A 
ATOM     19  C   UNL     1      -2.408  -1.647  25.641  0.00  0.00    +0.001 A 
ATOM     20  C   UNL     1      -3.117  -2.008  25.856  0.00  0.00    +0.000 A 
ATOM     21  C   UNL     1      -3.451  -2.584  25.369  0.00  0.00    +0.002 A 
ATOM     22  C   UNL     1      -3.076  -2.799  24.667  0.00  0.00    +0.019 A 
ENDBRANCH  13  14
ENDBRANCH  12  13
ENDBRANCH  11  12
ENDBRANCH   8   9
TORSDOF 7
ENDMDL
MODEL 4
REMARK VINA RESULT:     -10.6      1.704      2.614
REMARK  Name = 
REMARK  7 active torsions:
REMARK  status: ('A' for Active; 'I' for Inactive)
REMARK    1  A    between atoms: C_6  and  N_26
REMARK    2  A    between atoms: C_8  and  C_9
REMARK    3  A    between atoms: N_11  and  C_12
REMARK    4  A    between atoms: C_12  and  C_13
REMARK    5  A    between atoms: C_12  and  C_23
REMARK    6  A    between atoms: C_13  and  C_14
REMARK    7  A    between atoms: N_29  and  C_30
REMARK                            x       y       z     vdW  Elec       q    Type
REMARK                         _______ _______ _______ _____ _____    ______ ____
ROOT
ATOM      1  C   UNL     1      -3.414   2.738  22.766  0.00  0.00    +0.095 C 
ATOM      2  C   UNL     1      -3.106   1.976  22.694  0.00  0.00    +0.226 C 
ATOM      3  O   UNL     1      -2.764   1.736  21.982  0.00  0.00    -0.275 OA
ATOM      4  N   UNL     1      -3.139   1.455  23.331  0.00  0.00    -0.271 N 
ATOM      5  C   UNL     1      -2.855   0.680  23.340  0.00  0.00    +0.115 C 
ATOM      6  C   UNL     1      -3.003   0.363  24.088  0.00  0.00    +0.119 C 
ATOM      7  C   UNL     1      -3.379   0.942  24.541  0.00  0.00    +0.053 C 
ATOM      8  C   UNL     1      -3.463   1.616  24.073  0.00  0.00    +0.155 C 
ENDROOT
BRANCH   6  26
ATOM     26  N   UNL     1      -2.809  -0.399  24.338  0.00  0.00    -0.187 NA
ATOM     27  C   UNL     1      -2.101  -0.534  24.738  0.00  0.00    +0.344 C 
ATOM     28  O   UNL     1      -1.586   0.093  24.889  0.00  0.00    -0.249 OA
ATOM     29  N   UNL     1      -1.907  -1.296  24.989  0.00  0.00    -0.159 NA
BRANCH  29  30
ATOM     30  C   UNL     1      -2.422  -1.923  24.838  0.00  0.00    +0.102 A 
ATOM     31  C   UNL     1      -2.200  -2.522  24.316  0.00  0.00    +0.158 A 
ATOM     32  F   UNL     1      -1.465  -2.494  23.944  0.00  0.00    -0.203 F 
ATOM     33  C   UNL     1      -2.715  -3.149  24.165  0.00  0.00    +0.061 A 
ATOM     34  C   UNL     1      -3.451  -3.177  24.538  0.00  0.00    +0.142 A 
ATOM     35  F   UNL     1      -3.966  -3.803  24.388  0.00  0.00    -0.204 F 
ATOM     36  C   UNL     1      -3.672  -2.578  25.060  0.00  0.00    +0.031 A 
ATOM     37  C   UNL     1      -3.157  -1.950  25.210  0.00  0.00    +0.021 A 
ENDBRANCH  29  30
ENDBRANCH   6  26
BRANCH   8   9
ATOM      9  C   UNL     1      -3.810   2.328  24.307  0.00  0.00    +0.260 C 
ATOM     10  O   UNL     1      -4.340   2.712  23.805  0.00  0.00    -0.272 OA
ATOM     11  N   UNL     1      -3.627   2.654  25.042  0.00  0.00    -0.196 NA
BRANCH  11  12
ATOM     12  C   UNL     1      -3.974   3.365  25.275  0.00  0.00    +0.179 C 
BRANCH  12  23
ATOM     23  C   UNL     1      -4.753   3.373  25.548  0.00  0.00    +0.281 C 
ATOM     24  N   UNL     1      -5.276   3.954  25.287  0.00  0.00    -0.086 NA
ATOM     25  O   UNL     1      -5.009   2.798  26.082  0.00  0.00    -0.270 OA
ENDBRANCH  12  23
BRANCH  12  13
ATOM     13  C   UNL     1      -3.543   4.067  25.236  0.00  0.00    +0.059 C 
BRANCH  13  14
ATOM     14  C   UNL     1      -2.780   4.101  25.548  0.00  0.00    +0.001 A 
ATOM     15  C   UNL     1      -2.511   3.700  26.217  0.00  0.00    +0.095 A 
ATOM     16  N   UNL     1      -1.717   3.894  26.329  0.00  0.00    -0.244 NA
ATOM     17  C   UNL     1      -1.495   4.414  25.728  0.00  0.00    +0.081 A 
ATOM     18  C   UNL     1      -2.152   4.542  25.246  0.00  0.00    +0.015 A 
ATOM     19  C   UNL     1      -2.093   5.044  24.594  0.00  0.00    +0.001 A 
ATOM     20  C   UNL     1      -1.377   5.417  24.424  0.00  0.00    +0.000 A 
ATOM     21  C   UNL     1      -0.721   5.289  24.907  0.00  0.00    +0.002 A 
ATOM     22  C   UNL     1      -0.779   4.787  25.559  0.00  0.00    +0.019 A 
ENDBRANCH  13  14
ENDBRANCH  12  13
ENDBRANCH  11  12
ENDBRANCH   8   9
TORSDOF 7
ENDMDL
MODEL 5
REMARK VINA RESULT:     -10.5      2.327      4.738
REMARK  Name = 
REMARK  7 active torsions:
REMARK  status: ('A' for Active; 'I' for Inactive)
REMARK    1  A    between atoms: C_6  and  N_26
REMARK    2  A    between atoms: C_8  and  C_9
REMARK    3  A    between atoms: N_11  and  C_12
REMARK    4  A    between atoms: C_12  and  C_13
REMARK    5  A    between atoms: C_12  and  C_23
REMARK    6  A    between atoms: C_13  and  C_14
REMARK    7  A    between atoms: N_29  and  C_30
REMARK                            x       y       z     vdW  Elec       q    Type
REMARK                         _______ _______ _______ _____ _____    ______ ____
ROOT
ATOM      1  C   UNL     1      -1.362   2.897  25.417  0.00  0.00    +0.095 C 
ATOM      2  C   UNL     1      -0.602   2.744  25.136  0.00  0.00    +0.226 C 
ATOM      3  O   UNL     1       0.012   3.271  25.300  0.00  0.00    -0.275 OA
ATOM      4  N   UNL     1      -0.455   2.065  24.692  0.00  0.00    -0.271 N 
ATOM      5  C   UNL     1       0.273   1.841  24.376  0.00  0.00    +0.115 C 
ATOM      6  C   UNL     1       0.168   1.128  23.974  0.00  0.00    +0.119 C 
ATOM      7  C   UNL     1      -0.626   0.912  24.041  0.00  0.00    +0.053 C 
ATOM      8  C   UNL     1      -1.010   1.491  24.485  0.00  0.00    +0.155 C 
ENDROOT
BRANCH   6  26
ATOM     26  N   UNL     1       0.754   0.705  23.574  0.00  0.00    -0.187 NA
ATOM     27  C   UNL     1       0.650  -0.099  23.422  0.00  0.00    +0.344 C 
ATOM     28  O   UNL     1      -0.038  -0.481  23.670  0.00  0.00    -0.249 OA
ATOM     29  N   UNL     1       1.236  -0.522  23.023  0.00  0.00    -0.159 NA
BRANCH  29  30
ATOM     30  C   UNL     1       1.924  -0.140  22.775  0.00  0.00    +0.102 A 
ATOM     31  C   UNL     1       2.096  -0.081  21.971  0.00  0.00    +0.158 A 
ATOM     32  F   UNL     1       1.581  -0.404  21.414  0.00  0.00    -0.203 F 
ATOM     33  C   UNL     1       2.785   0.301  21.722  0.00  0.00    +0.061 A 
ATOM     34  C   UNL     1       3.300   0.623  22.281  0.00  0.00    +0.142 A 
ATOM     35  F   UNL     1       3.988   1.005  22.033  0.00  0.00    -0.204 F 
ATOM     36  C   UNL     1       3.128   0.564  23.084  0.00  0.00    +0.031 A 
ATOM     37  C   UNL     1       2.439   0.182  23.333  0.00  0.00    +0.021 A 
ENDBRANCH  29  30
ENDBRANCH   6  26
BRANCH   8   9
ATOM      9  C   UNL     1      -1.811   1.496  24.687  0.00  0.00    +0.260 C 
ATOM     10  O   UNL     1      -2.054   1.829  25.401  0.00  0.00    -0.272 OA
ATOM     11  N   UNL     1      -2.367   1.167  24.174  0.00  0.00    -0.196 NA
BRANCH  11  12
ATOM     12  C   UNL     1      -3.167   1.172  24.376  0.00  0.00    +0.179 C 
BRANCH  12  23
ATOM     23  C   UNL     1      -3.650   1.794  24.130  0.00  0.00    +0.281 C 
ATOM     24  N   UNL     1      -4.190   2.130  24.654  0.00  0.00    -0.086 NA
ATOM     25  O   UNL     1      -3.591   2.080  23.357  0.00  0.00    -0.270 OA
ENDBRANCH  12  23
BRANCH  12  13
ATOM     13  C   UNL     1      -3.484   0.555  24.823  0.00  0.00    +0.059 C 
BRANCH  13  14
ATOM     14  C   UNL     1      -3.654  -0.169  24.466  0.00  0.00    +0.001 A 
ATOM     15  C   UNL     1      -3.922  -0.277  23.693  0.00  0.00    +0.095 A 
ATOM     16  N   UNL     1      -4.019  -1.087  23.569  0.00  0.00    -0.244 NA
ATOM     17  C   UNL     1      -3.812  -1.478  24.264  0.00  0.00    +0.081 A 
ATOM     18  C   UNL     1      -3.586  -0.911  24.819  0.00  0.00    +0.015 A 
ATOM     19  C   UNL     1      -3.347  -1.144  25.573  0.00  0.00    +0.001 A 
ATOM     20  C   UNL     1      -3.335  -1.944  25.774  0.00  0.00    +0.000 A 
ATOM     21  C   UNL     1      -3.561  -2.511  25.219  0.00  0.00    +0.002 A 
ATOM     22  C   UNL     1      -3.800  -2.279  24.464  0.00  0.00    +0.019 A 
ENDBRANCH  13  14
ENDBRANCH  12  13
ENDBRANCH  11  12
ENDBRANCH   8   9
TORSDOF 7
ENDMDL
MODEL 6
REMARK VINA RESULT:     -10.5      2.520      3.942
REMARK  Name = 
REMARK  7 active torsions:
REMARK  status: ('A' for Active; 'I' for Inactive)
REMARK    1  A    between atoms: C_6  and  N_26
REMARK    2  A    between atoms: C_8  and  C_9
REMARK    3  A    between atoms: N_11  and  C_12
REMARK    4  A    between atoms: C_12  and  C_13
REMARK    5  A    between atoms: C_12  and  C_23
REMARK    6  A    between atoms: C_13  and  C_14
REMARK    7  A    between atoms: N_29  and  C_30
REMARK                            x       y       z     vdW  Elec       q    Type
REMARK                         _______ _______ _______ _____ _____    ______ ____
ROOT
ATOM      1  C   UNL     1      -1.312   3.162  25.747  0.00  0.00    +0.095 C 
ATOM      2  C   UNL     1      -0.634   2.700  25.665  0.00  0.00    +0.226 C 
ATOM      3  O   UNL     1      -0.074   2.677  26.270  0.00  0.00    -0.275 OA
ATOM      4  N   UNL     1      -0.516   2.260  24.977  0.00  0.00    -0.271 N 
ATOM      5  C   UNL     1       0.131   1.774  24.817  0.00  0.00    +0.115 C 
ATOM      6  C   UNL     1       0.023   1.442  24.069  0.00  0.00    +0.119 C 
ATOM      7  C   UNL     1      -0.692   1.723  23.767  0.00  0.00    +0.053 C 
ATOM      8  C   UNL     1      -1.025   2.228  24.328  0.00  0.00    +0.155 C 
ENDROOT
BRANCH   6  26
ATOM     26  N   UNL     1       0.538   0.921  23.690  0.00  0.00    -0.187 NA
ATOM     27  C   UNL     1       0.345   0.121  23.629  0.00  0.00    +0.344 C 
ATOM     28  O   UNL     1      -0.364  -0.157  23.947  0.00  0.00    -0.249 OA
ATOM     29  N   UNL     1       0.861  -0.400  23.250  0.00  0.00    -0.159 NA
BRANCH  29  30
ATOM     30  C   UNL     1       1.569  -0.121  22.933  0.00  0.00    +0.102 A 
ATOM     31  C   UNL     1       1.705  -0.171  22.121  0.00  0.00    +0.158 A 
ATOM     32  F   UNL     1       1.133  -0.500  21.626  0.00  0.00    -0.203 F 
ATOM     33  C   UNL     1       2.414   0.107  21.802  0.00  0.00    +0.061 A 
ATOM     34  C   UNL     1       2.986   0.437  22.298  0.00  0.00    +0.142 A 
ATOM     35  F   UNL     1       3.695   0.715  21.981  0.00  0.00    -0.204 F 
ATOM     36  C   UNL     1       2.850   0.487  23.109  0.00  0.00    +0.031 A 
ATOM     37  C   UNL     1       2.141   0.208  23.427  0.00  0.00    +0.021 A 
ENDBRANCH  29  30
ENDBRANCH   6  26
BRANCH   8   9
ATOM      9  C   UNL     1      -1.741   2.631  24.254  0.00  0.00    +0.260 C 
ATOM     10  O   UNL     1      -1.783   3.434  24.437  0.00  0.00    -0.272 OA
ATOM     11  N   UNL     1      -2.415   2.231  23.996  0.00  0.00    -0.196 NA
BRANCH  11  12
ATOM     12  C   UNL     1      -3.130   2.633  23.921  0.00  0.00    +0.179 C 
BRANCH  12  23
ATOM     23  C   UNL     1      -3.336   2.978  23.199  0.00  0.00    +0.281 C 
ATOM     24  N   UNL     1      -3.239   2.556  22.498  0.00  0.00    -0.086 NA
ATOM     25  O   UNL     1      -3.640   3.745  23.181  0.00  0.00    -0.270 OA
ENDBRANCH  12  23
BRANCH  12  13
ATOM     13  C   UNL     1      -3.640   2.693  24.567  0.00  0.00    +0.059 C 
BRANCH  13  14
ATOM     14  C   UNL     1      -4.188   2.095  24.717  0.00  0.00    +0.001 A 
ATOM     15  C   UNL     1      -4.164   1.328  24.413  0.00  0.00    +0.095 A 
ATOM     16  N   UNL     1      -4.817   0.917  24.705  0.00  0.00    -0.244 NA
ATOM     17  C   UNL     1      -5.244   1.430  25.189  0.00  0.00    +0.081 A 
ATOM     18  C   UNL     1      -4.856   2.157  25.196  0.00  0.00    +0.015 A 
ATOM     19  C   UNL     1      -5.161   2.783  25.640  0.00  0.00    +0.001 A 
ATOM     20  C   UNL     1      -5.853   2.682  26.075  0.00  0.00    +0.000 A 
ATOM     21  C   UNL     1      -6.242   1.954  26.068  0.00  0.00    +0.002 A 
ATOM     22  C   UNL     1      -5.938   1.328  25.625  0.00  0.00    +0.019 A 
ENDBRANCH  13  14
ENDBRANCH  12  13
ENDBRANCH  11  12
ENDBRANCH   8   9
TORSDOF 7
ENDMDL
MODEL 7
REMARK VINA RESULT:     -10.2      1.898      5.049
REMARK  Name = 
REMARK  7 active torsions:
REMARK  status: ('A' for Active; 'I' for Inactive)
REMARK    1  A    between atoms: C_6  and  N_26
REMARK    2  A    between atoms: C_8  and  C_9
REMARK    3  A    between atoms: N_11  and  C_12
REMARK    4  A    between atoms: C_12  and  C_13
REMARK    5  A    between atoms: C_12  and  C_23
REMARK    6  A    between atoms: C_13  and  C_14
REMARK    7  A    between atoms: N_29  and  C_30
REMARK                            x       y       z     vdW  Elec       q    Type
REMARK                         _______ _______ _______ _____ _____    ______ ____
ROOT
ATOM      1  C   UNL     1       0.679   0.540  23.885  0.00  0.00    +0.095 C 
ATOM      2  C   UNL     1       0.462   1.332  23.962  0.00  0.00    +0.226 C 
ATOM      3  O   UNL     1       0.962   1.926  23.681  0.00  0.00    -0.275 OA
ATOM      4  N   UNL     1      -0.254   1.531  24.319  0.00  0.00    -0.271 N 
ATOM      5  C   UNL     1      -0.543   2.295  24.433  0.00  0.00    +0.115 C 
ATOM      6  C   UNL     1      -1.276   2.237  24.810  0.00  0.00    +0.119 C 
ATOM      7  C   UNL     1      -1.439   1.437  24.928  0.00  0.00    +0.053 C 
ATOM      8  C   UNL     1      -0.808   1.001  24.624  0.00  0.00    +0.155 C 
ENDROOT
BRANCH   6  26
ATOM     26  N   UNL     1      -1.760   2.869  25.029  0.00  0.00    -0.187 NA
ATOM     27  C   UNL     1      -1.425   3.552  25.349  0.00  0.00    +0.344 C 
ATOM     28  O   UNL     1      -0.608   3.604  25.449  0.00  0.00    -0.249 OA
ATOM     29  N   UNL     1      -1.909   4.184  25.568  0.00  0.00    -0.159 NA
BRANCH  29  30
ATOM     30  C   UNL     1      -2.727   4.131  25.468  0.00  0.00    +0.102 A 
ATOM     31  C   UNL     1      -3.222   4.116  26.128  0.00  0.00    +0.158 A 
ATOM     32  F   UNL     1      -2.902   4.153  26.886  0.00  0.00    -0.203 F 
ATOM     33  C   UNL     1      -4.040   4.064  26.028  0.00  0.00    +0.061 A 
ATOM     34  C   UNL     1      -4.361   4.027  25.268  0.00  0.00    +0.142 A 
ATOM     35  F   UNL     1      -5.178   3.975  25.168  0.00  0.00    -0.204 F 
ATOM     36  C   UNL     1      -3.865   4.042  24.610  0.00  0.00    +0.031 A 
ATOM     37  C   UNL     1      -3.047   4.095  24.710  0.00  0.00    +0.021 A 
ENDBRANCH  29  30
ENDBRANCH   6  26
BRANCH   8   9
ATOM      9  C   UNL     1      -0.742   0.178  24.626  0.00  0.00    +0.260 C 
ATOM     10  O   UNL     1      -0.308  -0.202  24.036  0.00  0.00    -0.272 OA
ATOM     11  N   UNL     1      -1.109  -0.264  25.218  0.00  0.00    -0.196 NA
BRANCH  11  12
ATOM     12  C   UNL     1      -1.043  -1.086  25.220  0.00  0.00    +0.179 C 
BRANCH  12  23
ATOM     23  C   UNL     1      -0.466  -1.452  25.684  0.00  0.00    +0.281 C 
ATOM     24  N   UNL     1       0.014  -2.037  25.360  0.00  0.00    -0.086 NA
ATOM     25  O   UNL     1      -0.372  -1.230  26.474  0.00  0.00    -0.270 OA
ENDBRANCH  12  23
BRANCH  12  13
ATOM     13  C   UNL     1      -1.552  -1.542  24.758  0.00  0.00    +0.059 C 
BRANCH  13  14
ATOM     14  C   UNL     1      -2.337  -1.645  24.987  0.00  0.00    +0.001 A 
ATOM     15  C   UNL     1      -2.683  -1.353  25.677  0.00  0.00    +0.095 A 
ATOM     16  N   UNL     1      -3.474  -1.585  25.683  0.00  0.00    -0.244 NA
ATOM     17  C   UNL     1      -3.618  -2.019  24.997  0.00  0.00    +0.081 A 
ATOM     18  C   UNL     1      -2.915  -2.056  24.567  0.00  0.00    +0.015 A 
ATOM     19  C   UNL     1      -2.893  -2.461  23.848  0.00  0.00    +0.001 A 
ATOM     20  C   UNL     1      -3.572  -2.827  23.559  0.00  0.00    +0.000 A 
ATOM     21  C   UNL     1      -4.275  -2.790  23.989  0.00  0.00    +0.002 A 
ATOM     22  C   UNL     1      -4.299  -2.387  24.708  0.00  0.00    +0.019 A 
ENDBRANCH  13  14
ENDBRANCH  12  13
ENDBRANCH  11  12
ENDBRANCH   8   9
TORSDOF 7
ENDMDL
