MODEL 1
REMARK VINA RESULT:     -11.7      0.000      0.000
REMARK  Name = 
REMARK  8 active torsions:
REMARK  status: ('A' for Active; 'I' for Inactive)
REMARK    1  A    between atoms: C_2  and  N_3
REMARK    2  A    between atoms: C_4  and  O_6
REMARK    3  A    between atoms: O_6  and  C_7
REMARK    4  A    between atoms: C_12  and  C_13
REMARK    5  A    between atoms: C_13  and  C_14
REMARK    6  A    between atoms: N_16  and  C_17
REMARK    7  A    between atoms: C_17  and  C_18
REMARK    8  A    between atoms: C_31  and  C_33
REMARK                            x       y       z     vdW  Elec       q    Type
REMARK                         _______ _______ _______ _____ _____    ______ ____
ROOT
ATOM      7  C   UNL     1      -3.486   3.498  25.402  0.00  0.00    +0.173 C 
ATOM      8  C   UNL     1      -3.002   2.838  25.302  0.00  0.00    +0.044 C 
ATOM      9  C   UNL     1      -3.338   2.100  25.146  0.00  0.00    +0.004 C 
ATOM     10  C   UNL     1      -4.156   2.024  25.089  0.00  0.00    +0.003 C 
ATOM     11  C   UNL     1      -3.673   1.364  24.989  0.00  0.00    +0.000 C 
ATOM     12  C   UNL     1      -4.492   1.287  24.933  0.00  0.00    +0.040 C 
ATOM     26  C   UNL     1      -5.312   1.210  24.876  0.00  0.00    +0.152 C 
ATOM     27  O   UNL     1      -5.647   0.474  24.719  0.00  0.00    -0.223 OA
ATOM     28  C   UNL     1      -5.795   1.871  24.976  0.00  0.00    +0.033 C 
ATOM     29  C   UNL     1      -5.460   2.608  25.132  0.00  0.00    +0.003 C 
ATOM     30  C   UNL     1      -4.641   2.685  25.189  0.00  0.00    +0.006 C 
ATOM     31  C   UNL     1      -4.305   3.422  25.345  0.00  0.00    +0.068 C 
ATOM     32  C   UNL     1      -5.045   3.785  25.376  0.00  0.00    +0.006 C 
ENDROOT
BRANCH  31  33
ATOM     33  C   UNL     1      -4.419   4.226  25.491  0.00  0.00    +0.185 C 
ATOM     34  O   UNL     1      -5.183   4.530  25.548  0.00  0.00    -0.220 OA
ENDBRANCH  31  33
BRANCH   7   6
ATOM      6  O   UNL     1      -3.150   4.236  25.559  0.00  0.00    -0.437 OA
BRANCH   6   4
ATOM      3  N   UNL     1      -1.903   4.738  25.075  0.00  0.00    -0.169 NA
ATOM      4  C   UNL     1      -2.332   4.309  25.634  0.00  0.00    +0.421 C 
ATOM      5  O   UNL     1      -1.943   3.954  26.269  0.00  0.00    -0.225 OA
BRANCH   3   2
ATOM      1  C   UNL     1      -0.675   5.360  24.689  0.00  0.00    +0.025 C 
ATOM      2  C   UNL     1      -1.084   4.811  25.150  0.00  0.00    +0.119 C 
ENDBRANCH   3   2
ENDBRANCH   6   4
ENDBRANCH   7   6
BRANCH  12  13
ATOM     13  C   UNL     1      -4.008   0.627  24.833  0.00  0.00    +0.089 C 
BRANCH  13  14
ATOM     14  C   UNL     1      -3.918   0.290  24.086  0.00  0.00    +0.242 C 
ATOM     15  O   UNL     1      -4.103   0.727  23.411  0.00  0.00    -0.273 OA
ATOM     16  N   UNL     1      -3.641  -0.484  24.013  0.00  0.00    -0.201 NA
BRANCH  16  17
ATOM     17  C   UNL     1      -3.456  -0.922  24.688  0.00  0.00    +0.142 C 
BRANCH  17  18
ATOM     18  C   UNL     1      -3.165  -1.690  24.614  0.00  0.00    +0.004 A 
ATOM     19  C   UNL     1      -3.685  -2.318  24.487  0.00  0.00    +0.027 A 
ATOM     20  C   UNL     1      -3.394  -3.086  24.413  0.00  0.00    +0.142 A 
ATOM     21  F   UNL     1      -3.914  -3.714  24.286  0.00  0.00    -0.204 F 
ATOM     22  C   UNL     1      -2.582  -3.227  24.466  0.00  0.00    +0.059 A 
ATOM     23  C   UNL     1      -2.062  -2.599  24.593  0.00  0.00    +0.142 A 
ATOM     24  F   UNL     1      -1.251  -2.739  24.646  0.00  0.00    -0.204 F 
ATOM     25  C   UNL     1      -2.354  -1.830  24.667  0.00  0.00    +0.027 A 
ENDBRANCH  17  18
ENDBRANCH  16  17
ENDBRANCH  13  14
ENDBRANCH  12  13
TORSDOF 8
ENDMDL
MODEL 2
REMARK VINA RESULT:     -11.6      1.518      2.143
REMARK  Name = 
REMARK  8 active torsions:
REMARK  status: ('A' for Active; 'I' for Inactive)
REMARK    1  A    between atoms: C_2  and  N_3
REMARK    2  A    between atoms: C_4  and  O_6
REMARK    3  A    between atoms: O_6  and  C_7
REMARK    4  A    between atoms: C_12  and  C_13
REMARK    5  A    between atoms: C_13  and  C_14
REMARK    6  A    between atoms: N_16  and  C_17
REMARK    7  A    between atoms: C_17  and  C_18
REMARK    8  A    between atoms: C_31  and  C_33
REMARK                            x       y       z     vdW  Elec       q    Type
REMARK                         _______ _______ _______ _____ _____    ______ ____
ROOT
ATOM      7  C   UNL     1      -1.608   3.089  25.280  0.00  0.00    +0.173 C 
ATOM      8  C   UNL     1      -1.676   2.272  25.196  0.00  0.00    +0.044 C 
ATOM      9  C   UNL     1      -2.397   1.940  24.968  0.00  0.00    +0.004 C 
ATOM     10  C   UNL     1      -3.047   2.425  24.825  0.00  0.00    +0.003 C 
ATOM     11  C   UNL     1      -3.117   1.608  24.740  0.00  0.00    +0.000 C 
ATOM     12  C   UNL     1      -3.768   2.094  24.597  0.00  0.00    +0.040 C 
ATOM     26  C   UNL     1      -4.419   2.580  24.454  0.00  0.00    +0.152 C 
ATOM     27  O   UNL     1      -5.139   2.248  24.227  0.00  0.00    -0.223 OA
ATOM     28  C   UNL     1      -4.350   3.397  24.539  0.00  0.00    +0.033 C 
ATOM     29  C   UNL     1      -3.630   3.730  24.766  0.00  0.00    +0.003 C 
ATOM     30  C   UNL     1      -2.978   3.244  24.909  0.00  0.00    +0.006 C 
ATOM     31  C   UNL     1      -2.258   3.575  25.137  0.00  0.00    +0.068 C 
ATOM     32  C   UNL     1      -2.569   4.339  25.111  0.00  0.00    +0.006 C 
ENDROOT
BRANCH  31  33
ATOM     33  C   UNL     1      -1.825   4.256  25.312  0.00  0.00    +0.185 C 
ATOM     34  O   UNL     1      -2.135   4.998  25.132  0.00  0.00    -0.220 OA
ENDBRANCH  31  33
BRANCH   7   6
ATOM      6  O   UNL     1      -0.887   3.421  25.508  0.00  0.00    -0.437 OA
BRANCH   6   4
ATOM      3  N   UNL     1      -0.080   2.894  26.562  0.00  0.00    -0.169 NA
ATOM      4  C   UNL     1      -0.270   2.935  25.760  0.00  0.00    +0.421 C 
ATOM      5  O   UNL     1       0.155   2.491  25.211  0.00  0.00    -0.225 OA
BRANCH   3   2
ATOM      1  C   UNL     1       0.785   2.430  27.601  0.00  0.00    +0.025 C 
ATOM      2  C   UNL     1       0.538   2.407  26.814  0.00  0.00    +0.119 C 
ENDBRANCH   3   2
ENDBRANCH   6   4
ENDBRANCH   7   6
BRANCH  12  13
ATOM     13  C   UNL     1      -3.836   1.276  24.513  0.00  0.00    +0.089 C 
BRANCH  13  14
ATOM     14  C   UNL     1      -4.345   0.852  25.003  0.00  0.00    +0.242 C 
ATOM     15  O   UNL     1      -4.814   1.249  25.554  0.00  0.00    -0.273 OA
ATOM     16  N   UNL     1      -4.386   0.030  24.943  0.00  0.00    -0.201 NA
BRANCH  16  17
ATOM     17  C   UNL     1      -3.917  -0.368  24.391  0.00  0.00    +0.142 C 
BRANCH  17  18
ATOM     18  C   UNL     1      -3.900  -1.192  24.384  0.00  0.00    +0.004 A 
ATOM     19  C   UNL     1      -3.477  -1.602  24.961  0.00  0.00    +0.027 A 
ATOM     20  C   UNL     1      -3.461  -2.426  24.952  0.00  0.00    +0.142 A 
ATOM     21  F   UNL     1      -3.037  -2.837  25.531  0.00  0.00    -0.204 F 
ATOM     22  C   UNL     1      -3.867  -2.842  24.367  0.00  0.00    +0.059 A 
ATOM     23  C   UNL     1      -4.290  -2.432  23.789  0.00  0.00    +0.142 A 
ATOM     24  F   UNL     1      -4.697  -2.846  23.203  0.00  0.00    -0.204 F 
ATOM     25  C   UNL     1      -4.307  -1.606  23.797  0.00  0.00    +0.027 A 
ENDBRANCH  17  18
ENDBRANCH  16  17
ENDBRANCH  13  14
ENDBRANCH  12  13
TORSDOF 8
ENDMDL
MODEL 3
REMARK VINA RESULT:     -11.1      1.729      3.157
REMARK  Name = 
REMARK  8 active torsions:
REMARK  status: ('A' for Active; 'I' for Inactive)
REMARK    1  A    between atoms: C_2  and  N_3
REMARK    2  A    between atoms: C_4  and  O_6
REMARK    3  A    between atoms: O_6  and  C_7
REMARK    4  A    between atoms: C_12  and  C_13
REMARK    5  A    between atoms: C_13  and  C_14
REMARK    6  A    between atoms: N_16  and  C_17
REMARK    7  A    between atoms: C_17  and  C_18
REMARK    8  A    between atoms: C_31  and  C_33
REMARK                            x       y       z     vdW  Elec       q    Type
REMARK                         _______ _______ _______ _____ _____    ______ ____
ROOT
ATOM      7  C   UNL     1      -2.737   3.547  25.146  0.00  0.00    +0.173 C 
ATOM      8  C   UNL     1      -2.942   2.751  25.079  0.00  0.00    +0.044 C 
ATOM      9  C   UNL     1      -2.354   2.172  25.094  0.00  0.00    +0.004 C 
ATOM     10  C   UNL     1      -1.564   2.388  25.177  0.00  0.00    +0.003 C 
ATOM     11  C   UNL     1      -1.768   1.592  25.110  0.00  0.00    +0.000 C 
ATOM     12  C   UNL     1      -0.976   1.809  25.193  0.00  0.00    +0.040 C 
ATOM     26  C   UNL     1      -0.185   2.026  25.276  0.00  0.00    +0.152 C 
ATOM     27  O   UNL     1       0.402   1.447  25.291  0.00  0.00    -0.223 OA
ATOM     28  C   UNL     1       0.020   2.822  25.343  0.00  0.00    +0.033 C 
ATOM     29  C   UNL     1      -0.567   3.402  25.327  0.00  0.00    +0.003 C 
ATOM     30  C   UNL     1      -1.359   3.185  25.244  0.00  0.00    +0.006 C 
ATOM     31  C   UNL     1      -1.946   3.764  25.229  0.00  0.00    +0.068 C 
ATOM     32  C   UNL     1      -1.391   4.370  25.315  0.00  0.00    +0.006 C 
ENDROOT
BRANCH  31  33
ATOM     33  C   UNL     1      -2.139   4.566  25.262  0.00  0.00    +0.185 C 
ATOM     34  O   UNL     1      -1.541   5.132  25.309  0.00  0.00    -0.220 OA
ENDBRANCH  31  33
BRANCH   7   6
ATOM      6  O   UNL     1      -3.324   4.127  25.130  0.00  0.00    -0.437 OA
BRANCH   6   4
ATOM      3  N   UNL     1      -4.665   3.827  25.521  0.00  0.00    -0.169 NA
ATOM      4  C   UNL     1      -4.098   3.925  24.929  0.00  0.00    +0.421 C 
ATOM      5  O   UNL     1      -4.305   3.821  24.138  0.00  0.00    -0.225 OA
BRANCH   3   2
ATOM      1  C   UNL     1      -5.918   3.230  25.865  0.00  0.00    +0.025 C 
ATOM      2  C   UNL     1      -5.440   3.624  25.319  0.00  0.00    +0.119 C 
ENDBRANCH   3   2
ENDBRANCH   6   4
ENDBRANCH   7   6
BRANCH  12  13
ATOM     13  C   UNL     1      -1.182   1.013  25.125  0.00  0.00    +0.089 C 
BRANCH  13  14
ATOM     14  C   UNL     1      -0.997   0.596  24.439  0.00  0.00    +0.242 C 
ATOM     15  O   UNL     1      -0.625   0.979  23.810  0.00  0.00    -0.273 OA
ATOM     16  N   UNL     1      -1.185  -0.206  24.380  0.00  0.00    -0.201 NA
BRANCH  16  17
ATOM     17  C   UNL     1      -1.558  -0.590  25.009  0.00  0.00    +0.142 C 
BRANCH  17  18
ATOM     18  C   UNL     1      -1.945  -1.307  24.882  0.00  0.00    +0.004 A 
ATOM     19  C   UNL     1      -1.578  -1.903  24.447  0.00  0.00    +0.027 A 
ATOM     20  C   UNL     1      -1.966  -2.620  24.320  0.00  0.00    +0.142 A 
ATOM     21  F   UNL     1      -1.598  -3.217  23.885  0.00  0.00    -0.204 F 
ATOM     22  C   UNL     1      -2.722  -2.740  24.629  0.00  0.00    +0.059 A 
ATOM     23  C   UNL     1      -3.089  -2.144  25.064  0.00  0.00    +0.142 A 
ATOM     24  F   UNL     1      -3.845  -2.263  25.373  0.00  0.00    -0.204 F 
ATOM     25  C   UNL     1      -2.701  -1.426  25.191  0.00  0.00    +0.027 A 
ENDBRANCH  17  18
ENDBRANCH  16  17
ENDBRANCH  13  14
ENDBRANCH  12  13
TORSDOF 8
ENDMDL
MODEL 4
REMARK VINA RESULT:     -10.9      2.494      5.387
REMARK  Name = 
REMARK  8 active torsions:
REMARK  status: ('A' for Active; 'I' for Inactive)
REMARK    1  A    between atoms: C_2  and  N_3
REMARK    2  A    between atoms: C_4  and  O_6
REMARK    3  A    between atoms: O_6  and  C_7
REMARK    4  A    between atoms: C_12  and  C_13
REMARK    5  A    between atoms: C_13  and  C_14
REMARK    6  A    between atoms: N_16  and  C_17
REMARK    7  A    between atoms: C_17  and  C_18
REMARK    8  A    between atoms: C_31  and  C_33
REMARK                            x       y       z     vdW  Elec       q    Type
REMARK                         _______ _______ _______ _____ _____    ______ ____
ROOT
ATOM      7  C   UNL     1      -2.659  -0.973  24.568  0.00  0.00    +0.173 C 
ATOM      8  C   UNL     1      -2.218  -0.279  24.635  0.00  0.00    +0.044 C 
ATOM      9  C   UNL     1      -2.603   0.448  24.700  0.00  0.00    +0.004 C 
ATOM     10  C   UNL     1      -3.426   0.481  24.698  0.00  0.00    +0.003 C 
ATOM     11  C   UNL     1      -2.986   1.175  24.765  0.00  0.00    +0.000 C 
ATOM     12  C   UNL     1      -3.811   1.208  24.763  0.00  0.00    +0.040 C 
ATOM     26  C   UNL     1      -4.635   1.240  24.760  0.00  0.00    +0.152 C 
ATOM     27  O   UNL     1      -5.019   1.967  24.825  0.00  0.00    -0.223 OA
ATOM     28  C   UNL     1      -5.075   0.546  24.693  0.00  0.00    +0.033 C 
ATOM     29  C   UNL     1      -4.691  -0.181  24.628  0.00  0.00    +0.003 C 
ATOM     30  C   UNL     1      -3.867  -0.214  24.630  0.00  0.00    +0.006 C 
ATOM     31  C   UNL     1      -3.482  -0.941  24.566  0.00  0.00    +0.068 C 
ATOM     32  C   UNL     1      -4.199  -1.349  24.523  0.00  0.00    +0.006 C 
ENDROOT
BRANCH  31  33
ATOM     33  C   UNL     1      -3.543  -1.760  24.489  0.00  0.00    +0.185 C 
ATOM     34  O   UNL     1      -4.234  -2.096  24.189  0.00  0.00    -0.220 OA
ENDBRANCH  31  33
BRANCH   7   6
ATOM      6  O   UNL     1      -2.274  -1.701  24.503  0.00  0.00    -0.437 OA
BRANCH   6   4
ATOM      3  N   UNL     1      -1.035  -2.043  25.128  0.00  0.00    -0.169 NA
ATOM      4  C   UNL     1      -1.450  -1.732  24.485  0.00  0.00    +0.421 C 
ATOM      5  O   UNL     1      -1.041  -1.453  23.826  0.00  0.00    -0.225 OA
BRANCH   3   2
ATOM      1  C   UNL     1       0.198  -2.517  25.674  0.00  0.00    +0.025 C 
ATOM      2  C   UNL     1      -0.210  -2.074  25.110  0.00  0.00    +0.119 C 
ENDBRANCH   3   2
ENDBRANCH   6   4
ENDBRANCH   7   6
BRANCH  12  13
ATOM     13  C   UNL     1      -3.370   1.902  24.830  0.00  0.00    +0.089 C 
BRANCH  13  14
ATOM     14  C   UNL     1      -3.394   2.466  24.229  0.00  0.00    +0.242 C 
ATOM     15  O   UNL     1      -3.832   2.321  23.545  0.00  0.00    -0.273 OA
ATOM     16  N   UNL     1      -2.981   3.175  24.312  0.00  0.00    -0.201 NA
BRANCH  16  17
ATOM     17  C   UNL     1      -2.543   3.320  24.997  0.00  0.00    +0.142 C 
BRANCH  17  18
ATOM     18  C   UNL     1      -1.990   3.932  25.011  0.00  0.00    +0.004 A 
ATOM     19  C   UNL     1      -1.199   3.777  24.835  0.00  0.00    +0.027 A 
ATOM     20  C   UNL     1      -0.647   4.389  24.849  0.00  0.00    +0.142 A 
ATOM     21  F   UNL     1       0.146   4.235  24.673  0.00  0.00    -0.204 F 
ATOM     22  C   UNL     1      -0.884   5.157  25.038  0.00  0.00    +0.059 A 
ATOM     23  C   UNL     1      -1.675   5.311  25.214  0.00  0.00    +0.142 A 
ATOM     24  F   UNL     1      -1.914   6.078  25.403  0.00  0.00    -0.204 F 
ATOM     25  C   UNL     1      -2.229   4.698  25.200  0.00  0.00    +0.027 A 
ENDBRANCH  17  18
ENDBRANCH  16  17
ENDBRANCH  13  14
ENDBRANCH  12  13
TORSDOF 8
ENDMDL
MODEL 5
REMARK VINA RESULT:     -10.5      2.810      5.192
REMARK  Name = 
REMARK  8 active torsions:
REMARK  status: ('A' for Active; 'I' for Inactive)
REMARK    1  A    between atoms: C_2  and  N_3
REMARK    2  A    between atoms: C_4  and  O_6
REMARK    3  A    between atoms: O_6  and  C_7
REMARK    4  A    between atoms: C_12  and  C_13
REMARK    5  A    between atoms: C_13  and  C_14
REMARK    6  A    between atoms: N_16  and  C_17
REMARK    7  A    between atoms: C_17  and  C_18
REMARK    8  A    between atoms: C_31  and  C_33
REMARK                            x       y       z     vdW  Elec       q    Type
REMARK                         _______ _______ _______ _____ _____    ______ ____
ROOT
ATOM      7  C   UNL     1      -1.329  -1.021  24.421  0.00  0.00    +0.173 C 
ATOM      8  C   UNL     1      -1.618  -0.251  24.489  0.00  0.00    +0.044 C 
ATOM      9  C   UNL     1      -2.432  -0.115  24.491  0.00  0.00    +0.004 C 
ATOM     10  C   UNL     1      -2.956  -0.748  24.426  0.00  0.00    +0.003 C 
ATOM     11  C   UNL     1      -3.245   0.021  24.494  0.00  0.00    +0.000 C 
ATOM     12  C   UNL     1      -3.769  -0.613  24.428  0.00  0.00    +0.040 C 
ATOM     26  C   UNL     1      -4.294  -1.246  24.363  0.00  0.00    +0.152 C 
ATOM     27  O   UNL     1      -5.107  -1.110  24.365  0.00  0.00    -0.223 OA
ATOM     28  C   UNL     1      -4.005  -2.015  24.296  0.00  0.00    +0.033 C 
ATOM     29  C   UNL     1      -3.191  -2.152  24.293  0.00  0.00    +0.003 C 
ATOM     30  C   UNL     1      -2.666  -1.518  24.359  0.00  0.00    +0.006 C 
ATOM     31  C   UNL     1      -1.853  -1.654  24.356  0.00  0.00    +0.068 C 
ATOM     32  C   UNL     1      -1.960  -2.469  24.280  0.00  0.00    +0.006 C 
ENDROOT
BRANCH  31  33
ATOM     33  C   UNL     1      -1.234  -2.199  24.314  0.00  0.00    +0.185 C 
ATOM     34  O   UNL     1      -1.356  -2.980  24.549  0.00  0.00    -0.220 OA
ENDBRANCH  31  33
BRANCH   7   6
ATOM      6  O   UNL     1      -0.515  -1.157  24.419  0.00  0.00    -0.437 OA
BRANCH   6   4
ATOM      3  N   UNL     1       0.441  -0.583  23.526  0.00  0.00    -0.169 NA
ATOM      4  C   UNL     1       0.005  -0.546  24.226  0.00  0.00    +0.421 C 
ATOM      5  O   UNL     1       0.089   0.099  24.731  0.00  0.00    -0.225 OA
BRANCH   3   2
ATOM      1  C   UNL     1       1.470  -0.052  22.688  0.00  0.00    +0.025 C 
ATOM      2  C   UNL     1       0.962   0.029  23.332  0.00  0.00    +0.119 C 
ENDBRANCH   3   2
ENDBRANCH   6   4
ENDBRANCH   7   6
BRANCH  12  13
ATOM     13  C   UNL     1      -4.058   0.157  24.496  0.00  0.00    +0.089 C 
BRANCH  13  14
ATOM     14  C   UNL     1      -4.438   0.396  25.187  0.00  0.00    +0.242 C 
ATOM     15  O   UNL     1      -4.524  -0.132  25.815  0.00  0.00    -0.273 OA
ATOM     16  N   UNL     1      -4.733   1.165  25.251  0.00  0.00    -0.201 NA
BRANCH  16  17
ATOM     17  C   UNL     1      -4.647   1.693  24.623  0.00  0.00    +0.142 C 
BRANCH  17  18
ATOM     18  C   UNL     1      -4.711   2.505  24.756  0.00  0.00    +0.004 A 
ATOM     19  C   UNL     1      -5.332   2.802  25.211  0.00  0.00    +0.027 A 
ATOM     20  C   UNL     1      -5.395   3.613  25.343  0.00  0.00    +0.142 A 
ATOM     21  F   UNL     1      -6.018   3.910  25.798  0.00  0.00    -0.204 F 
ATOM     22  C   UNL     1      -4.837   4.129  25.022  0.00  0.00    +0.059 A 
ATOM     23  C   UNL     1      -4.215   3.832  24.568  0.00  0.00    +0.142 A 
ATOM     24  F   UNL     1      -3.657   4.347  24.247  0.00  0.00    -0.204 F 
ATOM     25  C   UNL     1      -4.152   3.020  24.435  0.00  0.00    +0.027 A 
ENDBRANCH  17  18
ENDBRANCH  16  17
ENDBRANCH  13  14
ENDBRANCH  12  13
TORSDOF 8
ENDMDL
