MODEL 1
REMARK VINA RESULT:      -9.9      0.000      0.000
REMARK  Name = 
REMARK  8 active torsions:
REMARK  status: ('A' for Active; 'I' for Inactive)
REMARK    1  A    between atoms: C_2  and  O_17
REMARK    2  A    between atoms: N_3  and  C_4
REMARK    3  A    between atoms: C_7  and  O_8
REMARK    4  A    between atoms: O_8  and  C_9
REMARK    5  A    between atoms: O_17  and  C_18
REMARK    6  A    between atoms: C_22  and  N_26
REMARK    7  A    between atoms: C_30  and  S_31
REMARK    8  A    between atoms: S_31  and  C_32
REMARK                            x       y       z     vdW  Elec       q    Type
REMARK                         _______ _______ _______ _____ _____    ______ ____
ROOT
ATOM     18  C   UNL     1      -0.627   0.585  23.972  0.00  0.00    +0.229 C 
ATOM     19  C   UNL     1      -0.541   0.566  24.792  0.00  0.00    +0.188 C 
ATOM     20  O   UNL     1      -1.016   1.159  25.111  0.00  0.00    -0.348 OA
ATOM     21  C   UNL     1      -1.395   1.546  24.490  0.00  0.00    +0.171 C 
ATOM     22  C   UNL     1      -1.922   2.152  24.302  0.00  0.00    +0.168 C 
ATOM     23  C   UNL     1      -2.008   2.172  23.482  0.00  0.00    +0.169 C 
ATOM     24  O   UNL     1      -1.534   1.578  23.163  0.00  0.00    -0.348 OA
ATOM     25  C   UNL     1      -1.154   1.191  23.785  0.00  0.00    +0.187 C 
ENDROOT
BRANCH  22  26
ATOM     26  N   UNL     1      -2.298   2.651  24.841  0.00  0.00    -0.205 N 
ATOM     27  N   UNL     1      -1.925   3.165  25.369  0.00  0.00    -0.042 NA
ATOM     28  N   UNL     1      -2.509   3.555  25.801  0.00  0.00    -0.022 NA
ATOM     29  N   UNL     1      -3.243   3.283  25.541  0.00  0.00    -0.101 NA
ATOM     30  C   UNL     1      -3.112   2.725  24.948  0.00  0.00    +0.215 A 
BRANCH  30  31
ATOM     31  S   UNL     1      -3.695   2.312  24.534  0.00  0.00    -0.047 S 
BRANCH  31  32
ATOM     32  C   UNL     1      -4.444   2.213  24.865  0.00  0.00    +0.032 A 
ATOM     33  C   UNL     1      -4.668   1.479  25.167  0.00  0.00    +0.007 A 
ATOM     34  C   UNL     1      -5.416   1.379  25.498  0.00  0.00    +0.001 A 
ATOM     35  C   UNL     1      -5.943   2.014  25.526  0.00  0.00    +0.000 A 
ATOM     36  C   UNL     1      -5.719   2.749  25.224  0.00  0.00    +0.001 A 
ATOM     37  C   UNL     1      -4.970   2.848  24.893  0.00  0.00    +0.007 A 
ENDBRANCH  31  32
ENDBRANCH  30  31
ENDBRANCH  22  26
BRANCH  18  17
ATOM     17  O   UNL     1      -0.251   0.086  23.432  0.00  0.00    -0.432 OA
BRANCH  17   2
ATOM      1  O   UNL     1       1.019  -0.281  23.974  0.00  0.00    -0.224 OA
ATOM      2  C   UNL     1       0.572   0.079  23.381  0.00  0.00    +0.425 C 
ATOM      3  N   UNL     1       0.948   0.432  22.738  0.00  0.00    -0.142 NA
BRANCH   3   4
ATOM      4  C   UNL     1       1.772   0.426  22.686  0.00  0.00    +0.077 A 
ATOM      5  C   UNL     1       2.214   1.016  23.055  0.00  0.00    +0.020 A 
ATOM      6  C   UNL     1       3.037   1.009  23.003  0.00  0.00    +0.039 A 
ATOM      7  C   UNL     1       3.419   0.411  22.582  0.00  0.00    +0.145 A 
ATOM     15  C   UNL     1       2.977  -0.180  22.212  0.00  0.00    +0.039 A 
ATOM     16  C   UNL     1       2.153  -0.172  22.264  0.00  0.00    +0.020 A 
BRANCH   7   8
ATOM      8  O   UNL     1       4.242   0.404  22.529  0.00  0.00    -0.453 OA
BRANCH   8   9
ATOM      9  C   UNL     1       4.693   0.120  23.159  0.00  0.00    +0.145 A 
ATOM     10  C   UNL     1       4.680  -0.683  23.347  0.00  0.00    +0.037 A 
ATOM     11  C   UNL     1       5.131  -0.966  23.977  0.00  0.00    +0.003 A 
ATOM     12  C   UNL     1       5.595  -0.446  24.419  0.00  0.00    +0.000 A 
ATOM     13  C   UNL     1       5.609   0.357  24.231  0.00  0.00    +0.003 A 
ATOM     14  C   UNL     1       5.157   0.640  23.600  0.00  0.00    +0.037 A 
ENDBRANCH   8   9
ENDBRANCH   7   8
ENDBRANCH   3   4
ENDBRANCH  17   2
ENDBRANCH  18  17
TORSDOF 8
ENDMDL
MODEL 2
REMARK VINA RESULT:      -9.2      2.989      4.712
REMARK  Name = 
REMARK  8 active torsions:
REMARK  status: ('A' for Active; 'I' for Inactive)
REMARK    1  A    between atoms: C_2  and  O_17
REMARK    2  A    between atoms: N_3  and  C_4
REMARK    3  A    between atoms: C_7  and  O_8
REMARK    4  A    between atoms: O_8  and  C_9
REMARK    5  A    between atoms: O_17  and  C_18
REMARK    6  A    between atoms: C_22  and  N_26
REMARK    7  A    between atoms: C_30  and  S_31
REMARK    8  A    between atoms: S_31  and  C_32
REMARK                            x       y       z     vdW  Elec       q    Type
REMARK                         _______ _______ _______ _____ _____    ______ ____
ROOT
ATOM     18  C   UNL     1      -0.054   1.852  24.226  0.00  0.00    +0.229 C 
ATOM     19  C   UNL     1      -0.313   2.248  23.550  0.00  0.00    +0.188 C 
ATOM     20  O   UNL     1      -0.638   2.968  23.787  0.00  0.00    -0.348 OA
ATOM     21  C   UNL     1      -0.579   3.018  24.607  0.00  0.00    +0.171 C 
ATOM     22  C   UNL     1      -0.743   3.493  25.262  0.00  0.00    +0.168 C 
ATOM     23  C   UNL     1      -0.484   3.097  25.937  0.00  0.00    +0.169 C 
ATOM     24  O   UNL     1      -0.160   2.376  25.701  0.00  0.00    -0.348 OA
ATOM     25  C   UNL     1      -0.218   2.327  24.879  0.00  0.00    +0.187 C 
ENDROOT
BRANCH  22  26
ATOM     26  N   UNL     1      -1.104   4.235  25.243  0.00  0.00    -0.205 N 
ATOM     27  N   UNL     1      -0.762   4.934  24.969  0.00  0.00    -0.042 NA
ATOM     28  N   UNL     1      -1.316   5.539  25.052  0.00  0.00    -0.022 NA
ATOM     29  N   UNL     1      -2.001   5.214  25.377  0.00  0.00    -0.101 NA
ATOM     30  C   UNL     1      -1.870   4.408  25.495  0.00  0.00    +0.215 A 
BRANCH  30  31
ATOM     31  S   UNL     1      -2.410   3.870  25.810  0.00  0.00    -0.047 S 
BRANCH  31  32
ATOM     32  C   UNL     1      -3.213   3.937  25.630  0.00  0.00    +0.032 A 
ATOM     33  C   UNL     1      -3.742   4.214  26.198  0.00  0.00    +0.007 A 
ATOM     34  C   UNL     1      -4.544   4.281  26.018  0.00  0.00    +0.001 A 
ATOM     35  C   UNL     1      -4.817   4.071  25.268  0.00  0.00    +0.000 A 
ATOM     36  C   UNL     1      -4.287   3.794  24.699  0.00  0.00    +0.001 A 
ATOM     37  C   UNL     1      -3.485   3.727  24.880  0.00  0.00    +0.007 A 
ENDBRANCH  31  32
ENDBRANCH  30  31
ENDBRANCH  22  26
BRANCH  18  17
ATOM     17  O   UNL     1       0.307   1.110  24.244  0.00  0.00    -0.432 OA
BRANCH  17   2
ATOM      1  O   UNL     1      -0.638   0.269  23.578  0.00  0.00    -0.224 OA
ATOM      2  C   UNL     1      -0.155   0.426  24.229  0.00  0.00    +0.425 C 
ATOM      3  N   UNL     1      -0.134  -0.101  24.863  0.00  0.00    -0.142 NA
BRANCH   3   4
ATOM      4  C   UNL     1      -0.595  -0.785  24.848  0.00  0.00    +0.077 A 
ATOM      5  C   UNL     1      -0.484  -1.345  24.254  0.00  0.00    +0.020 A 
ATOM      6  C   UNL     1      -0.945  -2.029  24.238  0.00  0.00    +0.039 A 
ATOM      7  C   UNL     1      -1.519  -2.152  24.818  0.00  0.00    +0.145 A 
ATOM     15  C   UNL     1      -1.630  -1.591  25.414  0.00  0.00    +0.039 A 
ATOM     16  C   UNL     1      -1.169  -0.908  25.428  0.00  0.00    +0.020 A 
BRANCH   7   8
ATOM      8  O   UNL     1      -1.980  -2.835  24.804  0.00  0.00    -0.453 OA
BRANCH   8   9
ATOM      9  C   UNL     1      -2.763  -2.799  24.546  0.00  0.00    +0.145 A 
ATOM     10  C   UNL     1      -2.966  -3.093  23.802  0.00  0.00    +0.037 A 
ATOM     11  C   UNL     1      -3.749  -3.057  23.544  0.00  0.00    +0.003 A 
ATOM     12  C   UNL     1      -4.329  -2.727  24.030  0.00  0.00    +0.000 A 
ATOM     13  C   UNL     1      -4.126  -2.433  24.774  0.00  0.00    +0.003 A 
ATOM     14  C   UNL     1      -3.342  -2.470  25.032  0.00  0.00    +0.037 A 
ENDBRANCH   8   9
ENDBRANCH   7   8
ENDBRANCH   3   4
ENDBRANCH  17   2
ENDBRANCH  18  17
TORSDOF 8
ENDMDL
MODEL 3
REMARK VINA RESULT:      -8.8      2.012      2.437
REMARK  Name = 
REMARK  8 active torsions:
REMARK  status: ('A' for Active; 'I' for Inactive)
REMARK    1  A    between atoms: C_2  and  O_17
REMARK    2  A    between atoms: N_3  and  C_4
REMARK    3  A    between atoms: C_7  and  O_8
REMARK    4  A    between atoms: O_8  and  C_9
REMARK    5  A    between atoms: O_17  and  C_18
REMARK    6  A    between atoms: C_22  and  N_26
REMARK    7  A    between atoms: C_30  and  S_31
REMARK    8  A    between atoms: S_31  and  C_32
REMARK                            x       y       z     vdW  Elec       q    Type
REMARK                         _______ _______ _______ _____ _____    ______ ____
ROOT
ATOM     18  C   UNL     1      -0.663   1.725  24.543  0.00  0.00    +0.229 C 
ATOM     19  C   UNL     1      -0.674   1.406  25.303  0.00  0.00    +0.188 C 
ATOM     20  O   UNL     1      -1.431   1.109  25.443  0.00  0.00    -0.348 OA
ATOM     21  C   UNL     1      -1.887   1.246  24.770  0.00  0.00    +0.171 C 
ATOM     22  C   UNL     1      -2.637   1.148  24.440  0.00  0.00    +0.168 C 
ATOM     23  C   UNL     1      -2.626   1.468  23.680  0.00  0.00    +0.169 C 
ATOM     24  O   UNL     1      -1.869   1.764  23.540  0.00  0.00    -0.348 OA
ATOM     25  C   UNL     1      -1.413   1.627  24.214  0.00  0.00    +0.187 C 
ENDROOT
BRANCH  22  26
ATOM     26  N   UNL     1      -3.285   0.792  24.807  0.00  0.00    -0.205 N 
ATOM     27  N   UNL     1      -3.801   1.154  25.339  0.00  0.00    -0.042 NA
ATOM     28  N   UNL     1      -4.365   0.597  25.567  0.00  0.00    -0.022 NA
ATOM     29  N   UNL     1      -4.198  -0.109  25.175  0.00  0.00    -0.101 NA
ATOM     30  C   UNL     1      -3.531   0.011  24.706  0.00  0.00    +0.215 A 
BRANCH  30  31
ATOM     31  S   UNL     1      -3.172  -0.551  24.220  0.00  0.00    -0.047 S 
BRANCH  31  32
ATOM     32  C   UNL     1      -3.419  -1.338  24.247  0.00  0.00    +0.032 A 
ATOM     33  C   UNL     1      -4.046  -1.591  23.775  0.00  0.00    +0.007 A 
ATOM     34  C   UNL     1      -4.293  -2.377  23.802  0.00  0.00    +0.001 A 
ATOM     35  C   UNL     1      -3.912  -2.912  24.303  0.00  0.00    +0.000 A 
ATOM     36  C   UNL     1      -3.285  -2.659  24.776  0.00  0.00    +0.001 A 
ATOM     37  C   UNL     1      -3.038  -1.872  24.748  0.00  0.00    +0.007 A 
ENDBRANCH  31  32
ENDBRANCH  30  31
ENDBRANCH  22  26
BRANCH  18  17
ATOM     17  O   UNL     1      -0.015   2.082  24.176  0.00  0.00    -0.432 OA
BRANCH  17   2
ATOM      1  O   UNL     1       1.160   1.420  24.649  0.00  0.00    -0.224 OA
ATOM      2  C   UNL     1       0.667   1.643  24.025  0.00  0.00    +0.425 C 
ATOM      3  N   UNL     1       0.857   1.426  23.253  0.00  0.00    -0.142 NA
BRANCH   3   4
ATOM      4  C   UNL     1       1.539   0.987  23.102  0.00  0.00    +0.077 A 
ATOM      5  C   UNL     1       2.265   1.368  23.018  0.00  0.00    +0.020 A 
ATOM      6  C   UNL     1       2.947   0.929  22.868  0.00  0.00    +0.039 A 
ATOM      7  C   UNL     1       2.902   0.108  22.801  0.00  0.00    +0.145 A 
ATOM     15  C   UNL     1       2.175  -0.274  22.885  0.00  0.00    +0.039 A 
ATOM     16  C   UNL     1       1.494   0.166  23.036  0.00  0.00    +0.020 A 
BRANCH   7   8
ATOM      8  O   UNL     1       3.584  -0.332  22.651  0.00  0.00    -0.453 OA
BRANCH   8   9
ATOM      9  C   UNL     1       4.233  -0.274  23.157  0.00  0.00    +0.145 A 
ATOM     10  C   UNL     1       4.734   0.380  23.111  0.00  0.00    +0.037 A 
ATOM     11  C   UNL     1       5.383   0.438  23.617  0.00  0.00    +0.003 A 
ATOM     12  C   UNL     1       5.531  -0.158  24.168  0.00  0.00    +0.000 A 
ATOM     13  C   UNL     1       5.030  -0.812  24.214  0.00  0.00    +0.003 A 
ATOM     14  C   UNL     1       4.380  -0.870  23.707  0.00  0.00    +0.037 A 
ENDBRANCH   8   9
ENDBRANCH   7   8
ENDBRANCH   3   4
ENDBRANCH  17   2
ENDBRANCH  18  17
TORSDOF 8
ENDMDL
MODEL 4
REMARK VINA RESULT:      -8.6      1.832      7.654
REMARK  Name = 
REMARK  8 active torsions:
REMARK  status: ('A' for Active; 'I' for Inactive)
REMARK    1  A    between atoms: C_2  and  O_17
REMARK    2  A    between atoms: N_3  and  C_4
REMARK    3  A    between atoms: C_7  and  O_8
REMARK    4  A    between atoms: O_8  and  C_9
REMARK    5  A    between atoms: O_17  and  C_18
REMARK    6  A    between atoms: C_22  and  N_26
REMARK    7  A    between atoms: C_30  and  S_31
REMARK    8  A    between atoms: S_31  and  C_32
REMARK                            x       y       z     vdW  Elec       q    Type
REMARK                         _______ _______ _______ _____ _____    ______ ____
ROOT
ATOM     18  C   UNL     1      -0.131  -0.271  24.305  0.00  0.00    +0.229 C 
ATOM     19  C   UNL     1      -0.091  -0.983  23.890  0.00  0.00    +0.188 C 
ATOM     20  O   UNL     1       0.516  -0.921  23.335  0.00  0.00    -0.348 OA
ATOM     21  C   UNL     1       0.851  -0.171  23.406  0.00  0.00    +0.171 C 
ATOM     22  C   UNL     1       1.433   0.332  23.108  0.00  0.00    +0.168 C 
ATOM     23  C   UNL     1       1.393   1.044  23.523  0.00  0.00    +0.169 C 
ATOM     24  O   UNL     1       0.787   0.981  24.078  0.00  0.00    -0.348 OA
ATOM     25  C   UNL     1       0.451   0.230  24.006  0.00  0.00    +0.187 C 
ENDROOT
BRANCH  22  26
ATOM     26  N   UNL     1       1.962   0.154  22.500  0.00  0.00    -0.205 N 
ATOM     27  N   UNL     1       1.763  -0.118  21.747  0.00  0.00    -0.042 NA
ATOM     28  N   UNL     1       2.461  -0.224  21.321  0.00  0.00    -0.022 NA
ATOM     29  N   UNL     1       3.092  -0.018  21.810  0.00  0.00    -0.101 NA
ATOM     30  C   UNL     1       2.784   0.215  22.539  0.00  0.00    +0.215 A 
BRANCH  30  31
ATOM     31  S   UNL     1       3.221   0.466  23.193  0.00  0.00    -0.047 S 
BRANCH  31  32
ATOM     32  C   UNL     1       4.006   0.226  23.281  0.00  0.00    +0.032 A 
ATOM     33  C   UNL     1       4.176  -0.524  23.579  0.00  0.00    +0.007 A 
ATOM     34  C   UNL     1       4.960  -0.764  23.668  0.00  0.00    +0.001 A 
ATOM     35  C   UNL     1       5.574  -0.254  23.458  0.00  0.00    +0.000 A 
ATOM     36  C   UNL     1       5.403   0.496  23.160  0.00  0.00    +0.001 A 
ATOM     37  C   UNL     1       4.619   0.736  23.071  0.00  0.00    +0.007 A 
ENDBRANCH  31  32
ENDBRANCH  30  31
ENDBRANCH  22  26
BRANCH  18  17
ATOM     17  O   UNL     1      -0.660  -0.093  24.912  0.00  0.00    -0.432 OA
BRANCH  17   2
ATOM      1  O   UNL     1      -1.867  -0.327  24.184  0.00  0.00    -0.224 OA
ATOM      2  C   UNL     1      -1.438   0.115  24.734  0.00  0.00    +0.425 C 
ATOM      3  N   UNL     1      -1.787   0.764  25.104  0.00  0.00    -0.142 NA
BRANCH   3   4
ATOM      4  C   UNL     1      -2.565   0.972  24.926  0.00  0.00    +0.077 A 
ATOM      5  C   UNL     1      -3.189   0.504  25.192  0.00  0.00    +0.020 A 
ATOM      6  C   UNL     1      -3.968   0.712  25.013  0.00  0.00    +0.039 A 
ATOM      7  C   UNL     1      -4.121   1.390  24.568  0.00  0.00    +0.145 A 
ATOM     15  C   UNL     1      -3.497   1.859  24.302  0.00  0.00    +0.039 A 
ATOM     16  C   UNL     1      -2.719   1.650  24.480  0.00  0.00    +0.020 A 
BRANCH   7   8
ATOM      8  O   UNL     1      -4.899   1.598  24.390  0.00  0.00    -0.453 OA
BRANCH   8   9
ATOM      9  C   UNL     1      -5.340   2.046  24.924  0.00  0.00    +0.145 A 
ATOM     10  C   UNL     1      -5.213   2.859  24.984  0.00  0.00    +0.037 A 
ATOM     11  C   UNL     1      -5.653   3.307  25.519  0.00  0.00    +0.003 A 
ATOM     12  C   UNL     1      -6.221   2.941  25.994  0.00  0.00    +0.000 A 
ATOM     13  C   UNL     1      -6.348   2.128  25.934  0.00  0.00    +0.003 A 
ATOM     14  C   UNL     1      -5.907   1.681  25.398  0.00  0.00    +0.037 A 
ENDBRANCH   8   9
ENDBRANCH   7   8
ENDBRANCH   3   4
ENDBRANCH  17   2
ENDBRANCH  18  17
TORSDOF 8
ENDMDL
MODEL 5
REMARK VINA RESULT:      -8.4      1.263      1.461
REMARK  Name = 
REMARK  8 active torsions:
REMARK  status: ('A' for Active; 'I' for Inactive)
REMARK    1  A    between atoms: C_2  and  O_17
REMARK    2  A    between atoms: N_3  and  C_4
REMARK    3  A    between atoms: C_7  and  O_8
REMARK    4  A    between atoms: O_8  and  C_9
REMARK    5  A    between atoms: O_17  and  C_18
REMARK    6  A    between atoms: C_22  and  N_26
REMARK    7  A    between atoms: C_30  and  S_31
REMARK    8  A    between atoms: S_31  and  C_32
REMARK                            x       y       z     vdW  Elec       q    Type
REMARK                         _______ _______ _______ _____ _____    ______ ____
ROOT
ATOM     18  C   UNL     1      -0.544   1.506  24.419  0.00  0.00    +0.229 C 
ATOM     19  C   UNL     1      -0.517   1.148  25.161  0.00  0.00    +0.188 C 
ATOM     20  O   UNL     1      -1.259   0.820  25.312  0.00  0.00    -0.348 OA
ATOM     21  C   UNL     1      -1.744   0.976  24.664  0.00  0.00    +0.171 C 
ATOM     22  C   UNL     1      -2.502   0.871  24.356  0.00  0.00    +0.168 C 
ATOM     23  C   UNL     1      -2.529   1.230  23.614  0.00  0.00    +0.169 C 
ATOM     24  O   UNL     1      -1.788   1.557  23.463  0.00  0.00    -0.348 OA
ATOM     25  C   UNL     1      -1.302   1.401  24.112  0.00  0.00    +0.187 C 
ENDROOT
BRANCH  22  26
ATOM     26  N   UNL     1      -3.125   0.475  24.727  0.00  0.00    -0.205 N 
ATOM     27  N   UNL     1      -3.108  -0.301  25.008  0.00  0.00    -0.042 NA
ATOM     28  N   UNL     1      -3.846  -0.469  25.336  0.00  0.00    -0.022 NA
ATOM     29  N   UNL     1      -4.318   0.202  25.258  0.00  0.00    -0.101 NA
ATOM     30  C   UNL     1      -3.872   0.786  24.882  0.00  0.00    +0.215 A 
BRANCH  30  31
ATOM     31  S   UNL     1      -4.130   1.547  24.694  0.00  0.00    -0.047 S 
BRANCH  31  32
ATOM     32  C   UNL     1      -4.823   1.843  25.030  0.00  0.00    +0.032 A 
ATOM     33  C   UNL     1      -4.782   2.396  25.641  0.00  0.00    +0.007 A 
ATOM     34  C   UNL     1      -5.474   2.692  25.978  0.00  0.00    +0.001 A 
ATOM     35  C   UNL     1      -6.209   2.435  25.703  0.00  0.00    +0.000 A 
ATOM     36  C   UNL     1      -6.250   1.882  25.091  0.00  0.00    +0.001 A 
ATOM     37  C   UNL     1      -5.557   1.586  24.755  0.00  0.00    +0.007 A 
ENDBRANCH  31  32
ENDBRANCH  30  31
ENDBRANCH  22  26
BRANCH  18  17
ATOM     17  O   UNL     1       0.078   1.902  24.048  0.00  0.00    -0.432 OA
BRANCH  17   2
ATOM      1  O   UNL     1       1.285   1.321  24.548  0.00  0.00    -0.224 OA
ATOM      2  C   UNL     1       0.793   1.512  23.913  0.00  0.00    +0.425 C 
ATOM      3  N   UNL     1       1.016   1.314  23.144  0.00  0.00    -0.142 NA
BRANCH   3   4
ATOM      4  C   UNL     1       1.731   0.924  23.009  0.00  0.00    +0.077 A 
ATOM      5  C   UNL     1       2.433   1.354  22.964  0.00  0.00    +0.020 A 
ATOM      6  C   UNL     1       3.148   0.964  22.829  0.00  0.00    +0.039 A 
ATOM      7  C   UNL     1       3.159   0.144  22.738  0.00  0.00    +0.145 A 
ATOM     15  C   UNL     1       2.456  -0.286  22.783  0.00  0.00    +0.039 A 
ATOM     16  C   UNL     1       1.742   0.104  22.919  0.00  0.00    +0.020 A 
BRANCH   7   8
ATOM      8  O   UNL     1       3.873  -0.247  22.603  0.00  0.00    -0.453 OA
BRANCH   8   9
ATOM      9  C   UNL     1       4.457  -0.253  23.186  0.00  0.00    +0.145 A 
ATOM     10  C   UNL     1       4.518  -0.894  23.701  0.00  0.00    +0.037 A 
ATOM     11  C   UNL     1       5.102  -0.901  24.284  0.00  0.00    +0.003 A 
ATOM     12  C   UNL     1       5.625  -0.266  24.351  0.00  0.00    +0.000 A 
ATOM     13  C   UNL     1       5.564   0.375  23.835  0.00  0.00    +0.003 A 
ATOM     14  C   UNL     1       4.980   0.381  23.252  0.00  0.00    +0.037 A 
ENDBRANCH   8   9
ENDBRANCH   7   8
ENDBRANCH   3   4
ENDBRANCH  17   2
ENDBRANCH  18  17
TORSDOF 8
ENDMDL
MODEL 6
REMARK VINA RESULT:      -8.3      1.237      2.041
REMARK  Name = 
REMARK  8 active torsions:
REMARK  status: ('A' for Active; 'I' for Inactive)
REMARK    1  A    between atoms: C_2  and  O_17
REMARK    2  A    between atoms: N_3  and  C_4
REMARK    3  A    between atoms: C_7  and  O_8
REMARK    4  A    between atoms: O_8  and  C_9
REMARK    5  A    between atoms: O_17  and  C_18
REMARK    6  A    between atoms: C_22  and  N_26
REMARK    7  A    between atoms: C_30  and  S_31
REMARK    8  A    between atoms: S_31  and  C_32
REMARK                            x       y       z     vdW  Elec       q    Type
REMARK                         _______ _______ _______ _____ _____    ______ ____
ROOT
ATOM     18  C   UNL     1      -0.743   0.052  24.004  0.00  0.00    +0.229 C 
ATOM     19  C   UNL     1      -0.643   0.116  24.820  0.00  0.00    +0.188 C 
ATOM     20  O   UNL     1      -1.207   0.645  25.105  0.00  0.00    -0.348 OA
ATOM     21  C   UNL     1      -1.656   0.909  24.466  0.00  0.00    +0.171 C 
ATOM     22  C   UNL     1      -2.282   1.399  24.245  0.00  0.00    +0.168 C 
ATOM     23  C   UNL     1      -2.382   1.335  23.429  0.00  0.00    +0.169 C 
ATOM     24  O   UNL     1      -1.817   0.806  23.144  0.00  0.00    -0.348 OA
ATOM     25  C   UNL     1      -1.368   0.542  23.785  0.00  0.00    +0.187 C 
ENDROOT
BRANCH  22  26
ATOM     26  N   UNL     1      -2.730   1.871  24.753  0.00  0.00    -0.205 N 
ATOM     27  N   UNL     1      -3.293   1.603  25.293  0.00  0.00    -0.042 NA
ATOM     28  N   UNL     1      -3.604   2.260  25.684  0.00  0.00    -0.022 NA
ATOM     29  N   UNL     1      -3.233   2.933  25.385  0.00  0.00    -0.101 NA
ATOM     30  C   UNL     1      -2.693   2.692  24.810  0.00  0.00    +0.215 A 
BRANCH  30  31
ATOM     31  S   UNL     1      -2.201   3.188  24.369  0.00  0.00    -0.047 S 
BRANCH  31  32
ATOM     32  C   UNL     1      -1.973   3.920  24.674  0.00  0.00    +0.032 A 
ATOM     33  C   UNL     1      -2.526   4.528  24.746  0.00  0.00    +0.007 A 
ATOM     34  C   UNL     1      -2.298   5.259  25.050  0.00  0.00    +0.001 A 
ATOM     35  C   UNL     1      -1.516   5.384  25.283  0.00  0.00    +0.000 A 
ATOM     36  C   UNL     1      -0.963   4.776  25.212  0.00  0.00    +0.001 A 
ATOM     37  C   UNL     1      -1.192   4.044  24.907  0.00  0.00    +0.007 A 
ENDBRANCH  31  32
ENDBRANCH  30  31
ENDBRANCH  22  26
BRANCH  18  17
ATOM     17  O   UNL     1      -0.295  -0.420  23.496  0.00  0.00    -0.432 OA
BRANCH  17   2
ATOM      1  O   UNL     1       1.021  -0.605  24.022  0.00  0.00    -0.224 OA
ATOM      2  C   UNL     1       0.520  -0.306  23.438  0.00  0.00    +0.425 C 
ATOM      3  N   UNL     1       0.834   0.108  22.797  0.00  0.00    -0.142 NA
BRANCH   3   4
ATOM      4  C   UNL     1       1.649   0.222  22.739  0.00  0.00    +0.077 A 
ATOM      5  C   UNL     1       2.102  -0.272  22.258  0.00  0.00    +0.020 A 
ATOM      6  C   UNL     1       2.917  -0.157  22.200  0.00  0.00    +0.039 A 
ATOM      7  C   UNL     1       3.279   0.451  22.623  0.00  0.00    +0.145 A 
ATOM     15  C   UNL     1       2.826   0.946  23.104  0.00  0.00    +0.039 A 
ATOM     16  C   UNL     1       2.012   0.831  23.162  0.00  0.00    +0.020 A 
BRANCH   7   8
ATOM      8  O   UNL     1       4.094   0.566  22.565  0.00  0.00    -0.453 OA
BRANCH   8   9
ATOM      9  C   UNL     1       4.598   0.247  23.135  0.00  0.00    +0.145 A 
ATOM     10  C   UNL     1       5.067   0.744  23.597  0.00  0.00    +0.037 A 
ATOM     11  C   UNL     1       5.570   0.425  24.167  0.00  0.00    +0.003 A 
ATOM     12  C   UNL     1       5.605  -0.393  24.274  0.00  0.00    +0.000 A 
ATOM     13  C   UNL     1       5.136  -0.891  23.813  0.00  0.00    +0.003 A 
ATOM     14  C   UNL     1       4.632  -0.570  23.243  0.00  0.00    +0.037 A 
ENDBRANCH   8   9
ENDBRANCH   7   8
ENDBRANCH   3   4
ENDBRANCH  17   2
ENDBRANCH  18  17
TORSDOF 8
ENDMDL
MODEL 7
REMARK VINA RESULT:      -6.3     16.343     17.332
REMARK  Name = 
REMARK  8 active torsions:
REMARK  status: ('A' for Active; 'I' for Inactive)
REMARK    1  A    between atoms: C_2  and  O_17
REMARK    2  A    between atoms: N_3  and  C_4
REMARK    3  A    between atoms: C_7  and  O_8
REMARK    4  A    between atoms: O_8  and  C_9
REMARK    5  A    between atoms: O_17  and  C_18
REMARK    6  A    between atoms: C_22  and  N_26
REMARK    7  A    between atoms: C_30  and  S_31
REMARK    8  A    between atoms: S_31  and  C_32
REMARK                            x       y       z     vdW  Elec       q    Type
REMARK                         _______ _______ _______ _____ _____    ______ ____
ROOT
ATOM     18  C   UNL     1      -8.763  -9.889  13.553  0.00  0.00    +0.229 C 
ATOM     19  C   UNL     1      -8.095  -9.567  13.914  0.00  0.00    +0.188 C 
ATOM     20  O   UNL     1      -8.337  -9.193  14.608  0.00  0.00    -0.348 OA
ATOM     21  C   UNL     1      -9.153  -9.283  14.676  0.00  0.00    +0.171 C 
ATOM     22  C   UNL     1      -9.808  -9.109  15.147  0.00  0.00    +0.168 C 
ATOM     23  C   UNL     1     -10.476  -9.431  14.786  0.00  0.00    +0.169 C 
ATOM     24  O   UNL     1     -10.234  -9.805  14.092  0.00  0.00    -0.348 OA
ATOM     25  C   UNL     1      -9.417  -9.714  14.024  0.00  0.00    +0.187 C 
ENDROOT
BRANCH  22  26
ATOM     26  N   UNL     1      -9.796  -8.685  15.855  0.00  0.00    -0.205 N 
ATOM     27  N   UNL     1      -9.674  -7.873  15.933  0.00  0.00    -0.042 NA
ATOM     28  N   UNL     1      -9.707  -7.686  16.736  0.00  0.00    -0.022 NA
ATOM     29  N   UNL     1      -9.849  -8.382  17.154  0.00  0.00    -0.101 NA
ATOM     30  C   UNL     1      -9.904  -9.000  16.610  0.00  0.00    +0.215 A 
BRANCH  30  31
ATOM     31  S   UNL     1     -10.044  -9.793  16.790  0.00  0.00    -0.047 S 
BRANCH  31  32
ATOM     32  C   UNL     1     -10.030 -10.047  17.575  0.00  0.00    +0.032 A 
ATOM     33  C   UNL     1     -10.719 -10.026  18.027  0.00  0.00    +0.007 A 
ATOM     34  C   UNL     1     -10.705 -10.280  18.812  0.00  0.00    +0.001 A 
ATOM     35  C   UNL     1     -10.001 -10.555  19.144  0.00  0.00    +0.000 A 
ATOM     36  C   UNL     1      -9.311 -10.576  18.691  0.00  0.00    +0.001 A 
ATOM     37  C   UNL     1      -9.326 -10.322  17.906  0.00  0.00    +0.007 A 
ENDBRANCH  31  32
ENDBRANCH  30  31
ENDBRANCH  22  26
BRANCH  18  17
ATOM     17  O   UNL     1      -8.775 -10.313  12.845  0.00  0.00    -0.432 OA
BRANCH  17   2
ATOM      1  O   UNL     1      -7.397 -10.226  12.475  0.00  0.00    -0.224 OA
ATOM      2  C   UNL     1      -8.196 -10.177  12.272  0.00  0.00    +0.425 C 
ATOM      3  N   UNL     1      -8.415  -9.991  11.500  0.00  0.00    -0.142 NA
BRANCH   3   4
ATOM      4  C   UNL     1      -7.836  -9.855  10.928  0.00  0.00    +0.077 A 
ATOM      5  C   UNL     1      -7.611  -9.084  10.744  0.00  0.00    +0.020 A 
ATOM      6  C   UNL     1      -7.032  -8.948  10.172  0.00  0.00    +0.039 A 
ATOM      7  C   UNL     1      -6.679  -9.584   9.783  0.00  0.00    +0.145 A 
ATOM     15  C   UNL     1      -6.904 -10.356   9.967  0.00  0.00    +0.039 A 
ATOM     16  C   UNL     1      -7.483 -10.492  10.539  0.00  0.00    +0.020 A 
BRANCH   7   8
ATOM      8  O   UNL     1      -6.100  -9.449   9.211  0.00  0.00    -0.453 OA
BRANCH   8   9
ATOM      9  C   UNL     1      -5.304  -9.426   9.426  0.00  0.00    +0.145 A 
ATOM     10  C   UNL     1      -4.846 -10.112   9.386  0.00  0.00    +0.037 A 
ATOM     11  C   UNL     1      -4.050 -10.089   9.601  0.00  0.00    +0.003 A 
ATOM     12  C   UNL     1      -3.712  -9.381   9.857  0.00  0.00    +0.000 A 
ATOM     13  C   UNL     1      -4.170  -8.696   9.897  0.00  0.00    +0.003 A 
ATOM     14  C   UNL     1      -4.966  -8.719   9.682  0.00  0.00    +0.037 A 
ENDBRANCH   8   9
ENDBRANCH   7   8
ENDBRANCH   3   4
ENDBRANCH  17   2
ENDBRANCH  18  17
TORSDOF 8
ENDMDL
MODEL 8
REMARK VINA RESULT:      -6.2     15.084     16.111
REMARK  Name = 
REMARK  8 active torsions:
REMARK  status: ('A' for Active; 'I' for Inactive)
REMARK    1  A    between atoms: C_2  and  O_17
REMARK    2  A    between atoms: N_3  and  C_4
REMARK    3  A    between atoms: C_7  and  O_8
REMARK    4  A    between atoms: O_8  and  C_9
REMARK    5  A    between atoms: O_17  and  C_18
REMARK    6  A    between atoms: C_22  and  N_26
REMARK    7  A    between atoms: C_30  and  S_31
REMARK    8  A    between atoms: S_31  and  C_32
REMARK                            x       y       z     vdW  Elec       q    Type
REMARK                         _______ _______ _______ _____ _____    ______ ____
ROOT
ATOM     18  C   UNL     1      -5.847 -10.396  15.382  0.00  0.00    +0.229 C 
ATOM     19  C   UNL     1      -6.468 -10.772  14.990  0.00  0.00    +0.188 C 
ATOM     20  O   UNL     1      -7.137 -10.727  15.470  0.00  0.00    -0.348 OA
ATOM     21  C   UNL     1      -6.931 -10.323  16.158  0.00  0.00    +0.171 C 
ATOM     22  C   UNL     1      -7.215 -10.045  16.881  0.00  0.00    +0.168 C 
ATOM     23  C   UNL     1      -6.595  -9.669  17.273  0.00  0.00    +0.169 C 
ATOM     24  O   UNL     1      -5.926  -9.715  16.793  0.00  0.00    -0.348 OA
ATOM     25  C   UNL     1      -6.133 -10.119  16.104  0.00  0.00    +0.187 C 
ENDROOT
BRANCH  22  26
ATOM     26  N   UNL     1      -7.987 -10.129  17.162  0.00  0.00    -0.205 N 
ATOM     27  N   UNL     1      -8.287 -10.781  17.569  0.00  0.00    -0.042 NA
ATOM     28  N   UNL     1      -9.079 -10.630  17.744  0.00  0.00    -0.022 NA
ATOM     29  N   UNL     1      -9.268  -9.885  17.445  0.00  0.00    -0.101 NA
ATOM     30  C   UNL     1      -8.593  -9.575  17.085  0.00  0.00    +0.215 A 
BRANCH  30  31
ATOM     31  S   UNL     1      -8.535  -8.840  16.714  0.00  0.00    -0.047 S 
BRANCH  31  32
ATOM     32  C   UNL     1      -9.203  -8.359  16.645  0.00  0.00    +0.032 A 
ATOM     33  C   UNL     1      -9.560  -8.253  15.910  0.00  0.00    +0.007 A 
ATOM     34  C   UNL     1     -10.226  -7.772  15.840  0.00  0.00    +0.001 A 
ATOM     35  C   UNL     1     -10.536  -7.398  16.508  0.00  0.00    +0.000 A 
ATOM     36  C   UNL     1     -10.178  -7.504  17.244  0.00  0.00    +0.001 A 
ATOM     37  C   UNL     1      -9.511  -7.985  17.312  0.00  0.00    +0.007 A 
ENDBRANCH  31  32
ENDBRANCH  30  31
ENDBRANCH  22  26
BRANCH  18  17
ATOM     17  O   UNL     1      -5.076 -10.313  15.101  0.00  0.00    -0.432 OA
BRANCH  17   2
ATOM      1  O   UNL     1      -5.496 -10.743  13.805  0.00  0.00    -0.224 OA
ATOM      2  C   UNL     1      -4.911 -10.441  14.303  0.00  0.00    +0.425 C 
ATOM      3  N   UNL     1      -4.163 -10.268  14.003  0.00  0.00    -0.142 NA
BRANCH   3   4
ATOM      4  C   UNL     1      -3.998 -10.397  13.205  0.00  0.00    +0.077 A 
ATOM      5  C   UNL     1      -3.242 -10.629  12.972  0.00  0.00    +0.020 A 
ATOM      6  C   UNL     1      -3.077 -10.758  12.174  0.00  0.00    +0.039 A 
ATOM      7  C   UNL     1      -3.669 -10.653  11.608  0.00  0.00    +0.145 A 
ATOM     15  C   UNL     1      -4.426 -10.420  11.842  0.00  0.00    +0.039 A 
ATOM     16  C   UNL     1      -4.589 -10.292  12.640  0.00  0.00    +0.020 A 
BRANCH   7   8
ATOM      8  O   UNL     1      -3.505 -10.781  10.810  0.00  0.00    -0.453 OA
BRANCH   8   9
ATOM      9  C   UNL     1      -3.589 -10.166  10.267  0.00  0.00    +0.145 A 
ATOM     10  C   UNL     1      -4.234 -10.154   9.754  0.00  0.00    +0.037 A 
ATOM     11  C   UNL     1      -4.318  -9.539   9.211  0.00  0.00    +0.003 A 
ATOM     12  C   UNL     1      -3.757  -8.935   9.182  0.00  0.00    +0.000 A 
ATOM     13  C   UNL     1      -3.111  -8.946   9.696  0.00  0.00    +0.003 A 
ATOM     14  C   UNL     1      -3.028  -9.562  10.239  0.00  0.00    +0.037 A 
ENDBRANCH   8   9
ENDBRANCH   7   8
ENDBRANCH   3   4
ENDBRANCH  17   2
ENDBRANCH  18  17
TORSDOF 8
ENDMDL
MODEL 9
REMARK VINA RESULT:      -6.1     15.570     16.647
REMARK  Name = 
REMARK  8 active torsions:
REMARK  status: ('A' for Active; 'I' for Inactive)
REMARK    1  A    between atoms: C_2  and  O_17
REMARK    2  A    between atoms: N_3  and  C_4
REMARK    3  A    between atoms: C_7  and  O_8
REMARK    4  A    between atoms: O_8  and  C_9
REMARK    5  A    between atoms: O_17  and  C_18
REMARK    6  A    between atoms: C_22  and  N_26
REMARK    7  A    between atoms: C_30  and  S_31
REMARK    8  A    between atoms: S_31  and  C_32
REMARK                            x       y       z     vdW  Elec       q    Type
REMARK                         _______ _______ _______ _____ _____    ______ ____
ROOT
ATOM     18  C   UNL     1      -8.679  -9.947  14.563  0.00  0.00    +0.229 C 
ATOM     19  C   UNL     1      -8.879 -10.722  14.759  0.00  0.00    +0.188 C 
ATOM     20  O   UNL     1      -8.894 -10.781  15.582  0.00  0.00    -0.348 OA
ATOM     21  C   UNL     1      -8.702 -10.043  15.894  0.00  0.00    +0.171 C 
ATOM     22  C   UNL     1      -8.593  -9.622  16.595  0.00  0.00    +0.168 C 
ATOM     23  C   UNL     1      -8.393  -8.846  16.399  0.00  0.00    +0.169 C 
ATOM     24  O   UNL     1      -8.378  -8.787  15.577  0.00  0.00    -0.348 OA
ATOM     25  C   UNL     1      -8.570  -9.527  15.264  0.00  0.00    +0.187 C 
ENDROOT
BRANCH  22  26
ATOM     26  N   UNL     1      -8.670  -9.924  17.359  0.00  0.00    -0.205 N 
ATOM     27  N   UNL     1      -9.370 -10.191  17.707  0.00  0.00    -0.042 NA
ATOM     28  N   UNL     1      -9.194 -10.444  18.472  0.00  0.00    -0.022 NA
ATOM     29  N   UNL     1      -8.386 -10.334  18.597  0.00  0.00    -0.101 NA
ATOM     30  C   UNL     1      -8.063 -10.013  17.909  0.00  0.00    +0.215 A 
BRANCH  30  31
ATOM     31  S   UNL     1      -7.270  -9.815  17.793  0.00  0.00    -0.047 S 
BRANCH  31  32
ATOM     32  C   UNL     1      -6.689 -10.133  18.285  0.00  0.00    +0.032 A 
ATOM     33  C   UNL     1      -6.007 -10.463  17.958  0.00  0.00    +0.007 A 
ATOM     34  C   UNL     1      -5.426 -10.781  18.449  0.00  0.00    +0.001 A 
ATOM     35  C   UNL     1      -5.527 -10.769  19.268  0.00  0.00    +0.000 A 
ATOM     36  C   UNL     1      -6.209 -10.439  19.596  0.00  0.00    +0.001 A 
ATOM     37  C   UNL     1      -6.790 -10.121  19.103  0.00  0.00    +0.007 A 
ENDBRANCH  31  32
ENDBRANCH  30  31
ENDBRANCH  22  26
BRANCH  18  17
ATOM     17  O   UNL     1      -8.601  -9.644  13.799  0.00  0.00    -0.432 OA
BRANCH  17   2
ATOM      1  O   UNL     1      -7.887 -10.751  13.244  0.00  0.00    -0.224 OA
ATOM      2  C   UNL     1      -8.016  -9.937  13.297  0.00  0.00    +0.425 C 
ATOM      3  N   UNL     1      -7.560  -9.417  12.848  0.00  0.00    -0.142 NA
BRANCH   3   4
ATOM      4  C   UNL     1      -6.974  -9.710  12.345  0.00  0.00    +0.077 A 
ATOM      5  C   UNL     1      -7.099  -9.723  11.530  0.00  0.00    +0.020 A 
ATOM      6  C   UNL     1      -6.513 -10.016  11.028  0.00  0.00    +0.039 A 
ATOM      7  C   UNL     1      -5.803 -10.295  11.341  0.00  0.00    +0.145 A 
ATOM     15  C   UNL     1      -5.678 -10.282  12.157  0.00  0.00    +0.039 A 
ATOM     16  C   UNL     1      -6.264  -9.989  12.658  0.00  0.00    +0.020 A 
BRANCH   7   8
ATOM      8  O   UNL     1      -5.217 -10.588  10.839  0.00  0.00    -0.453 OA
BRANCH   8   9
ATOM      9  C   UNL     1      -4.689 -10.069  10.476  0.00  0.00    +0.145 A 
ATOM     10  C   UNL     1      -4.094  -9.708  10.920  0.00  0.00    +0.037 A 
ATOM     11  C   UNL     1      -3.565  -9.190  10.556  0.00  0.00    +0.003 A 
ATOM     12  C   UNL     1      -3.631  -9.033   9.748  0.00  0.00    +0.000 A 
ATOM     13  C   UNL     1      -4.225  -9.395   9.304  0.00  0.00    +0.003 A 
ATOM     14  C   UNL     1      -4.754  -9.913   9.669  0.00  0.00    +0.037 A 
ENDBRANCH   8   9
ENDBRANCH   7   8
ENDBRANCH   3   4
ENDBRANCH  17   2
ENDBRANCH  18  17
TORSDOF 8
ENDMDL
