MODEL 1
REMARK VINA RESULT:      -9.9      0.000      0.000
REMARK  Name = 
REMARK  7 active torsions:
REMARK  status: ('A' for Active; 'I' for Inactive)
REMARK    1  A    between atoms: O_2  and  C_3
REMARK    2  A    between atoms: C_6  and  C_9
REMARK    3  A    between atoms: C_13  and  C_15
REMARK    4  A    between atoms: C_22  and  C_23
REMARK    5  A    between atoms: C_23  and  N_24
REMARK    6  A    between atoms: N_24  and  C_25
REMARK    7  A    between atoms: C_25  and  C_26
REMARK                            x       y       z     vdW  Elec       q    Type
REMARK                         _______ _______ _______ _____ _____    ______ ____
ROOT
ATOM     15  C   UNL     1      -0.515   0.858  23.920  0.00  0.00    +0.056 C 
ATOM     16  C   UNL     1      -0.105   1.368  23.499  0.00  0.00    +0.078 C 
ATOM     17  N   UNL     1       0.042   0.559  23.561  0.00  0.00    -0.272 NA
ATOM     18  C   UNL     1      -0.687   0.160  24.201  0.00  0.00    +0.072 C 
ATOM     19  C   UNL     1      -0.952  -0.350  24.512  0.00  0.00    +0.018 C 
ATOM     20  C   UNL     1      -0.364   0.065  23.976  0.00  0.00    +0.010 C 
ATOM     21  C   UNL     1       0.255  -0.443  23.616  0.00  0.00    +0.018 C 
ATOM     22  C   UNL     1       0.682   0.024  23.190  0.00  0.00    +0.075 C 
ENDROOT
BRANCH  15  13
ATOM      9  C   UNL     1      -2.406   1.452  24.715  0.00  0.00    +0.102 A 
ATOM     10  N   UNL     1      -1.892   1.748  25.289  0.00  0.00    -0.170 NA
ATOM     11  N   UNL     1      -1.121   1.561  25.060  0.00  0.00    -0.253 N 
ATOM     12  C   UNL     1      -0.433   1.752  25.474  0.00  0.00    +0.153 C 
ATOM     13  C   UNL     1      -1.159   1.150  24.346  0.00  0.00    +0.058 A 
ATOM     14  C   UNL     1      -1.953   1.082  24.132  0.00  0.00    +0.035 A 
BRANCH   9   6
ATOM      3  C   UNL     1      -4.874   1.640  24.738  0.00  0.00    +0.139 A 
ATOM      4  C   UNL     1      -4.509   0.956  25.021  0.00  0.00    +0.037 A 
ATOM      5  C   UNL     1      -3.687   0.894  25.014  0.00  0.00    +0.005 A 
ATOM      6  C   UNL     1      -3.228   1.514  24.723  0.00  0.00    +0.020 A 
ATOM      7  C   UNL     1      -3.592   2.199  24.440  0.00  0.00    +0.005 A 
ATOM      8  C   UNL     1      -4.416   2.261  24.447  0.00  0.00    +0.037 A 
BRANCH   3   2
ATOM      1  C   UNL     1      -6.085   1.941  25.434  0.00  0.00    +0.252 C 
ATOM      2  O   UNL     1      -5.696   1.703  24.746  0.00  0.00    -0.471 OA
ENDBRANCH   3   2
ENDBRANCH   9   6
ENDBRANCH  15  13
BRANCH  22  23
ATOM     23  C   UNL     1       1.337   0.038  22.690  0.00  0.00    +0.105 C 
BRANCH  23  24
ATOM     24  N   UNL     1       2.099   0.045  23.007  0.00  0.00    -0.210 NA
BRANCH  24  25
ATOM     25  C   UNL     1       2.753   0.053  22.505  0.00  0.00    +0.134 C 
BRANCH  25  26
ATOM     26  C   UNL     1       3.513   0.118  22.820  0.00  0.00    +0.077 A 
ATOM     27  N   UNL     1       3.865  -0.531  23.189  0.00  0.00    -0.247 NA
ATOM     28  C   UNL     1       4.624  -0.465  23.504  0.00  0.00    +0.098 A 
ATOM     29  C   UNL     1       5.033   0.250  23.450  0.00  0.00    +0.021 A 
ATOM     30  C   UNL     1       4.681   0.899  23.081  0.00  0.00    +0.003 A 
ATOM     31  C   UNL     1       3.922   0.833  22.766  0.00  0.00    +0.016 A 
ENDBRANCH  25  26
ENDBRANCH  24  25
ENDBRANCH  23  24
ENDBRANCH  22  23
TORSDOF 7
ENDMDL
MODEL 2
REMARK VINA RESULT:      -8.1      2.121      6.678
REMARK  Name = 
REMARK  7 active torsions:
REMARK  status: ('A' for Active; 'I' for Inactive)
REMARK    1  A    between atoms: O_2  and  C_3
REMARK    2  A    between atoms: C_6  and  C_9
REMARK    3  A    between atoms: C_13  and  C_15
REMARK    4  A    between atoms: C_22  and  C_23
REMARK    5  A    between atoms: C_23  and  N_24
REMARK    6  A    between atoms: N_24  and  C_25
REMARK    7  A    between atoms: C_25  and  C_26
REMARK                            x       y       z     vdW  Elec       q    Type
REMARK                         _______ _______ _______ _____ _____    ______ ____
ROOT
ATOM     15  C   UNL     1      -0.940   1.532  23.992  0.00  0.00    +0.056 C 
ATOM     16  C   UNL     1      -1.552   1.520  23.511  0.00  0.00    +0.078 C 
ATOM     17  N   UNL     1      -1.467   1.995  24.180  0.00  0.00    -0.272 NA
ATOM     18  C   UNL     1      -0.535   1.770  24.605  0.00  0.00    +0.072 C 
ATOM     19  C   UNL     1      -0.085   1.864  25.068  0.00  0.00    +0.018 C 
ATOM     20  C   UNL     1      -0.865   2.001  24.647  0.00  0.00    +0.010 C 
ATOM     21  C   UNL     1      -1.396   2.601  25.006  0.00  0.00    +0.018 C 
ATOM     22  C   UNL     1      -2.015   2.620  24.558  0.00  0.00    +0.075 C 
ENDROOT
BRANCH  15  13
ATOM      9  C   UNL     1       0.874   0.557  23.428  0.00  0.00    +0.102 A 
ATOM     10  N   UNL     1       0.422  -0.084  23.683  0.00  0.00    -0.170 NA
ATOM     11  N   UNL     1      -0.312   0.203  23.925  0.00  0.00    -0.253 N 
ATOM     12  C   UNL     1      -0.937  -0.249  24.221  0.00  0.00    +0.153 C 
ATOM     13  C   UNL     1      -0.314   1.021  23.820  0.00  0.00    +0.058 A 
ATOM     14  C   UNL     1       0.420   1.240  23.513  0.00  0.00    +0.035 A 
BRANCH   9   6
ATOM      3  C   UNL     1       3.191   0.450  22.562  0.00  0.00    +0.139 A 
ATOM      4  C   UNL     1       2.623  -0.084  22.290  0.00  0.00    +0.037 A 
ATOM      5  C   UNL     1       1.852  -0.048  22.579  0.00  0.00    +0.005 A 
ATOM      6  C   UNL     1       1.646   0.521  23.139  0.00  0.00    +0.020 A 
ATOM      7  C   UNL     1       2.213   1.055  23.411  0.00  0.00    +0.005 A 
ATOM      8  C   UNL     1       2.986   1.019  23.122  0.00  0.00    +0.037 A 
BRANCH   3   2
ATOM      1  C   UNL     1       4.599   0.400  22.798  0.00  0.00    +0.252 C 
ATOM      2  O   UNL     1       3.962   0.414  22.273  0.00  0.00    -0.471 OA
ENDBRANCH   3   2
ENDBRANCH   9   6
ENDBRANCH  15  13
BRANCH  22  23
ATOM     23  C   UNL     1      -2.747   2.989  24.470  0.00  0.00    +0.105 C 
BRANCH  23  24
ATOM     24  N   UNL     1      -3.403   2.709  24.884  0.00  0.00    -0.210 NA
BRANCH  24  25
ATOM     25  C   UNL     1      -4.129   3.095  24.815  0.00  0.00    +0.134 C 
BRANCH  25  26
ATOM     26  C   UNL     1      -4.813   2.742  25.112  0.00  0.00    +0.077 A 
ATOM     27  N   UNL     1      -5.140   3.007  25.822  0.00  0.00    -0.247 NA
ATOM     28  C   UNL     1      -5.824   2.654  26.118  0.00  0.00    +0.098 A 
ATOM     29  C   UNL     1      -6.181   2.036  25.705  0.00  0.00    +0.021 A 
ATOM     30  C   UNL     1      -5.854   1.771  24.995  0.00  0.00    +0.003 A 
ATOM     31  C   UNL     1      -5.171   2.123  24.699  0.00  0.00    +0.016 A 
ENDBRANCH  25  26
ENDBRANCH  24  25
ENDBRANCH  23  24
ENDBRANCH  22  23
TORSDOF 7
ENDMDL
