MODEL 1
REMARK VINA RESULT:      -9.7      0.000      0.000
REMARK  Name = 
REMARK  6 active torsions:
REMARK  status: ('A' for Active; 'I' for Inactive)
REMARK    1  A    between atoms: N_2  and  C_4
REMARK    2  A    between atoms: C_7  and  C_10
REMARK    3  A    between atoms: N_12  and  C_13
REMARK    4  A    between atoms: C_13  and  C_14
REMARK    5  A    between atoms: C_16  and  C_17
REMARK    6  A    between atoms: C_21  and  N_22
REMARK                            x       y       z     vdW  Elec       q    Type
REMARK                         _______ _______ _______ _____ _____    ______ ____
ROOT
ATOM     13  C   UNL     1      -2.835   2.065  24.646  0.00  0.00    +0.146 C 
ENDROOT
BRANCH  13  14
ATOM     14  C   UNL     1      -3.255   2.658  25.037  0.00  0.00    +0.154 C 
ATOM     15  O   UNL     1      -4.068   2.664  25.176  0.00  0.00    -0.350 OA
ATOM     16  C   UNL     1      -4.251   3.358  25.582  0.00  0.00    +0.180 C 
ATOM     19  C   UNL     1      -3.551   3.781  25.693  0.00  0.00    +0.198 C 
ATOM     20  O   UNL     1      -3.480   4.509  26.075  0.00  0.00    -0.219 OA
ATOM     21  C   UNL     1      -2.936   3.348  25.356  0.00  0.00    +0.120 C 
BRANCH  21  22
ATOM     22  N   UNL     1      -2.140   3.566  25.341  0.00  0.00    -0.270 NA
ATOM     23  C   UNL     1      -1.561   3.323  25.875  0.00  0.00    +0.072 C 
ATOM     24  C   UNL     1      -0.847   3.673  25.654  0.00  0.00    +0.019 C 
ATOM     25  C   UNL     1      -0.985   4.132  24.982  0.00  0.00    +0.019 C 
ATOM     26  C   UNL     1      -1.785   4.066  24.789  0.00  0.00    +0.072 C 
ENDBRANCH  21  22
BRANCH  16  17
ATOM     17  C   UNL     1      -5.003   3.590  25.833  0.00  0.00    +0.214 C 
ATOM     18  O   UNL     1      -5.601   3.029  25.915  0.00  0.00    -0.218 OA
ENDBRANCH  16  17
ENDBRANCH  13  14
BRANCH  13  12
ATOM     10  C   UNL     1      -2.753   0.708  24.202  0.00  0.00    +0.265 C 
ATOM     11  O   UNL     1      -2.172   0.921  23.658  0.00  0.00    -0.268 OA
ATOM     12  N   UNL     1      -3.084   1.280  24.696  0.00  0.00    -0.199 NA
BRANCH  10   7
ATOM      4  C   UNL     1      -3.505  -1.645  24.356  0.00  0.00    +0.048 A 
ATOM      5  C   UNL     1      -3.953  -1.095  23.934  0.00  0.00    +0.015 A 
ATOM      6  C   UNL     1      -3.701  -0.311  23.883  0.00  0.00    +0.006 A 
ATOM      7  C   UNL     1      -3.003  -0.076  24.254  0.00  0.00    +0.055 A 
ATOM      8  C   UNL     1      -2.556  -0.625  24.676  0.00  0.00    +0.006 A 
ATOM      9  C   UNL     1      -2.807  -1.410  24.728  0.00  0.00    +0.015 A 
BRANCH   4   2
ATOM      1  C   UNL     1      -4.316  -2.717  23.873  0.00  0.00    +0.112 C 
ATOM      2  N   UNL     1      -3.756  -2.429  24.407  0.00  0.00    -0.304 N 
ATOM      3  C   UNL     1      -3.449  -2.924  24.991  0.00  0.00    +0.112 C 
ENDBRANCH   4   2
ENDBRANCH  10   7
ENDBRANCH  13  12
TORSDOF 6
ENDMDL
MODEL 2
REMARK VINA RESULT:      -9.7      1.250      2.419
REMARK  Name = 
REMARK  6 active torsions:
REMARK  status: ('A' for Active; 'I' for Inactive)
REMARK    1  A    between atoms: N_2  and  C_4
REMARK    2  A    between atoms: C_7  and  C_10
REMARK    3  A    between atoms: N_12  and  C_13
REMARK    4  A    between atoms: C_13  and  C_14
REMARK    5  A    between atoms: C_16  and  C_17
REMARK    6  A    between atoms: C_21  and  N_22
REMARK                            x       y       z     vdW  Elec       q    Type
REMARK                         _______ _______ _______ _____ _____    ______ ____
ROOT
ATOM     13  C   UNL     1      -2.631   1.816  24.962  0.00  0.00    +0.146 C 
ENDROOT
BRANCH  13  14
ATOM     14  C   UNL     1      -1.880   2.157  24.916  0.00  0.00    +0.154 C 
ATOM     15  O   UNL     1      -1.191   1.779  24.664  0.00  0.00    -0.350 OA
ATOM     16  C   UNL     1      -0.573   2.323  24.705  0.00  0.00    +0.180 C 
ATOM     19  C   UNL     1      -0.880   3.037  24.982  0.00  0.00    +0.198 C 
ATOM     20  O   UNL     1      -0.453   3.733  25.107  0.00  0.00    -0.219 OA
ATOM     21  C   UNL     1      -1.688   2.934  25.112  0.00  0.00    +0.120 C 
BRANCH  21  22
ATOM     22  N   UNL     1      -2.212   3.509  25.390  0.00  0.00    -0.270 NA
ATOM     23  C   UNL     1      -2.378   3.671  26.181  0.00  0.00    +0.072 C 
ATOM     24  C   UNL     1      -2.930   4.284  26.205  0.00  0.00    +0.019 C 
ATOM     25  C   UNL     1      -3.105   4.500  25.428  0.00  0.00    +0.019 C 
ATOM     26  C   UNL     1      -2.661   4.021  24.924  0.00  0.00    +0.072 C 
ENDBRANCH  21  22
BRANCH  16  17
ATOM     17  C   UNL     1       0.215   2.179  24.505  0.00  0.00    +0.214 C 
ATOM     18  O   UNL     1       0.420   1.481  24.118  0.00  0.00    -0.218 OA
ENDBRANCH  16  17
ENDBRANCH  13  14
BRANCH  13  12
ATOM     10  C   UNL     1      -3.479   0.672  24.854  0.00  0.00    +0.265 C 
ATOM     11  O   UNL     1      -4.136   1.144  25.009  0.00  0.00    -0.268 OA
ATOM     12  N   UNL     1      -2.726   1.008  24.830  0.00  0.00    -0.199 NA
BRANCH  10   7
ATOM      4  C   UNL     1      -3.761  -1.756  24.458  0.00  0.00    +0.048 A 
ATOM      5  C   UNL     1      -3.553  -1.481  25.209  0.00  0.00    +0.015 A 
ATOM      6  C   UNL     1      -3.459  -0.672  25.340  0.00  0.00    +0.006 A 
ATOM      7  C   UNL     1      -3.573  -0.138  24.721  0.00  0.00    +0.055 A 
ATOM      8  C   UNL     1      -3.780  -0.412  23.972  0.00  0.00    +0.006 A 
ATOM      9  C   UNL     1      -3.875  -1.221  23.840  0.00  0.00    +0.015 A 
BRANCH   4   2
ATOM      1  C   UNL     1      -3.403  -3.107  24.757  0.00  0.00    +0.112 C 
ATOM      2  N   UNL     1      -3.855  -2.565  24.328  0.00  0.00    -0.304 N 
ATOM      3  C   UNL     1      -4.399  -2.832  23.768  0.00  0.00    +0.112 C 
ENDBRANCH   4   2
ENDBRANCH  10   7
ENDBRANCH  13  12
TORSDOF 6
ENDMDL
