MODEL 1
REMARK VINA RESULT:     -10.8      0.000      0.000
REMARK  Name = 
REMARK  8 active torsions:
REMARK  status: ('A' for Active; 'I' for Inactive)
REMARK    1  A    between atoms: C_2  and  C_4
REMARK    2  A    between atoms: C_4  and  C_5
REMARK    3  A    between atoms: C_4  and  N_15
REMARK    4  A    between atoms: C_5  and  C_6
REMARK    5  A    between atoms: C_16  and  C_18
REMARK    6  A    between atoms: C_19  and  N_31
REMARK    7  A    between atoms: C_23  and  C_25
REMARK    8  A    between atoms: N_34  and  C_35
REMARK                            x       y       z     vdW  Elec       q    Type
REMARK                         _______ _______ _______ _____ _____    ______ ____
ROOT
ATOM     18  C   UNL     1      -0.381   0.709  24.019  0.00  0.00    +0.174 C 
ATOM     19  C   UNL     1      -0.738   0.027  24.318  0.00  0.00    +0.126 C 
ATOM     20  C   UNL     1      -0.212  -0.600  24.220  0.00  0.00    +0.045 C 
ATOM     21  C   UNL     1       0.470  -0.307  23.860  0.00  0.00    +0.096 C 
ATOM     22  N   UNL     1       0.366   0.501  23.736  0.00  0.00    -0.267 N 
ATOM     23  C   UNL     1       0.912   1.013  23.389  0.00  0.00    +0.269 C 
ATOM     24  O   UNL     1       0.729   1.813  23.301  0.00  0.00    -0.268 OA
ENDROOT
BRANCH  23  25
ATOM     25  C   UNL     1       1.640   0.726  23.131  0.00  0.00    +0.154 A 
ATOM     26  C   UNL     1       1.673   0.176  22.516  0.00  0.00    +0.123 A 
ATOM     27  N   UNL     1       2.401  -0.111  22.258  0.00  0.00    -0.239 NA
ATOM     28  C   UNL     1       3.098   0.150  22.614  0.00  0.00    +0.120 A 
ATOM     29  C   UNL     1       3.066   0.699  23.229  0.00  0.00    +0.120 A 
ATOM     30  N   UNL     1       2.337   0.987  23.487  0.00  0.00    -0.236 NA
ENDBRANCH  23  25
BRANCH  19  31
ATOM     31  N   UNL     1      -1.489  -0.018  24.656  0.00  0.00    -0.187 NA
ATOM     32  C   UNL     1      -1.983  -0.655  24.481  0.00  0.00    +0.339 C 
ATOM     33  O   UNL     1      -1.725  -1.247  23.967  0.00  0.00    -0.249 OA
ATOM     34  N   UNL     1      -2.734  -0.700  24.819  0.00  0.00    -0.189 NA
BRANCH  34  35
ATOM     35  C   UNL     1      -3.228  -1.338  24.643  0.00  0.00    +0.097 C 
ATOM     36  C   UNL     1      -3.135  -2.054  25.043  0.00  0.00    +0.022 C 
ATOM     37  C   UNL     1      -3.628  -2.691  24.868  0.00  0.00    +0.002 C 
ATOM     38  C   UNL     1      -4.214  -2.614  24.292  0.00  0.00    +0.000 C 
ATOM     39  C   UNL     1      -4.307  -1.898  23.892  0.00  0.00    +0.002 C 
ATOM     40  C   UNL     1      -3.813  -1.260  24.067  0.00  0.00    +0.022 C 
ENDBRANCH  34  35
ENDBRANCH  19  31
BRANCH  18  16
ATOM     15  N   UNL     1      -0.867   1.859  24.713  0.00  0.00    -0.196 NA
ATOM     16  C   UNL     1      -0.712   1.464  24.006  0.00  0.00    +0.262 C 
ATOM     17  O   UNL     1      -0.889   1.823  23.285  0.00  0.00    -0.271 OA
BRANCH  15   4
ATOM      4  C   UNL     1      -1.198   2.614  24.699  0.00  0.00    +0.179 C 
BRANCH   4   2
ATOM      1  N   UNL     1      -0.384   3.227  25.701  0.00  0.00    -0.086 NA
ATOM      2  C   UNL     1      -0.761   3.261  24.970  0.00  0.00    +0.281 C 
ATOM      3  O   UNL     1      -0.703   3.941  24.505  0.00  0.00    -0.270 OA
ENDBRANCH   4   2
BRANCH   4   5
ATOM      5  C   UNL     1      -1.965   2.724  24.416  0.00  0.00    +0.059 C 
BRANCH   5   6
ATOM      6  C   UNL     1      -2.587   2.842  24.944  0.00  0.00    +0.001 A 
ATOM      7  C   UNL     1      -2.516   3.062  25.737  0.00  0.00    +0.095 A 
ATOM      8  N   UNL     1      -3.274   3.117  26.056  0.00  0.00    -0.244 NA
ATOM      9  C   UNL     1      -3.815   2.932  25.461  0.00  0.00    +0.081 A 
ATOM     10  C   UNL     1      -3.390   2.762  24.774  0.00  0.00    +0.015 A 
ATOM     11  C   UNL     1      -3.790   2.557  24.083  0.00  0.00    +0.001 A 
ATOM     12  C   UNL     1      -4.614   2.521  24.077  0.00  0.00    +0.000 A 
ATOM     13  C   UNL     1      -5.038   2.691  24.764  0.00  0.00    +0.002 A 
ATOM     14  C   UNL     1      -4.640   2.896  25.456  0.00  0.00    +0.019 A 
ENDBRANCH   5   6
ENDBRANCH   4   5
ENDBRANCH  15   4
ENDBRANCH  18  16
TORSDOF 8
ENDMDL
MODEL 2
REMARK VINA RESULT:      -9.8      1.296      3.695
REMARK  Name = 
REMARK  8 active torsions:
REMARK  status: ('A' for Active; 'I' for Inactive)
REMARK    1  A    between atoms: C_2  and  C_4
REMARK    2  A    between atoms: C_4  and  C_5
REMARK    3  A    between atoms: C_4  and  N_15
REMARK    4  A    between atoms: C_5  and  C_6
REMARK    5  A    between atoms: C_16  and  C_18
REMARK    6  A    between atoms: C_19  and  N_31
REMARK    7  A    between atoms: C_23  and  C_25
REMARK    8  A    between atoms: N_34  and  C_35
REMARK                            x       y       z     vdW  Elec       q    Type
REMARK                         _______ _______ _______ _____ _____    ______ ____
ROOT
ATOM     18  C   UNL     1       0.134   0.567  23.947  0.00  0.00    +0.174 C 
ATOM     19  C   UNL     1      -0.023   1.298  24.295  0.00  0.00    +0.126 C 
ATOM     20  C   UNL     1       0.620   1.794  24.147  0.00  0.00    +0.045 C 
ATOM     21  C   UNL     1       1.174   1.369  23.708  0.00  0.00    +0.096 C 
ATOM     22  N   UNL     1       0.874   0.611  23.584  0.00  0.00    -0.267 N 
ATOM     23  C   UNL     1       1.248   0.003  23.170  0.00  0.00    +0.269 C 
ATOM     24  O   UNL     1       0.878  -0.731  23.092  0.00  0.00    -0.268 OA
ENDROOT
BRANCH  23  25
ATOM     25  C   UNL     1       1.991   0.128  22.835  0.00  0.00    +0.154 A 
ATOM     26  C   UNL     1       2.088   0.086  22.017  0.00  0.00    +0.123 A 
ATOM     27  N   UNL     1       2.831   0.212  21.682  0.00  0.00    -0.239 NA
ATOM     28  C   UNL     1       3.478   0.380  22.166  0.00  0.00    +0.120 A 
ATOM     29  C   UNL     1       3.382   0.422  22.984  0.00  0.00    +0.120 A 
ATOM     30  N   UNL     1       2.638   0.296  23.319  0.00  0.00    -0.236 NA
ENDBRANCH  23  25
BRANCH  19  31
ATOM     31  N   UNL     1      -0.703   1.499  24.717  0.00  0.00    -0.187 NA
ATOM     32  C   UNL     1      -0.970   2.280  24.722  0.00  0.00    +0.339 C 
ATOM     33  O   UNL     1      -0.557   2.859  24.305  0.00  0.00    -0.249 OA
ATOM     34  N   UNL     1      -1.650   2.480  25.143  0.00  0.00    -0.189 NA
BRANCH  34  35
ATOM     35  C   UNL     1      -1.917   3.261  25.148  0.00  0.00    +0.097 C 
ATOM     36  C   UNL     1      -2.619   3.459  24.762  0.00  0.00    +0.022 C 
ATOM     37  C   UNL     1      -2.886   4.239  24.767  0.00  0.00    +0.002 C 
ATOM     38  C   UNL     1      -2.452   4.822  25.157  0.00  0.00    +0.000 C 
ATOM     39  C   UNL     1      -1.750   4.624  25.543  0.00  0.00    +0.002 C 
ATOM     40  C   UNL     1      -1.482   3.843  25.538  0.00  0.00    +0.022 C 
ENDBRANCH  34  35
ENDBRANCH  19  31
BRANCH  18  16
ATOM     15  N   UNL     1      -0.613  -0.406  24.680  0.00  0.00    -0.196 NA
ATOM     16  C   UNL     1      -0.361  -0.092  23.960  0.00  0.00    +0.262 C 
ATOM     17  O   UNL     1      -0.604  -0.439  23.252  0.00  0.00    -0.271 OA
BRANCH  15   4
ATOM      4  C   UNL     1      -1.108  -1.065  24.693  0.00  0.00    +0.179 C 
BRANCH   4   2
ATOM      1  N   UNL     1      -1.009  -2.486  24.577  0.00  0.00    -0.086 NA
ATOM      2  C   UNL     1      -0.824  -1.788  24.974  0.00  0.00    +0.281 C 
ATOM      3  O   UNL     1      -0.355  -1.810  25.653  0.00  0.00    -0.270 OA
ENDBRANCH   4   2
BRANCH   4   5
ATOM      5  C   UNL     1      -1.886  -1.002  24.426  0.00  0.00    +0.059 C 
BRANCH   5   6
ATOM      6  C   UNL     1      -2.497  -0.861  24.962  0.00  0.00    +0.001 A 
ATOM      7  C   UNL     1      -2.479  -1.022  25.771  0.00  0.00    +0.095 A 
ATOM      8  N   UNL     1      -3.203  -0.794  26.093  0.00  0.00    -0.244 NA
ATOM      9  C   UNL     1      -3.669  -0.493  25.483  0.00  0.00    +0.081 A 
ATOM     10  C   UNL     1      -3.232  -0.534  24.784  0.00  0.00    +0.015 A 
ATOM     11  C   UNL     1      -3.562  -0.268  24.076  0.00  0.00    +0.001 A 
ATOM     12  C   UNL     1      -4.327   0.039  24.066  0.00  0.00    +0.000 A 
ATOM     13  C   UNL     1      -4.763   0.080  24.765  0.00  0.00    +0.002 A 
ATOM     14  C   UNL     1      -4.435  -0.185  25.473  0.00  0.00    +0.019 A 
ENDBRANCH   5   6
ENDBRANCH   4   5
ENDBRANCH  15   4
ENDBRANCH  18  16
TORSDOF 8
ENDMDL
MODEL 3
REMARK VINA RESULT:      -9.6      1.026      4.143
REMARK  Name = 
REMARK  8 active torsions:
REMARK  status: ('A' for Active; 'I' for Inactive)
REMARK    1  A    between atoms: C_2  and  C_4
REMARK    2  A    between atoms: C_4  and  C_5
REMARK    3  A    between atoms: C_4  and  N_15
REMARK    4  A    between atoms: C_5  and  C_6
REMARK    5  A    between atoms: C_16  and  C_18
REMARK    6  A    between atoms: C_19  and  N_31
REMARK    7  A    between atoms: C_23  and  C_25
REMARK    8  A    between atoms: N_34  and  C_35
REMARK                            x       y       z     vdW  Elec       q    Type
REMARK                         _______ _______ _______ _____ _____    ______ ____
ROOT
ATOM     18  C   UNL     1      -1.045   0.231  24.565  0.00  0.00    +0.174 C 
ATOM     19  C   UNL     1      -0.405   0.107  24.059  0.00  0.00    +0.126 C 
ATOM     20  C   UNL     1      -0.499  -0.632  23.705  0.00  0.00    +0.045 C 
ATOM     21  C   UNL     1      -1.198  -0.965  23.992  0.00  0.00    +0.096 C 
ATOM     22  N   UNL     1      -1.535  -0.432  24.523  0.00  0.00    -0.267 N 
ATOM     23  C   UNL     1      -2.239  -0.541  24.939  0.00  0.00    +0.269 C 
ATOM     24  O   UNL     1      -2.509   0.045  25.453  0.00  0.00    -0.268 OA
ENDROOT
BRANCH  23  25
ATOM     25  C   UNL     1      -2.673  -1.235  24.840  0.00  0.00    +0.154 A 
ATOM     26  C   UNL     1      -2.502  -1.898  25.302  0.00  0.00    +0.123 A 
ATOM     27  N   UNL     1      -2.936  -2.592  25.203  0.00  0.00    -0.239 NA
ATOM     28  C   UNL     1      -3.540  -2.625  24.643  0.00  0.00    +0.120 A 
ATOM     29  C   UNL     1      -3.712  -1.963  24.181  0.00  0.00    +0.120 A 
ATOM     30  N   UNL     1      -3.277  -1.268  24.280  0.00  0.00    -0.236 NA
ENDBRANCH  23  25
BRANCH  19  31
ATOM     31  N   UNL     1       0.220   0.630  23.931  0.00  0.00    -0.187 NA
ATOM     32  C   UNL     1       0.886   0.381  23.511  0.00  0.00    +0.339 C 
ATOM     33  O   UNL     1       0.927  -0.390  23.221  0.00  0.00    -0.249 OA
ATOM     34  N   UNL     1       1.511   0.904  23.383  0.00  0.00    -0.189 NA
BRANCH  34  35
ATOM     35  C   UNL     1       2.177   0.655  22.963  0.00  0.00    +0.097 C 
ATOM     36  C   UNL     1       2.931   0.861  23.227  0.00  0.00    +0.022 C 
ATOM     37  C   UNL     1       3.597   0.613  22.809  0.00  0.00    +0.002 C 
ATOM     38  C   UNL     1       3.509   0.159  22.125  0.00  0.00    +0.000 C 
ATOM     39  C   UNL     1       2.754  -0.047  21.861  0.00  0.00    +0.002 C 
ATOM     40  C   UNL     1       2.088   0.202  22.280  0.00  0.00    +0.022 C 
ENDBRANCH  34  35
ENDBRANCH  19  31
BRANCH  18  16
ATOM     15  N   UNL     1      -1.403   1.610  24.678  0.00  0.00    -0.196 NA
ATOM     16  C   UNL     1      -1.173   0.900  25.029  0.00  0.00    +0.262 C 
ATOM     17  O   UNL     1      -1.071   0.859  25.847  0.00  0.00    -0.271 OA
BRANCH  15   4
ATOM      4  C   UNL     1      -1.530   2.279  25.143  0.00  0.00    +0.179 C 
BRANCH   4   2
ATOM      1  N   UNL     1      -0.670   2.873  26.117  0.00  0.00    -0.086 NA
ATOM      2  C   UNL     1      -0.899   2.776  25.331  0.00  0.00    +0.281 C 
ATOM      3  O   UNL     1      -0.497   3.176  24.731  0.00  0.00    -0.270 OA
ENDBRANCH   4   2
BRANCH   4   5
ATOM      5  C   UNL     1      -2.289   2.451  25.419  0.00  0.00    +0.059 C 
BRANCH   5   6
ATOM      6  C   UNL     1      -2.826   2.843  24.933  0.00  0.00    +0.001 A 
ATOM      7  C   UNL     1      -2.702   3.056  24.145  0.00  0.00    +0.095 A 
ATOM      8  N   UNL     1      -3.382   3.435  23.873  0.00  0.00    -0.244 NA
ATOM      9  C   UNL     1      -3.926   3.458  24.492  0.00  0.00    +0.081 A 
ATOM     10  C   UNL     1      -3.583   3.091  25.147  0.00  0.00    +0.015 A 
ATOM     11  C   UNL     1      -4.004   3.032  25.854  0.00  0.00    +0.001 A 
ATOM     12  C   UNL     1      -4.768   3.338  25.907  0.00  0.00    +0.000 A 
ATOM     13  C   UNL     1      -5.111   3.704  25.252  0.00  0.00    +0.002 A 
ATOM     14  C   UNL     1      -4.691   3.764  24.545  0.00  0.00    +0.019 A 
ENDBRANCH   5   6
ENDBRANCH   4   5
ENDBRANCH  15   4
ENDBRANCH  18  16
TORSDOF 8
ENDMDL
MODEL 4
REMARK VINA RESULT:      -9.3      1.207      5.018
REMARK  Name = 
REMARK  8 active torsions:
REMARK  status: ('A' for Active; 'I' for Inactive)
REMARK    1  A    between atoms: C_2  and  C_4
REMARK    2  A    between atoms: C_4  and  C_5
REMARK    3  A    between atoms: C_4  and  N_15
REMARK    4  A    between atoms: C_5  and  C_6
REMARK    5  A    between atoms: C_16  and  C_18
REMARK    6  A    between atoms: C_19  and  N_31
REMARK    7  A    between atoms: C_23  and  C_25
REMARK    8  A    between atoms: N_34  and  C_35
REMARK                            x       y       z     vdW  Elec       q    Type
REMARK                         _______ _______ _______ _____ _____    ______ ____
ROOT
ATOM     18  C   UNL     1      -0.949   1.074  24.555  0.00  0.00    +0.174 C 
ATOM     19  C   UNL     1      -0.365   1.077  23.972  0.00  0.00    +0.126 C 
ATOM     20  C   UNL     1      -0.418   1.792  23.562  0.00  0.00    +0.045 C 
ATOM     21  C   UNL     1      -1.035   2.229  23.892  0.00  0.00    +0.096 C 
ATOM     22  N   UNL     1      -1.363   1.786  24.506  0.00  0.00    -0.267 N 
ATOM     23  C   UNL     1      -1.994   2.014  24.986  0.00  0.00    +0.269 C 
ATOM     24  O   UNL     1      -2.263   1.509  25.580  0.00  0.00    -0.268 OA
ENDROOT
BRANCH  23  25
ATOM     25  C   UNL     1      -2.355   2.746  24.871  0.00  0.00    +0.154 A 
ATOM     26  C   UNL     1      -3.016   2.809  24.381  0.00  0.00    +0.123 A 
ATOM     27  N   UNL     1      -3.377   3.541  24.266  0.00  0.00    -0.239 NA
ATOM     28  C   UNL     1      -3.078   4.211  24.642  0.00  0.00    +0.120 A 
ATOM     29  C   UNL     1      -2.418   4.150  25.133  0.00  0.00    +0.120 A 
ATOM     30  N   UNL     1      -2.056   3.417  25.247  0.00  0.00    -0.236 NA
ENDBRANCH  23  25
BRANCH  19  31
ATOM     31  N   UNL     1       0.176   0.473  23.824  0.00  0.00    -0.187 NA
ATOM     32  C   UNL     1       0.887   0.641  23.438  0.00  0.00    +0.339 C 
ATOM     33  O   UNL     1       1.054   1.413  23.201  0.00  0.00    -0.249 OA
ATOM     34  N   UNL     1       1.428   0.037  23.291  0.00  0.00    -0.189 NA
BRANCH  34  35
ATOM     35  C   UNL     1       2.138   0.205  22.905  0.00  0.00    +0.097 C 
ATOM     36  C   UNL     1       2.255  -0.045  22.127  0.00  0.00    +0.022 C 
ATOM     37  C   UNL     1       2.964   0.123  21.742  0.00  0.00    +0.002 C 
ATOM     38  C   UNL     1       3.558   0.540  22.133  0.00  0.00    +0.000 C 
ATOM     39  C   UNL     1       3.442   0.790  22.912  0.00  0.00    +0.002 C 
ATOM     40  C   UNL     1       2.732   0.622  23.297  0.00  0.00    +0.022 C 
ENDBRANCH  34  35
ENDBRANCH  19  31
BRANCH  18  16
ATOM     15  N   UNL     1      -1.313  -0.282  24.821  0.00  0.00    -0.196 NA
ATOM     16  C   UNL     1      -1.093   0.465  25.092  0.00  0.00    +0.262 C 
ATOM     17  O   UNL     1      -1.018   0.604  25.902  0.00  0.00    -0.271 OA
BRANCH  15   4
ATOM      4  C   UNL     1      -1.457  -0.891  25.359  0.00  0.00    +0.179 C 
BRANCH   4   2
ATOM      1  N   UNL     1      -0.803  -1.129  26.606  0.00  0.00    -0.086 NA
ATOM      2  C   UNL     1      -0.833  -1.218  25.788  0.00  0.00    +0.281 C 
ATOM      3  O   UNL     1      -0.238  -1.634  25.395  0.00  0.00    -0.270 OA
ENDBRANCH   4   2
BRANCH   4   5
ATOM      5  C   UNL     1      -2.225  -1.172  25.468  0.00  0.00    +0.059 C 
BRANCH   5   6
ATOM      6  C   UNL     1      -2.539  -1.728  24.946  0.00  0.00    +0.001 A 
ATOM      7  C   UNL     1      -2.157  -2.408  24.675  0.00  0.00    +0.095 A 
ATOM      8  N   UNL     1      -2.672  -2.803  24.165  0.00  0.00    -0.244 NA
ATOM      9  C   UNL     1      -3.371  -2.368  24.121  0.00  0.00    +0.081 A 
ATOM     10  C   UNL     1      -3.289  -1.704  24.604  0.00  0.00    +0.015 A 
ATOM     11  C   UNL     1      -3.908  -1.162  24.669  0.00  0.00    +0.001 A 
ATOM     12  C   UNL     1      -4.609  -1.285  24.252  0.00  0.00    +0.000 A 
ATOM     13  C   UNL     1      -4.691  -1.949  23.770  0.00  0.00    +0.002 A 
ATOM     14  C   UNL     1      -4.072  -2.490  23.704  0.00  0.00    +0.019 A 
ENDBRANCH   5   6
ENDBRANCH   4   5
ENDBRANCH  15   4
ENDBRANCH  18  16
TORSDOF 8
ENDMDL
MODEL 5
REMARK VINA RESULT:      -9.1      1.661      4.548
REMARK  Name = 
REMARK  8 active torsions:
REMARK  status: ('A' for Active; 'I' for Inactive)
REMARK    1  A    between atoms: C_2  and  C_4
REMARK    2  A    between atoms: C_4  and  C_5
REMARK    3  A    between atoms: C_4  and  N_15
REMARK    4  A    between atoms: C_5  and  C_6
REMARK    5  A    between atoms: C_16  and  C_18
REMARK    6  A    between atoms: C_19  and  N_31
REMARK    7  A    between atoms: C_23  and  C_25
REMARK    8  A    between atoms: N_34  and  C_35
REMARK                            x       y       z     vdW  Elec       q    Type
REMARK                         _______ _______ _______ _____ _____    ______ ____
ROOT
ATOM     18  C   UNL     1      -2.963   0.171  24.198  0.00  0.00    +0.174 C 
ATOM     19  C   UNL     1      -3.618   0.668  24.276  0.00  0.00    +0.126 C 
ATOM     20  C   UNL     1      -4.269   0.202  24.477  0.00  0.00    +0.045 C 
ATOM     21  C   UNL     1      -4.016  -0.582  24.524  0.00  0.00    +0.096 C 
ATOM     22  N   UNL     1      -3.210  -0.602  24.352  0.00  0.00    -0.267 N 
ATOM     23  C   UNL     1      -2.734  -1.275  24.335  0.00  0.00    +0.269 C 
ATOM     24  O   UNL     1      -1.932  -1.208  24.152  0.00  0.00    -0.268 OA
ENDROOT
BRANCH  23  25
ATOM     25  C   UNL     1      -3.059  -2.014  24.501  0.00  0.00    +0.154 A 
ATOM     26  C   UNL     1      -3.055  -2.303  25.274  0.00  0.00    +0.123 A 
ATOM     27  N   UNL     1      -3.380  -3.042  25.440  0.00  0.00    -0.239 NA
ATOM     28  C   UNL     1      -3.710  -3.493  24.833  0.00  0.00    +0.120 A 
ATOM     29  C   UNL     1      -3.715  -3.206  24.060  0.00  0.00    +0.120 A 
ATOM     30  N   UNL     1      -3.389  -2.465  23.894  0.00  0.00    -0.236 NA
ENDBRANCH  23  25
BRANCH  19  31
ATOM     31  N   UNL     1      -3.620   1.486  24.171  0.00  0.00    -0.187 NA
ATOM     32  C   UNL     1      -4.086   1.962  24.658  0.00  0.00    +0.339 C 
ATOM     33  O   UNL     1      -4.548   1.621  25.249  0.00  0.00    -0.249 OA
ATOM     34  N   UNL     1      -4.089   2.780  24.553  0.00  0.00    -0.189 NA
BRANCH  34  35
ATOM     35  C   UNL     1      -4.555   3.257  25.040  0.00  0.00    +0.097 C 
ATOM     36  C   UNL     1      -5.364   3.329  24.895  0.00  0.00    +0.022 C 
ATOM     37  C   UNL     1      -5.830   3.804  25.381  0.00  0.00    +0.002 C 
ATOM     38  C   UNL     1      -5.487   4.210  26.013  0.00  0.00    +0.000 C 
ATOM     39  C   UNL     1      -4.677   4.138  26.158  0.00  0.00    +0.002 C 
ATOM     40  C   UNL     1      -4.211   3.662  25.671  0.00  0.00    +0.022 C 
ENDBRANCH  34  35
ENDBRANCH  19  31
BRANCH  18  16
ATOM     15  N   UNL     1      -1.677   0.652  24.592  0.00  0.00    -0.196 NA
ATOM     16  C   UNL     1      -2.198   0.405  24.002  0.00  0.00    +0.262 C 
ATOM     17  O   UNL     1      -1.952   0.393  23.214  0.00  0.00    -0.271 OA
BRANCH  15   4
ATOM      4  C   UNL     1      -0.911   0.886  24.396  0.00  0.00    +0.179 C 
BRANCH   4   2
ATOM      1  N   UNL     1       0.155   0.248  23.689  0.00  0.00    -0.086 NA
ATOM      2  C   UNL     1      -0.304   0.327  24.369  0.00  0.00    +0.281 C 
ATOM      3  O   UNL     1      -0.156  -0.152  25.025  0.00  0.00    -0.270 OA
ENDBRANCH   4   2
BRANCH   4   5
ATOM      5  C   UNL     1      -0.752   1.677  24.226  0.00  0.00    +0.059 C 
BRANCH   5   6
ATOM      6  C   UNL     1      -0.666   2.222  24.839  0.00  0.00    +0.001 A 
ATOM      7  C   UNL     1      -0.537   2.041  25.634  0.00  0.00    +0.095 A 
ATOM      8  N   UNL     1      -0.486   2.750  26.052  0.00  0.00    -0.244 NA
ATOM      9  C   UNL     1      -0.583   3.369  25.516  0.00  0.00    +0.081 A 
ATOM     10  C   UNL     1      -0.694   3.042  24.767  0.00  0.00    +0.015 A 
ATOM     11  C   UNL     1      -0.806   3.536  24.115  0.00  0.00    +0.001 A 
ATOM     12  C   UNL     1      -0.807   4.355  24.212  0.00  0.00    +0.000 A 
ATOM     13  C   UNL     1      -0.696   4.681  24.961  0.00  0.00    +0.002 A 
ATOM     14  C   UNL     1      -0.584   4.189  25.614  0.00  0.00    +0.019 A 
ENDBRANCH   5   6
ENDBRANCH   4   5
ENDBRANCH  15   4
ENDBRANCH  18  16
TORSDOF 8
ENDMDL
MODEL 6
REMARK VINA RESULT:      -9.1      1.549      4.821
REMARK  Name = 
REMARK  8 active torsions:
REMARK  status: ('A' for Active; 'I' for Inactive)
REMARK    1  A    between atoms: C_2  and  C_4
REMARK    2  A    between atoms: C_4  and  C_5
REMARK    3  A    between atoms: C_4  and  N_15
REMARK    4  A    between atoms: C_5  and  C_6
REMARK    5  A    between atoms: C_16  and  C_18
REMARK    6  A    between atoms: C_19  and  N_31
REMARK    7  A    between atoms: C_23  and  C_25
REMARK    8  A    between atoms: N_34  and  C_35
REMARK                            x       y       z     vdW  Elec       q    Type
REMARK                         _______ _______ _______ _____ _____    ______ ____
ROOT
ATOM     18  C   UNL     1      -3.616   1.971  24.466  0.00  0.00    +0.174 C 
ATOM     19  C   UNL     1      -3.924   1.226  24.292  0.00  0.00    +0.126 C 
ATOM     20  C   UNL     1      -4.725   1.228  24.489  0.00  0.00    +0.045 C 
ATOM     21  C   UNL     1      -4.912   1.976  24.785  0.00  0.00    +0.096 C 
ATOM     22  N   UNL     1      -4.227   2.434  24.771  0.00  0.00    -0.267 N 
ATOM     23  C   UNL     1      -4.164   3.219  25.019  0.00  0.00    +0.269 C 
ATOM     24  O   UNL     1      -3.438   3.608  24.972  0.00  0.00    -0.268 OA
ENDROOT
BRANCH  23  25
ATOM     25  C   UNL     1      -4.825   3.613  25.313  0.00  0.00    +0.154 A 
ATOM     26  C   UNL     1      -5.177   3.362  26.016  0.00  0.00    +0.123 A 
ATOM     27  N   UNL     1      -5.839   3.756  26.310  0.00  0.00    -0.239 NA
ATOM     28  C   UNL     1      -6.149   4.402  25.902  0.00  0.00    +0.120 A 
ATOM     29  C   UNL     1      -5.798   4.654  25.200  0.00  0.00    +0.120 A 
ATOM     30  N   UNL     1      -5.136   4.259  24.905  0.00  0.00    -0.236 NA
ENDBRANCH  23  25
BRANCH  19  31
ATOM     31  N   UNL     1      -3.505   0.590  23.975  0.00  0.00    -0.187 NA
ATOM     32  C   UNL     1      -3.709  -0.183  24.183  0.00  0.00    +0.339 C 
ATOM     33  O   UNL     1      -4.332  -0.318  24.706  0.00  0.00    -0.249 OA
ATOM     34  N   UNL     1      -3.290  -0.819  23.867  0.00  0.00    -0.189 NA
BRANCH  34  35
ATOM     35  C   UNL     1      -3.494  -1.591  24.074  0.00  0.00    +0.097 C 
ATOM     36  C   UNL     1      -4.106  -1.977  23.677  0.00  0.00    +0.022 C 
ATOM     37  C   UNL     1      -4.311  -2.748  23.884  0.00  0.00    +0.002 C 
ATOM     38  C   UNL     1      -3.903  -3.136  24.488  0.00  0.00    +0.000 C 
ATOM     39  C   UNL     1      -3.290  -2.750  24.885  0.00  0.00    +0.002 C 
ATOM     40  C   UNL     1      -3.086  -1.977  24.677  0.00  0.00    +0.022 C 
ENDBRANCH  34  35
ENDBRANCH  19  31
BRANCH  18  16
ATOM     15  N   UNL     1      -2.253   1.986  24.896  0.00  0.00    -0.196 NA
ATOM     16  C   UNL     1      -2.835   2.211  24.355  0.00  0.00    +0.262 C 
ATOM     17  O   UNL     1      -2.635   2.676  23.704  0.00  0.00    -0.271 OA
BRANCH  15   4
ATOM      4  C   UNL     1      -1.472   2.226  24.785  0.00  0.00    +0.179 C 
BRANCH   4   2
ATOM      1  N   UNL     1      -0.804   3.488  24.850  0.00  0.00    -0.086 NA
ATOM      2  C   UNL     1      -1.167   2.852  25.228  0.00  0.00    +0.281 C 
ATOM      3  O   UNL     1      -1.225   2.840  26.052  0.00  0.00    -0.270 OA
ENDBRANCH   4   2
BRANCH   4   5
ATOM      5  C   UNL     1      -0.997   1.841  24.231  0.00  0.00    +0.059 C 
BRANCH   5   6
ATOM      6  C   UNL     1      -0.614   1.139  24.433  0.00  0.00    +0.001 A 
ATOM      7  C   UNL     1      -0.591   0.798  25.184  0.00  0.00    +0.095 A 
ATOM      8  N   UNL     1      -0.150   0.103  25.134  0.00  0.00    -0.244 NA
ATOM      9  C   UNL     1       0.100   0.014  24.353  0.00  0.00    +0.081 A 
ATOM     10  C   UNL     1      -0.187   0.655  23.920  0.00  0.00    +0.015 A 
ATOM     11  C   UNL     1      -0.022   0.714  23.113  0.00  0.00    +0.001 A 
ATOM     12  C   UNL     1       0.429   0.133  22.741  0.00  0.00    +0.000 A 
ATOM     13  C   UNL     1       0.716  -0.507  23.174  0.00  0.00    +0.002 A 
ATOM     14  C   UNL     1       0.551  -0.567  23.980  0.00  0.00    +0.019 A 
ENDBRANCH   5   6
ENDBRANCH   4   5
ENDBRANCH  15   4
ENDBRANCH  18  16
TORSDOF 8
ENDMDL
MODEL 7
REMARK VINA RESULT:      -9.0      1.533      4.826
REMARK  Name = 
REMARK  8 active torsions:
REMARK  status: ('A' for Active; 'I' for Inactive)
REMARK    1  A    between atoms: C_2  and  C_4
REMARK    2  A    between atoms: C_4  and  C_5
REMARK    3  A    between atoms: C_4  and  N_15
REMARK    4  A    between atoms: C_5  and  C_6
REMARK    5  A    between atoms: C_16  and  C_18
REMARK    6  A    between atoms: C_19  and  N_31
REMARK    7  A    between atoms: C_23  and  C_25
REMARK    8  A    between atoms: N_34  and  C_35
REMARK                            x       y       z     vdW  Elec       q    Type
REMARK                         _______ _______ _______ _____ _____    ______ ____
ROOT
ATOM     18  C   UNL     1      -2.070   1.933  24.535  0.00  0.00    +0.174 C 
ATOM     19  C   UNL     1      -1.302   1.639  24.472  0.00  0.00    +0.126 C 
ATOM     20  C   UNL     1      -0.781   2.238  24.698  0.00  0.00    +0.045 C 
ATOM     21  C   UNL     1      -1.227   2.902  24.899  0.00  0.00    +0.096 C 
ATOM     22  N   UNL     1      -2.024   2.714  24.799  0.00  0.00    -0.267 N 
ATOM     23  C   UNL     1      -2.663   3.217  24.938  0.00  0.00    +0.269 C 
ATOM     24  O   UNL     1      -3.433   2.950  24.812  0.00  0.00    -0.268 OA
ENDROOT
BRANCH  23  25
ATOM     25  C   UNL     1      -2.531   3.987  25.202  0.00  0.00    +0.154 A 
ATOM     26  C   UNL     1      -2.762   4.208  25.962  0.00  0.00    +0.123 A 
ATOM     27  N   UNL     1      -2.630   4.978  26.226  0.00  0.00    -0.239 NA
ATOM     28  C   UNL     1      -2.266   5.528  25.730  0.00  0.00    +0.120 A 
ATOM     29  C   UNL     1      -2.035   5.308  24.970  0.00  0.00    +0.120 A 
ATOM     30  N   UNL     1      -2.167   4.537  24.706  0.00  0.00    -0.236 NA
ENDBRANCH  23  25
BRANCH  19  31
ATOM     31  N   UNL     1      -1.092   0.880  24.228  0.00  0.00    -0.187 NA
ATOM     32  C   UNL     1      -0.378   0.757  23.832  0.00  0.00    +0.339 C 
ATOM     33  O   UNL     1       0.125   1.393  23.681  0.00  0.00    -0.249 OA
ATOM     34  N   UNL     1      -0.168  -0.002  23.588  0.00  0.00    -0.189 NA
BRANCH  34  35
ATOM     35  C   UNL     1       0.546  -0.125  23.192  0.00  0.00    +0.097 C 
ATOM     36  C   UNL     1       0.552  -0.226  22.372  0.00  0.00    +0.022 C 
ATOM     37  C   UNL     1       1.264  -0.348  21.977  0.00  0.00    +0.002 C 
ATOM     38  C   UNL     1       1.973  -0.370  22.400  0.00  0.00    +0.000 C 
ATOM     39  C   UNL     1       1.968  -0.269  23.219  0.00  0.00    +0.002 C 
ATOM     40  C   UNL     1       1.254  -0.146  23.615  0.00  0.00    +0.022 C 
ENDBRANCH  34  35
ENDBRANCH  19  31
BRANCH  18  16
ATOM     15  N   UNL     1      -3.101   1.027  24.933  0.00  0.00    -0.196 NA
ATOM     16  C   UNL     1      -2.763   1.520  24.364  0.00  0.00    +0.262 C 
ATOM     17  O   UNL     1      -3.118   1.599  23.624  0.00  0.00    -0.271 OA
BRANCH  15   4
ATOM      4  C   UNL     1      -3.793   0.613  24.762  0.00  0.00    +0.179 C 
BRANCH   4   2
ATOM      1  N   UNL     1      -5.099   1.079  24.414  0.00  0.00    -0.086 NA
ATOM      2  C   UNL     1      -4.525   0.925  24.985  0.00  0.00    +0.281 C 
ATOM      3  O   UNL     1      -4.680   1.080  25.781  0.00  0.00    -0.270 OA
ENDBRANCH   4   2
BRANCH   4   5
ATOM      5  C   UNL     1      -3.756  -0.111  24.368  0.00  0.00    +0.059 C 
BRANCH   5   6
ATOM      6  C   UNL     1      -3.629  -0.806  24.793  0.00  0.00    +0.001 A 
ATOM      7  C   UNL     1      -3.403  -0.856  25.585  0.00  0.00    +0.095 A 
ATOM      8  N   UNL     1      -3.341  -1.654  25.783  0.00  0.00    -0.244 NA
ATOM      9  C   UNL     1      -3.528  -2.097  25.113  0.00  0.00    +0.081 A 
ATOM     10  C   UNL     1      -3.707  -1.573  24.502  0.00  0.00    +0.015 A 
ATOM     11  C   UNL     1      -3.917  -1.864  23.758  0.00  0.00    +0.001 A 
ATOM     12  C   UNL     1      -3.948  -2.677  23.627  0.00  0.00    +0.000 A 
ATOM     13  C   UNL     1      -3.770  -3.201  24.238  0.00  0.00    +0.002 A 
ATOM     14  C   UNL     1      -3.560  -2.912  24.982  0.00  0.00    +0.019 A 
ENDBRANCH   5   6
ENDBRANCH   4   5
ENDBRANCH  15   4
ENDBRANCH  18  16
TORSDOF 8
ENDMDL
