MODEL 1
REMARK VINA RESULT:     -18.5      0.000      0.000
REMARK  Name = 
REMARK  2 active torsions:
REMARK  status: ('A' for Active; 'I' for Inactive)
REMARK    1  A    between atoms: C_5  and  C_8
REMARK    2  A    between atoms: C_19  and  C_24
REMARK                            x       y       z     vdW  Elec       q    Type
REMARK                         _______ _______ _______ _____ _____    ______ ____
ROOT
ATOM      8  C   UNL     1      -2.981   1.444  23.457  0.00  0.00    +0.249 C 
ATOM      9  O   UNL     1      -2.455   1.819  22.862  0.00  0.00    -0.270 OA
ATOM     10  N   UNL     1      -3.421   2.090  23.723  0.00  0.00    -0.276 N 
ATOM     11  C   UNL     1      -3.588   2.908  23.686  0.00  0.00    +0.096 C 
ATOM     12  C   UNL     1      -4.306   2.962  24.363  0.00  0.00    +0.043 C 
ATOM     13  C   UNL     1      -4.898   3.171  24.881  0.00  0.00    +0.011 C 
ATOM     14  C   UNL     1      -4.556   2.588  24.693  0.00  0.00    +0.058 C 
ATOM     15  C   UNL     1      -3.863   2.553  24.036  0.00  0.00    +0.099 C 
ATOM     16  C   UNL     1      -4.514   1.687  24.871  0.00  0.00    +0.041 A 
ATOM     17  C   UNL     1      -4.864   1.112  25.346  0.00  0.00    +0.013 A 
ATOM     18  C   UNL     1      -4.614   0.327  25.295  0.00  0.00    +0.006 A 
ATOM     19  C   UNL     1      -4.014   0.119  24.769  0.00  0.00    +0.056 A 
ATOM     20  C   UNL     1      -3.663   0.694  24.294  0.00  0.00    +0.261 A 
ATOM     21  O   UNL     1      -2.930   0.759  23.574  0.00  0.00    -0.267 OA
ATOM     22  N   UNL     1      -3.914   1.479  24.345  0.00  0.00    -0.299 N 
ATOM     23  C   UNL     1      -4.255   2.020  24.542  0.00  0.00    +0.110 C 
ENDROOT
BRANCH   8   5
ATOM      1  F   UNL     1      -4.241  -1.701  25.481  0.00  0.00    -0.204 F 
ATOM      2  C   UNL     1      -3.932  -0.899  24.955  0.00  0.00    +0.140 A 
ATOM      3  C   UNL     1      -4.275  -0.469  24.241  0.00  0.00    +0.030 A 
ATOM      4  C   UNL     1      -3.986   0.277  23.754  0.00  0.00    +0.007 A 
ATOM      5  C   UNL     1      -3.293   0.683  23.941  0.00  0.00    +0.054 A 
ATOM      6  C   UNL     1      -2.828   0.437  24.576  0.00  0.00    +0.007 A 
ATOM      7  C   UNL     1      -2.936  -0.033  24.948  0.00  0.00    +0.030 A 
ENDBRANCH   8   5
BRANCH  19  24
ATOM     24  C   UNL     1      -3.764  -0.666  24.719  0.00  0.00    +0.005 A 
ATOM     25  C   UNL     1      -3.213  -0.958  25.259  0.00  0.00    +0.001 A 
ATOM     26  C   UNL     1      -2.962  -1.742  25.210  0.00  0.00    +0.011 A 
ATOM     27  C   UNL     1      -3.264  -2.235  24.621  0.00  0.00    +0.058 A 
ATOM     28 CL   UNL     1      -3.003  -3.062  24.565  0.00  0.00    -0.082 Cl
ATOM     29  C   UNL     1      -3.815  -1.944  24.081  0.00  0.00    +0.011 A 
ATOM     30  C   UNL     1      -4.065  -1.158  24.130  0.00  0.00    +0.001 A 
ENDBRANCH  19  24
TORSDOF 2
ENDMDL
MODEL 2
REMARK VINA RESULT:     -17.6      1.798      3.587
REMARK  Name = 
REMARK  2 active torsions:
REMARK  status: ('A' for Active; 'I' for Inactive)
REMARK    1  A    between atoms: C_5  and  C_8
REMARK    2  A    between atoms: C_19  and  C_24
REMARK                            x       y       z     vdW  Elec       q    Type
REMARK                         _______ _______ _______ _____ _____    ______ ____
ROOT
ATOM      8  C   UNL     1      -2.166  -0.640  25.276  0.00  0.00    +0.249 C 
ATOM      9  O   UNL     1      -1.377  -0.760  25.643  0.00  0.00    -0.270 OA
ATOM     10  N   UNL     1      -2.373  -1.411  25.065  0.00  0.00    -0.276 N 
ATOM     11  C   UNL     1      -2.181  -2.224  25.043  0.00  0.00    +0.096 C 
ATOM     12  C   UNL     1      -2.991  -2.573  24.598  0.00  0.00    +0.043 C 
ATOM     13  C   UNL     1      -3.582  -3.012  24.248  0.00  0.00    +0.011 C 
ATOM     14  C   UNL     1      -3.458  -2.338  24.404  0.00  0.00    +0.058 C 
ATOM     15  C   UNL     1      -2.669  -2.016  24.834  0.00  0.00    +0.099 C 
ATOM     16  C   UNL     1      -3.835  -1.503  24.339  0.00  0.00    +0.041 A 
ATOM     17  C   UNL     1      -4.514  -1.126  24.062  0.00  0.00    +0.013 A 
ATOM     18  C   UNL     1      -4.594  -0.309  24.140  0.00  0.00    +0.006 A 
ATOM     19  C   UNL     1      -3.993   0.132  24.495  0.00  0.00    +0.056 A 
ATOM     20  C   UNL     1      -3.314  -0.244  24.773  0.00  0.00    +0.261 A 
ATOM     21  O   UNL     1      -2.430   0.004  25.239  0.00  0.00    -0.267 OA
ATOM     22  N   UNL     1      -3.235  -1.062  24.695  0.00  0.00    -0.299 N 
ATOM     23  C   UNL     1      -3.377  -1.696  24.535  0.00  0.00    +0.110 C 
ENDROOT
BRANCH   8   5
ATOM      1  F   UNL     1      -5.133   1.690  24.119  0.00  0.00    -0.204 F 
ATOM      2  C   UNL     1      -4.384   1.091  24.427  0.00  0.00    +0.140 A 
ATOM      3  C   UNL     1      -4.291   0.550  25.142  0.00  0.00    +0.030 A 
ATOM      4  C   UNL     1      -3.593  -0.006  25.426  0.00  0.00    +0.007 A 
ATOM      5  C   UNL     1      -2.889  -0.079  25.004  0.00  0.00    +0.054 A 
ATOM      6  C   UNL     1      -2.779   0.345  24.305  0.00  0.00    +0.007 A 
ATOM      7  C   UNL     1      -3.174   0.729  24.045  0.00  0.00    +0.030 A 
ENDBRANCH   8   5
BRANCH  19  24
ATOM     24  C   UNL     1      -4.073   0.949  24.573  0.00  0.00    +0.005 A 
ATOM     25  C   UNL     1      -3.821   1.447  23.965  0.00  0.00    +0.001 A 
ATOM     26  C   UNL     1      -3.901   2.265  24.042  0.00  0.00    +0.011 A 
ATOM     27  C   UNL     1      -4.233   2.584  24.726  0.00  0.00    +0.058 A 
ATOM     28 CL   UNL     1      -4.319   3.445  24.811  0.00  0.00    -0.082 Cl
ATOM     29  C   UNL     1      -4.485   2.087  25.334  0.00  0.00    +0.011 A 
ATOM     30  C   UNL     1      -4.405   1.268  25.257  0.00  0.00    +0.001 A 
ENDBRANCH  19  24
TORSDOF 2
ENDMDL
