MODEL 1
REMARK VINA RESULT:     -11.2      0.000      0.000
REMARK  Name = 
REMARK  1 active torsions:
REMARK  status: ('A' for Active; 'I' for Inactive)
REMARK    1  A    between atoms: N_10  and  C_11
REMARK                            x       y       z     vdW  Elec       q    Type
REMARK                         _______ _______ _______ _____ _____    ______ ____
ROOT
ATOM      1  C   UNL     1      -4.953   3.826  25.390  0.00  0.00    +0.095 C 
ATOM      2  C   UNL     1      -5.172   3.050  25.562  0.00  0.00    +0.226 C 
ATOM      3  O   UNL     1      -5.811   2.902  26.063  0.00  0.00    -0.275 OA
ATOM      4  N   UNL     1      -4.752   2.420  25.233  0.00  0.00    -0.276 N 
ATOM      5  C   UNL     1      -4.113   2.568  24.732  0.00  0.00    +0.115 C 
ATOM      6  C   UNL     1      -3.693   1.939  24.404  0.00  0.00    +0.116 C 
ATOM      7  N   UNL     1      -3.911   1.162  24.576  0.00  0.00    -0.261 N 
ATOM      8  C   UNL     1      -4.550   1.014  25.076  0.00  0.00    +0.116 C 
ATOM      9  C   UNL     1      -4.636   0.197  25.145  0.00  0.00    +0.116 C 
ATOM     10  N   UNL     1      -4.051  -0.161  24.687  0.00  0.00    -0.264 N 
ATOM     17  C   UNL     1      -3.604   0.436  24.335  0.00  0.00    +0.307 C 
ATOM     18  O   UNL     1      -2.960   0.325  23.831  0.00  0.00    -0.252 OA
ATOM     19  C   UNL     1      -4.970   1.644  25.406  0.00  0.00    +0.115 C 
ENDROOT
BRANCH  10  11
ATOM     11  C   UNL     1      -3.935  -0.973  24.597  0.00  0.00    +0.077 C 
ATOM     12  C   UNL     1      -3.485  -1.389  25.150  0.00  0.00    +0.020 C 
ATOM     13  C   UNL     1      -3.369  -2.201  25.060  0.00  0.00    +0.002 C 
ATOM     14  C   UNL     1      -3.702  -2.596  24.416  0.00  0.00    +0.000 C 
ATOM     15  C   UNL     1      -4.151  -2.180  23.864  0.00  0.00    +0.002 C 
ATOM     16  C   UNL     1      -4.267  -1.368  23.954  0.00  0.00    +0.020 C 
ENDBRANCH  10  11
TORSDOF 1
ENDMDL
MODEL 2
REMARK VINA RESULT:     -10.4      1.255      1.756
REMARK  Name = 
REMARK  1 active torsions:
REMARK  status: ('A' for Active; 'I' for Inactive)
REMARK    1  A    between atoms: N_10  and  C_11
REMARK                            x       y       z     vdW  Elec       q    Type
REMARK                         _______ _______ _______ _____ _____    ______ ____
ROOT
ATOM      1  C   UNL     1      -3.072   4.160  24.926  0.00  0.00    +0.095 C 
ATOM      2  C   UNL     1      -2.712   3.437  24.760  0.00  0.00    +0.226 C 
ATOM      3  O   UNL     1      -1.914   3.410  24.551  0.00  0.00    -0.275 OA
ATOM      4  N   UNL     1      -3.151   2.739  24.804  0.00  0.00    -0.276 N 
ATOM      5  C   UNL     1      -3.948   2.765  25.013  0.00  0.00    +0.115 C 
ATOM      6  C   UNL     1      -4.386   2.068  25.056  0.00  0.00    +0.116 C 
ATOM      7  N   UNL     1      -4.028   1.344  24.891  0.00  0.00    -0.261 N 
ATOM      8  C   UNL     1      -3.230   1.317  24.682  0.00  0.00    +0.116 C 
ATOM      9  C   UNL     1      -3.027   0.529  24.550  0.00  0.00    +0.116 C 
ATOM     10  N   UNL     1      -3.699   0.068  24.678  0.00  0.00    -0.264 N 
ATOM     17  C   UNL     1      -4.317   0.572  24.888  0.00  0.00    +0.307 C 
ATOM     18  O   UNL     1      -5.090   0.343  25.065  0.00  0.00    -0.252 OA
ATOM     19  C   UNL     1      -2.791   2.015  24.638  0.00  0.00    +0.115 C 
ENDROOT
BRANCH  10  11
ATOM     11  C   UNL     1      -3.744  -0.753  24.607  0.00  0.00    +0.077 C 
ATOM     12  C   UNL     1      -4.077  -1.091  23.932  0.00  0.00    +0.020 C 
ATOM     13  C   UNL     1      -4.123  -1.912  23.861  0.00  0.00    +0.002 C 
ATOM     14  C   UNL     1      -3.836  -2.394  24.467  0.00  0.00    +0.000 C 
ATOM     15  C   UNL     1      -3.503  -2.056  25.141  0.00  0.00    +0.002 C 
ATOM     16  C   UNL     1      -3.458  -1.236  25.212  0.00  0.00    +0.020 C 
ENDBRANCH  10  11
TORSDOF 1
ENDMDL
MODEL 3
REMARK VINA RESULT:      -7.8     18.405     19.537
REMARK  Name = 
REMARK  1 active torsions:
REMARK  status: ('A' for Active; 'I' for Inactive)
REMARK    1  A    between atoms: N_10  and  C_11
REMARK                            x       y       z     vdW  Elec       q    Type
REMARK                         _______ _______ _______ _____ _____    ______ ____
ROOT
ATOM      1  C   UNL     1      16.632   6.507  19.464  0.00  0.00    +0.095 C 
ATOM      2  C   UNL     1      16.151   6.574  20.131  0.00  0.00    +0.226 C 
ATOM      3  O   UNL     1      16.484   6.544  20.885  0.00  0.00    -0.275 OA
ATOM      4  N   UNL     1      15.335   6.670  20.043  0.00  0.00    -0.276 N 
ATOM      5  C   UNL     1      15.002   6.700  19.288  0.00  0.00    +0.115 C 
ATOM      6  C   UNL     1      14.188   6.796  19.201  0.00  0.00    +0.116 C 
ATOM      7  N   UNL     1      13.706   6.862  19.867  0.00  0.00    -0.261 N 
ATOM      8  C   UNL     1      14.039   6.833  20.622  0.00  0.00    +0.116 C 
ATOM      9  C   UNL     1      13.431   6.913  21.172  0.00  0.00    +0.116 C 
ATOM     10  N   UNL     1      12.722   6.992  20.759  0.00  0.00    -0.264 N 
ATOM     17  C   UNL     1      12.892   6.960  19.953  0.00  0.00    +0.307 C 
ATOM     18  O   UNL     1      12.344   7.018  19.338  0.00  0.00    -0.252 OA
ATOM     19  C   UNL     1      14.854   6.736  20.709  0.00  0.00    +0.115 C 
ENDROOT
BRANCH  10  11
ATOM     11  C   UNL     1      11.973   7.086  21.093  0.00  0.00    +0.077 C 
ATOM     12  C   UNL     1      11.559   6.427  21.370  0.00  0.00    +0.020 C 
ATOM     13  C   UNL     1      10.810   6.521  21.704  0.00  0.00    +0.002 C 
ATOM     14  C   UNL     1      10.476   7.274  21.762  0.00  0.00    +0.000 C 
ATOM     15  C   UNL     1      10.890   7.931  21.486  0.00  0.00    +0.002 C 
ATOM     16  C   UNL     1      11.638   7.837  21.152  0.00  0.00    +0.020 C 
ENDBRANCH  10  11
TORSDOF 1
ENDMDL
MODEL 4
REMARK VINA RESULT:      -7.7     19.552     20.498
REMARK  Name = 
REMARK  1 active torsions:
REMARK  status: ('A' for Active; 'I' for Inactive)
REMARK    1  A    between atoms: N_10  and  C_11
REMARK                            x       y       z     vdW  Elec       q    Type
REMARK                         _______ _______ _______ _____ _____    ______ ____
ROOT
ATOM      1  C   UNL     1      11.100   8.413  20.015  0.00  0.00    +0.095 C 
ATOM      2  C   UNL     1      11.612   7.781  20.150  0.00  0.00    +0.226 C 
ATOM      3  O   UNL     1      11.325   7.080  20.477  0.00  0.00    -0.275 OA
ATOM      4  N   UNL     1      12.412   7.850  19.958  0.00  0.00    -0.276 N 
ATOM      5  C   UNL     1      12.699   8.551  19.632  0.00  0.00    +0.115 C 
ATOM      6  C   UNL     1      13.498   8.620  19.440  0.00  0.00    +0.116 C 
ATOM      7  N   UNL     1      14.011   7.988  19.575  0.00  0.00    -0.261 N 
ATOM      8  C   UNL     1      13.724   7.287  19.902  0.00  0.00    +0.116 C 
ATOM      9  C   UNL     1      14.355   6.761  19.971  0.00  0.00    +0.116 C 
ATOM     10  N   UNL     1      15.032   7.137  19.688  0.00  0.00    -0.264 N 
ATOM     17  C   UNL     1      14.819   7.895  19.443  0.00  0.00    +0.307 C 
ATOM     18  O   UNL     1      15.326   8.462  19.122  0.00  0.00    -0.252 OA
ATOM     19  C   UNL     1      12.924   7.218  20.093  0.00  0.00    +0.115 C 
ENDROOT
BRANCH  10  11
ATOM     11  C   UNL     1      15.790   6.812  19.655  0.00  0.00    +0.077 C 
ATOM     12  C   UNL     1      16.018   6.362  19.001  0.00  0.00    +0.020 C 
ATOM     13  C   UNL     1      16.776   6.037  18.968  0.00  0.00    +0.002 C 
ATOM     14  C   UNL     1      17.305   6.161  19.589  0.00  0.00    +0.000 C 
ATOM     15  C   UNL     1      17.077   6.610  20.242  0.00  0.00    +0.002 C 
ATOM     16  C   UNL     1      16.320   6.935  20.275  0.00  0.00    +0.020 C 
ENDBRANCH  10  11
TORSDOF 1
ENDMDL
MODEL 5
REMARK VINA RESULT:      -7.7     17.744     18.966
REMARK  Name = 
REMARK  1 active torsions:
REMARK  status: ('A' for Active; 'I' for Inactive)
REMARK    1  A    between atoms: N_10  and  C_11
REMARK                            x       y       z     vdW  Elec       q    Type
REMARK                         _______ _______ _______ _____ _____    ______ ____
ROOT
ATOM      1  C   UNL     1      14.089   7.745  16.975  0.00  0.00    +0.095 C 
ATOM      2  C   UNL     1      14.060   7.660  17.794  0.00  0.00    +0.226 C 
ATOM      3  O   UNL     1      14.729   7.414  18.209  0.00  0.00    -0.275 OA
ATOM      4  N   UNL     1      13.359   7.822  18.200  0.00  0.00    -0.276 N 
ATOM      5  C   UNL     1      12.690   8.069  17.786  0.00  0.00    +0.115 C 
ATOM      6  C   UNL     1      11.991   8.230  18.192  0.00  0.00    +0.116 C 
ATOM      7  N   UNL     1      11.960   8.146  19.012  0.00  0.00    -0.261 N 
ATOM      8  C   UNL     1      12.629   7.899  19.426  0.00  0.00    +0.116 C 
ATOM      9  C   UNL     1      12.435   7.865  20.227  0.00  0.00    +0.116 C 
ATOM     10  N   UNL     1      11.646   8.090  20.308  0.00  0.00    -0.264 N 
ATOM     17  C   UNL     1      11.353   8.264  19.557  0.00  0.00    +0.307 C 
ATOM     18  O   UNL     1      10.585   8.512  19.382  0.00  0.00    -0.252 OA
ATOM     19  C   UNL     1      13.330   7.737  19.020  0.00  0.00    +0.115 C 
ENDROOT
BRANCH  10  11
ATOM     11  C   UNL     1      11.225   8.135  21.016  0.00  0.00    +0.077 C 
ATOM     12  C   UNL     1      11.143   8.860  21.403  0.00  0.00    +0.020 C 
ATOM     13  C   UNL     1      10.721   8.904  22.111  0.00  0.00    +0.002 C 
ATOM     14  C   UNL     1      10.382   8.224  22.432  0.00  0.00    +0.000 C 
ATOM     15  C   UNL     1      10.463   7.500  22.045  0.00  0.00    +0.002 C 
ATOM     16  C   UNL     1      10.885   7.455  21.338  0.00  0.00    +0.020 C 
ENDBRANCH  10  11
TORSDOF 1
ENDMDL
MODEL 6
REMARK VINA RESULT:      -7.4     19.471     20.466
REMARK  Name = 
REMARK  1 active torsions:
REMARK  status: ('A' for Active; 'I' for Inactive)
REMARK    1  A    between atoms: N_10  and  C_11
REMARK                            x       y       z     vdW  Elec       q    Type
REMARK                         _______ _______ _______ _____ _____    ______ ____
ROOT
ATOM      1  C   UNL     1      11.242   9.004  16.659  0.00  0.00    +0.095 C 
ATOM      2  C   UNL     1      11.507   8.330  17.054  0.00  0.00    +0.226 C 
ATOM      3  O   UNL     1      11.053   7.641  17.047  0.00  0.00    -0.275 OA
ATOM      4  N   UNL     1      12.228   8.345  17.456  0.00  0.00    -0.276 N 
ATOM      5  C   UNL     1      12.682   9.034  17.463  0.00  0.00    +0.115 C 
ATOM      6  C   UNL     1      13.402   9.048  17.865  0.00  0.00    +0.116 C 
ATOM      7  N   UNL     1      13.668   8.375  18.261  0.00  0.00    -0.261 N 
ATOM      8  C   UNL     1      13.214   7.686  18.254  0.00  0.00    +0.116 C 
ATOM      9  C   UNL     1      13.615   7.112  18.689  0.00  0.00    +0.116 C 
ATOM     10  N   UNL     1      14.317   7.445  18.965  0.00  0.00    -0.264 N 
ATOM     17  C   UNL     1      14.349   8.226  18.700  0.00  0.00    +0.307 C 
ATOM     18  O   UNL     1      14.957   8.763  18.849  0.00  0.00    -0.252 OA
ATOM     19  C   UNL     1      12.493   7.671  17.851  0.00  0.00    +0.115 C 
ENDROOT
BRANCH  10  11
ATOM     11  C   UNL     1      14.886   7.065  19.426  0.00  0.00    +0.077 C 
ATOM     12  C   UNL     1      14.780   6.999  20.242  0.00  0.00    +0.020 C 
ATOM     13  C   UNL     1      15.349   6.619  20.702  0.00  0.00    +0.002 C 
ATOM     14  C   UNL     1      16.024   6.305  20.347  0.00  0.00    +0.000 C 
ATOM     15  C   UNL     1      16.130   6.370  19.532  0.00  0.00    +0.002 C 
ATOM     16  C   UNL     1      15.561   6.751  19.071  0.00  0.00    +0.020 C 
ENDBRANCH  10  11
TORSDOF 1
ENDMDL
