MODEL 1
REMARK VINA RESULT:     -10.3      0.000      0.000
REMARK  Name = 
REMARK  6 active torsions:
REMARK  status: ('A' for Active; 'I' for Inactive)
REMARK    1  A    between atoms: O_2  and  C_3
REMARK    2  A    between atoms: C_3  and  C_4
REMARK    3  A    between atoms: C_10  and  C_13
REMARK    4  A    between atoms: C_16  and  C_18
REMARK    5  A    between atoms: N_22  and  C_23
REMARK    6  A    between atoms: C_23  and  C_24
REMARK                            x       y       z     vdW  Elec       q    Type
REMARK                         _______ _______ _______ _____ _____    ______ ____
ROOT
ATOM     13  C   UNL     1      -3.591   1.373  24.380  0.00  0.00    +0.205 A 
ATOM     14  N   UNL     1      -3.653   1.877  23.729  0.00  0.00    -0.056 NA
ATOM     15  O   UNL     1      -3.487   2.645  23.985  0.00  0.00    -0.336 OA
ATOM     16  C   UNL     1      -3.323   2.615  24.793  0.00  0.00    +0.251 A 
ATOM     17  N   UNL     1      -3.387   1.829  25.037  0.00  0.00    -0.190 NA
ENDROOT
BRANCH  13  10
ATOM      4  C   UNL     1      -3.428  -2.403  24.409  0.00  0.00    +0.277 C 
ATOM      5  O   UNL     1      -3.549  -3.220  24.403  0.00  0.00    -0.270 OA
ATOM      6  N   UNL     1      -4.073  -1.891  24.356  0.00  0.00    -0.158 NA
ATOM      7  C   UNL     1      -3.952  -1.074  24.362  0.00  0.00    +0.155 A 
ATOM      8  N   UNL     1      -3.187  -0.771  24.421  0.00  0.00    -0.227 NA
ATOM      9  C   UNL     1      -3.066   0.045  24.427  0.00  0.00    +0.103 A 
ATOM     10  C   UNL     1      -3.711   0.558  24.374  0.00  0.00    +0.058 A 
ATOM     11  C   UNL     1      -4.476   0.254  24.316  0.00  0.00    +0.008 A 
ATOM     12  C   UNL     1      -4.596  -0.562  24.310  0.00  0.00    +0.036 A 
BRANCH   4   3
ATOM      3  C   UNL     1      -2.663  -2.100  24.468  0.00  0.00    +0.229 C 
BRANCH   3   2
ATOM      1  C   UNL     1      -1.261  -2.326  24.619  0.00  0.00    +0.175 C 
ATOM      2  O   UNL     1      -2.014  -2.609  24.440  0.00  0.00    -0.342 OA
ENDBRANCH   3   2
ENDBRANCH   4   3
ENDBRANCH  13  10
BRANCH  16  18
ATOM     18  C   UNL     1      -3.129   3.257  25.273  0.00  0.00    +0.138 C 
ATOM     19  C   UNL     1      -3.652   3.680  25.750  0.00  0.00    +0.027 C 
ATOM     20  C   UNL     1      -3.225   4.274  26.132  0.00  0.00    +0.019 C 
ATOM     21  C   UNL     1      -2.438   4.217  25.891  0.00  0.00    +0.073 C 
ATOM     22  N   UNL     1      -2.379   3.588  25.359  0.00  0.00    -0.266 NA
BRANCH  22  23
ATOM     23  C   UNL     1      -1.691   3.336  24.982  0.00  0.00    +0.072 C 
BRANCH  23  24
ATOM     24  C   UNL     1      -0.971   3.705  25.145  0.00  0.00    +0.015 C 
ATOM     25  C   UNL     1      -0.251   4.074  25.309  0.00  0.00    +0.001 C 
ATOM     26  C   UNL     1      -1.140   4.284  24.583  0.00  0.00    +0.001 C 
ATOM     27  C   UNL     1      -0.802   3.125  25.708  0.00  0.00    +0.001 C 
ENDBRANCH  23  24
ENDBRANCH  22  23
ENDBRANCH  16  18
TORSDOF 6
ENDMDL
MODEL 2
REMARK VINA RESULT:     -10.0      0.799      1.073
REMARK  Name = 
REMARK  6 active torsions:
REMARK  status: ('A' for Active; 'I' for Inactive)
REMARK    1  A    between atoms: O_2  and  C_3
REMARK    2  A    between atoms: C_3  and  C_4
REMARK    3  A    between atoms: C_10  and  C_13
REMARK    4  A    between atoms: C_16  and  C_18
REMARK    5  A    between atoms: N_22  and  C_23
REMARK    6  A    between atoms: C_23  and  C_24
REMARK                            x       y       z     vdW  Elec       q    Type
REMARK                         _______ _______ _______ _____ _____    ______ ____
ROOT
ATOM     13  C   UNL     1      -3.802   1.048  24.331  0.00  0.00    +0.205 A 
ATOM     14  N   UNL     1      -3.992   1.502  23.669  0.00  0.00    -0.056 NA
ATOM     15  O   UNL     1      -4.108   2.280  23.918  0.00  0.00    -0.336 OA
ATOM     16  C   UNL     1      -3.990   2.307  24.734  0.00  0.00    +0.251 A 
ATOM     17  N   UNL     1      -3.800   1.545  24.989  0.00  0.00    -0.190 NA
ENDROOT
BRANCH  13  10
ATOM      4  C   UNL     1      -2.398  -2.457  24.512  0.00  0.00    +0.277 C 
ATOM      5  O   UNL     1      -2.238  -3.267  24.515  0.00  0.00    -0.270 OA
ATOM      6  N   UNL     1      -3.160  -2.189  24.343  0.00  0.00    -0.158 NA
ATOM      7  C   UNL     1      -3.321  -1.379  24.340  0.00  0.00    +0.155 A 
ATOM      8  N   UNL     1      -2.719  -0.839  24.506  0.00  0.00    -0.227 NA
ATOM      9  C   UNL     1      -2.880  -0.030  24.503  0.00  0.00    +0.103 A 
ATOM     10  C   UNL     1      -3.642   0.240  24.334  0.00  0.00    +0.058 A 
ATOM     11  C   UNL     1      -4.242  -0.301  24.168  0.00  0.00    +0.008 A 
ATOM     12  C   UNL     1      -4.082  -1.110  24.171  0.00  0.00    +0.036 A 
BRANCH   4   3
ATOM      3  C   UNL     1      -1.797  -1.917  24.678  0.00  0.00    +0.229 C 
BRANCH   3   2
ATOM      1  C   UNL     1      -0.457  -1.658  25.099  0.00  0.00    +0.175 C 
ATOM      2  O   UNL     1      -1.094  -2.175  25.024  0.00  0.00    -0.342 OA
ENDBRANCH   3   2
ENDBRANCH   4   3
ENDBRANCH  13  10
BRANCH  16  18
ATOM     18  C   UNL     1      -4.050   2.977  25.212  0.00  0.00    +0.138 C 
ATOM     19  C   UNL     1      -4.723   3.220  25.623  0.00  0.00    +0.027 C 
ATOM     20  C   UNL     1      -4.537   3.915  26.027  0.00  0.00    +0.019 C 
ATOM     21  C   UNL     1      -3.749   4.101  25.867  0.00  0.00    +0.073 C 
ATOM     22  N   UNL     1      -3.448   3.520  25.362  0.00  0.00    -0.266 NA
BRANCH  22  23
ATOM     23  C   UNL     1      -2.681   3.490  25.062  0.00  0.00    +0.072 C 
BRANCH  23  24
ATOM     24  C   UNL     1      -2.144   4.091  25.239  0.00  0.00    +0.015 C 
ATOM     25  C   UNL     1      -1.608   4.693  25.415  0.00  0.00    +0.001 C 
ATOM     26  C   UNL     1      -1.880   3.665  25.893  0.00  0.00    +0.001 C 
ATOM     27  C   UNL     1      -2.408   4.519  24.584  0.00  0.00    +0.001 C 
ENDBRANCH  23  24
ENDBRANCH  22  23
ENDBRANCH  16  18
TORSDOF 6
ENDMDL
MODEL 3
REMARK VINA RESULT:      -9.8      1.700      5.721
REMARK  Name = 
REMARK  6 active torsions:
REMARK  status: ('A' for Active; 'I' for Inactive)
REMARK    1  A    between atoms: O_2  and  C_3
REMARK    2  A    between atoms: C_3  and  C_4
REMARK    3  A    between atoms: C_10  and  C_13
REMARK    4  A    between atoms: C_16  and  C_18
REMARK    5  A    between atoms: N_22  and  C_23
REMARK    6  A    between atoms: C_23  and  C_24
REMARK                            x       y       z     vdW  Elec       q    Type
REMARK                         _______ _______ _______ _____ _____    ______ ____
ROOT
ATOM     13  C   UNL     1      -1.087   0.584  25.392  0.00  0.00    +0.205 A 
ATOM     14  N   UNL     1      -1.102   0.202  26.124  0.00  0.00    -0.056 NA
ATOM     15  O   UNL     1      -1.259  -0.597  25.991  0.00  0.00    -0.336 OA
ATOM     16  C   UNL     1      -1.342  -0.709  25.178  0.00  0.00    +0.251 A 
ATOM     17  N   UNL     1      -1.236   0.021  24.808  0.00  0.00    -0.190 NA
ENDROOT
BRANCH  13  10
ATOM      4  C   UNL     1      -1.104   4.353  25.105  0.00  0.00    +0.277 C 
ATOM      5  O   UNL     1      -0.965   5.156  24.980  0.00  0.00    -0.270 OA
ATOM      6  N   UNL     1      -0.531   3.798  24.893  0.00  0.00    -0.158 NA
ATOM      7  C   UNL     1      -0.670   2.993  25.018  0.00  0.00    +0.155 A 
ATOM      8  N   UNL     1      -1.382   2.746  25.354  0.00  0.00    -0.227 NA
ATOM      9  C   UNL     1      -1.521   1.942  25.479  0.00  0.00    +0.103 A 
ATOM     10  C   UNL     1      -0.948   1.386  25.268  0.00  0.00    +0.058 A 
ATOM     11  C   UNL     1      -0.237   1.635  24.932  0.00  0.00    +0.008 A 
ATOM     12  C   UNL     1      -0.098   2.439  24.807  0.00  0.00    +0.036 A 
BRANCH   4   3
ATOM      3  C   UNL     1      -1.816   4.105  25.441  0.00  0.00    +0.229 C 
BRANCH   3   2
ATOM      1  C   UNL     1      -3.067   4.414  26.055  0.00  0.00    +0.175 C 
ATOM      2  O   UNL     1      -2.349   4.661  25.736  0.00  0.00    -0.342 OA
ENDBRANCH   3   2
ENDBRANCH   4   3
ENDBRANCH  13  10
BRANCH  16  18
ATOM     18  C   UNL     1      -1.504  -1.425  24.801  0.00  0.00    +0.138 C 
ATOM     19  C   UNL     1      -0.946  -1.988  24.571  0.00  0.00    +0.027 C 
ATOM     20  C   UNL     1      -1.348  -2.615  24.215  0.00  0.00    +0.019 C 
ATOM     21  C   UNL     1      -2.154  -2.439  24.225  0.00  0.00    +0.073 C 
ATOM     22  N   UNL     1      -2.250  -1.703  24.587  0.00  0.00    -0.266 NA
BRANCH  22  23
ATOM     23  C   UNL     1      -2.967  -1.315  24.712  0.00  0.00    +0.072 C 
BRANCH  23  24
ATOM     24  C   UNL     1      -3.668  -1.639  24.424  0.00  0.00    +0.015 C 
ATOM     25  C   UNL     1      -4.370  -1.963  24.134  0.00  0.00    +0.001 C 
ATOM     26  C   UNL     1      -3.703  -2.145  25.074  0.00  0.00    +0.001 C 
ATOM     27  C   UNL     1      -3.634  -1.133  23.772  0.00  0.00    +0.001 C 
ENDBRANCH  23  24
ENDBRANCH  22  23
ENDBRANCH  16  18
TORSDOF 6
ENDMDL
MODEL 4
REMARK VINA RESULT:      -9.8      1.607      4.996
REMARK  Name = 
REMARK  6 active torsions:
REMARK  status: ('A' for Active; 'I' for Inactive)
REMARK    1  A    between atoms: O_2  and  C_3
REMARK    2  A    between atoms: C_3  and  C_4
REMARK    3  A    between atoms: C_10  and  C_13
REMARK    4  A    between atoms: C_16  and  C_18
REMARK    5  A    between atoms: N_22  and  C_23
REMARK    6  A    between atoms: C_23  and  C_24
REMARK                            x       y       z     vdW  Elec       q    Type
REMARK                         _______ _______ _______ _____ _____    ______ ____
ROOT
ATOM     13  C   UNL     1      -4.153   0.326  24.366  0.00  0.00    +0.205 A 
ATOM     14  N   UNL     1      -3.969   0.161  23.578  0.00  0.00    -0.056 NA
ATOM     15  O   UNL     1      -3.630  -0.591  23.548  0.00  0.00    -0.336 OA
ATOM     16  C   UNL     1      -3.604  -0.890  24.317  0.00  0.00    +0.251 A 
ATOM     17  N   UNL     1      -3.927  -0.323  24.822  0.00  0.00    -0.190 NA
ENDROOT
BRANCH  13  10
ATOM      4  C   UNL     1      -5.073   3.739  25.707  0.00  0.00    +0.277 C 
ATOM      5  O   UNL     1      -5.422   4.432  25.989  0.00  0.00    -0.270 OA
ATOM      6  N   UNL     1      -5.546   3.098  25.491  0.00  0.00    -0.158 NA
ATOM      7  C   UNL     1      -5.198   2.404  25.210  0.00  0.00    +0.155 A 
ATOM      8  N   UNL     1      -4.377   2.353  25.145  0.00  0.00    -0.227 NA
ATOM      9  C   UNL     1      -4.028   1.660  24.863  0.00  0.00    +0.103 A 
ATOM     10  C   UNL     1      -4.501   1.018  24.647  0.00  0.00    +0.058 A 
ATOM     11  C   UNL     1      -5.322   1.071  24.713  0.00  0.00    +0.008 A 
ATOM     12  C   UNL     1      -5.670   1.764  24.994  0.00  0.00    +0.036 A 
BRANCH   4   3
ATOM      3  C   UNL     1      -4.252   3.688  25.642  0.00  0.00    +0.229 C 
BRANCH   3   2
ATOM      1  C   UNL     1      -2.956   4.210  25.937  0.00  0.00    +0.175 C 
ATOM      2  O   UNL     1      -3.771   4.210  26.061  0.00  0.00    -0.342 OA
ENDBRANCH   3   2
ENDBRANCH   4   3
ENDBRANCH  13  10
BRANCH  16  18
ATOM     18  C   UNL     1      -3.307  -1.626  24.541  0.00  0.00    +0.138 C 
ATOM     19  C   UNL     1      -3.742  -2.325  24.605  0.00  0.00    +0.027 C 
ATOM     20  C   UNL     1      -3.227  -2.923  24.845  0.00  0.00    +0.019 C 
ATOM     21  C   UNL     1      -2.475  -2.595  24.928  0.00  0.00    +0.073 C 
ATOM     22  N   UNL     1      -2.524  -1.793  24.740  0.00  0.00    -0.266 NA
BRANCH  22  23
ATOM     23  C   UNL     1      -1.901  -1.253  24.751  0.00  0.00    +0.072 C 
BRANCH  23  24
ATOM     24  C   UNL     1      -1.151  -1.493  24.998  0.00  0.00    +0.015 C 
ATOM     25  C   UNL     1      -0.401  -1.733  25.246  0.00  0.00    +0.001 C 
ATOM     26  C   UNL     1      -0.991  -1.777  24.240  0.00  0.00    +0.001 C 
ATOM     27  C   UNL     1      -1.311  -1.209  25.756  0.00  0.00    +0.001 C 
ENDBRANCH  23  24
ENDBRANCH  22  23
ENDBRANCH  16  18
TORSDOF 6
ENDMDL
MODEL 5
REMARK VINA RESULT:      -9.6      1.645      2.651
REMARK  Name = 
REMARK  6 active torsions:
REMARK  status: ('A' for Active; 'I' for Inactive)
REMARK    1  A    between atoms: O_2  and  C_3
REMARK    2  A    between atoms: C_3  and  C_4
REMARK    3  A    between atoms: C_10  and  C_13
REMARK    4  A    between atoms: C_16  and  C_18
REMARK    5  A    between atoms: N_22  and  C_23
REMARK    6  A    between atoms: C_23  and  C_24
REMARK                            x       y       z     vdW  Elec       q    Type
REMARK                         _______ _______ _______ _____ _____    ______ ____
ROOT
ATOM     13  C   UNL     1      -0.833   1.470  25.386  0.00  0.00    +0.205 A 
ATOM     14  N   UNL     1      -0.480   1.708  26.094  0.00  0.00    -0.056 NA
ATOM     15  O   UNL     1      -0.570   2.525  26.161  0.00  0.00    -0.336 OA
ATOM     16  C   UNL     1      -0.978   2.792  25.496  0.00  0.00    +0.251 A 
ATOM     17  N   UNL     1      -1.140   2.140  25.017  0.00  0.00    -0.190 NA
ENDROOT
BRANCH  13  10
ATOM      4  C   UNL     1      -1.639  -2.093  24.412  0.00  0.00    +0.277 C 
ATOM      5  O   UNL     1      -1.677  -2.865  24.125  0.00  0.00    -0.270 OA
ATOM      6  N   UNL     1      -0.985  -1.620  24.239  0.00  0.00    -0.158 NA
ATOM      7  C   UNL     1      -0.947  -0.847  24.526  0.00  0.00    +0.155 A 
ATOM      8  N   UNL     1      -1.563  -0.548  24.986  0.00  0.00    -0.227 NA
ATOM      9  C   UNL     1      -1.525   0.225  25.273  0.00  0.00    +0.103 A 
ATOM     10  C   UNL     1      -0.871   0.698  25.100  0.00  0.00    +0.058 A 
ATOM     11  C   UNL     1      -0.256   0.398  24.640  0.00  0.00    +0.008 A 
ATOM     12  C   UNL     1      -0.294  -0.375  24.353  0.00  0.00    +0.036 A 
BRANCH   4   3
ATOM      3  C   UNL     1      -2.255  -1.793  24.872  0.00  0.00    +0.229 C 
BRANCH   3   2
ATOM      1  C   UNL     1      -3.570  -1.934  25.411  0.00  0.00    +0.175 C 
ATOM      2  O   UNL     1      -2.913  -2.262  25.037  0.00  0.00    -0.342 OA
ENDBRANCH   3   2
ENDBRANCH   4   3
ENDBRANCH  13  10
BRANCH  16  18
ATOM     18  C   UNL     1      -1.187   3.574  25.337  0.00  0.00    +0.138 C 
ATOM     19  C   UNL     1      -0.675   4.173  25.090  0.00  0.00    +0.027 C 
ATOM     20  C   UNL     1      -1.116   4.863  24.997  0.00  0.00    +0.019 C 
ATOM     21  C   UNL     1      -1.901   4.692  25.186  0.00  0.00    +0.073 C 
ATOM     22  N   UNL     1      -1.945   3.895  25.396  0.00  0.00    -0.266 NA
BRANCH  22  23
ATOM     23  C   UNL     1      -2.627   3.492  25.624  0.00  0.00    +0.072 C 
BRANCH  23  24
ATOM     24  C   UNL     1      -3.354   3.880  25.630  0.00  0.00    +0.015 C 
ATOM     25  C   UNL     1      -4.082   4.268  25.636  0.00  0.00    +0.001 C 
ATOM     26  C   UNL     1      -3.492   3.634  24.855  0.00  0.00    +0.001 C 
ATOM     27  C   UNL     1      -3.217   4.126  26.406  0.00  0.00    +0.001 C 
ENDBRANCH  23  24
ENDBRANCH  22  23
ENDBRANCH  16  18
TORSDOF 6
ENDMDL
MODEL 6
REMARK VINA RESULT:      -9.5      1.947      5.105
REMARK  Name = 
REMARK  6 active torsions:
REMARK  status: ('A' for Active; 'I' for Inactive)
REMARK    1  A    between atoms: O_2  and  C_3
REMARK    2  A    between atoms: C_3  and  C_4
REMARK    3  A    between atoms: C_10  and  C_13
REMARK    4  A    between atoms: C_16  and  C_18
REMARK    5  A    between atoms: N_22  and  C_23
REMARK    6  A    between atoms: C_23  and  C_24
REMARK                            x       y       z     vdW  Elec       q    Type
REMARK                         _______ _______ _______ _____ _____    ______ ____
ROOT
ATOM     13  C   UNL     1      -2.556   1.268  24.392  0.00  0.00    +0.205 A 
ATOM     14  N   UNL     1      -2.176   1.143  23.669  0.00  0.00    -0.056 NA
ATOM     15  O   UNL     1      -1.744   0.442  23.727  0.00  0.00    -0.336 OA
ATOM     16  C   UNL     1      -1.857   0.134  24.484  0.00  0.00    +0.251 A 
ATOM     17  N   UNL     1      -2.359   0.645  24.895  0.00  0.00    -0.190 NA
ENDROOT
BRANCH  13  10
ATOM      4  C   UNL     1      -5.233   3.683  25.529  0.00  0.00    +0.277 C 
ATOM      5  O   UNL     1      -5.724   4.319  25.715  0.00  0.00    -0.270 OA
ATOM      6  N   UNL     1      -4.520   3.814  25.135  0.00  0.00    -0.158 NA
ATOM      7  C   UNL     1      -4.028   3.176  24.949  0.00  0.00    +0.155 A 
ATOM      8  N   UNL     1      -4.251   2.410  25.158  0.00  0.00    -0.227 NA
ATOM      9  C   UNL     1      -3.760   1.773  24.972  0.00  0.00    +0.103 A 
ATOM     10  C   UNL     1      -3.047   1.903  24.577  0.00  0.00    +0.058 A 
ATOM     11  C   UNL     1      -2.825   2.670  24.369  0.00  0.00    +0.008 A 
ATOM     12  C   UNL     1      -3.316   3.307  24.555  0.00  0.00    +0.036 A 
BRANCH   4   3
ATOM      3  C   UNL     1      -5.455   2.916  25.738  0.00  0.00    +0.229 C 
BRANCH   3   2
ATOM      1  C   UNL     1      -6.359   2.038  26.410  0.00  0.00    +0.175 C 
ATOM      2  O   UNL     1      -6.061   2.796  26.284  0.00  0.00    -0.342 OA
ENDBRANCH   3   2
ENDBRANCH   4   3
ENDBRANCH  13  10
BRANCH  16  18
ATOM     18  C   UNL     1      -1.526  -0.562  24.779  0.00  0.00    +0.138 C 
ATOM     19  C   UNL     1      -0.756  -0.651  25.061  0.00  0.00    +0.027 C 
ATOM     20  C   UNL     1      -0.661  -1.434  25.300  0.00  0.00    +0.019 C 
ATOM     21  C   UNL     1      -1.372  -1.830  25.166  0.00  0.00    +0.073 C 
ATOM     22  N   UNL     1      -1.907  -1.290  24.843  0.00  0.00    -0.266 NA
BRANCH  22  23
ATOM     23  C   UNL     1      -2.686  -1.452  24.624  0.00  0.00    +0.072 C 
BRANCH  23  24
ATOM     24  C   UNL     1      -3.011  -2.195  24.773  0.00  0.00    +0.015 C 
ATOM     25  C   UNL     1      -3.336  -2.939  24.923  0.00  0.00    +0.001 C 
ATOM     26  C   UNL     1      -2.684  -2.479  24.071  0.00  0.00    +0.001 C 
ATOM     27  C   UNL     1      -3.338  -1.911  25.476  0.00  0.00    +0.001 C 
ENDBRANCH  23  24
ENDBRANCH  22  23
ENDBRANCH  16  18
TORSDOF 6
ENDMDL
MODEL 7
REMARK VINA RESULT:      -9.4      1.288      5.125
REMARK  Name = 
REMARK  6 active torsions:
REMARK  status: ('A' for Active; 'I' for Inactive)
REMARK    1  A    between atoms: O_2  and  C_3
REMARK    2  A    between atoms: C_3  and  C_4
REMARK    3  A    between atoms: C_10  and  C_13
REMARK    4  A    between atoms: C_16  and  C_18
REMARK    5  A    between atoms: N_22  and  C_23
REMARK    6  A    between atoms: C_23  and  C_24
REMARK                            x       y       z     vdW  Elec       q    Type
REMARK                         _______ _______ _______ _____ _____    ______ ____
ROOT
ATOM     13  C   UNL     1      -3.636   0.939  24.257  0.00  0.00    +0.205 A 
ATOM     14  N   UNL     1      -3.560   0.822  23.443  0.00  0.00    -0.056 NA
ATOM     15  O   UNL     1      -3.558   0.009  23.302  0.00  0.00    -0.336 OA
ATOM     16  C   UNL     1      -3.633  -0.376  24.027  0.00  0.00    +0.251 A 
ATOM     17  N   UNL     1      -3.682   0.199  24.618  0.00  0.00    -0.190 NA
ENDROOT
BRANCH  13  10
ATOM      4  C   UNL     1      -3.057   4.311  25.864  0.00  0.00    +0.277 C 
ATOM      5  O   UNL     1      -3.083   5.040  26.249  0.00  0.00    -0.270 OA
ATOM      6  N   UNL     1      -3.742   3.857  25.795  0.00  0.00    -0.158 NA
ATOM      7  C   UNL     1      -3.716   3.126  25.410  0.00  0.00    +0.155 A 
ATOM      8  N   UNL     1      -3.004   2.852  25.095  0.00  0.00    -0.227 NA
ATOM      9  C   UNL     1      -2.977   2.123  24.711  0.00  0.00    +0.103 A 
ATOM     10  C   UNL     1      -3.663   1.668  24.641  0.00  0.00    +0.058 A 
ATOM     11  C   UNL     1      -4.374   1.943  24.956  0.00  0.00    +0.008 A 
ATOM     12  C   UNL     1      -4.400   2.672  25.340  0.00  0.00    +0.036 A 
BRANCH   4   3
ATOM      3  C   UNL     1      -2.345   4.037  25.550  0.00  0.00    +0.229 C 
BRANCH   3   2
ATOM      1  C   UNL     1      -0.998   4.286  25.146  0.00  0.00    +0.175 C 
ATOM      2  O   UNL     1      -1.683   4.528  25.536  0.00  0.00    -0.342 OA
ENDBRANCH   3   2
ENDBRANCH   4   3
ENDBRANCH  13  10
BRANCH  16  18
ATOM     18  C   UNL     1      -3.656  -1.192  24.143  0.00  0.00    +0.138 C 
ATOM     19  C   UNL     1      -4.314  -1.679  24.037  0.00  0.00    +0.027 C 
ATOM     20  C   UNL     1      -4.090  -2.453  24.213  0.00  0.00    +0.019 C 
ATOM     21  C   UNL     1      -3.293  -2.445  24.429  0.00  0.00    +0.073 C 
ATOM     22  N   UNL     1      -3.025  -1.666  24.385  0.00  0.00    -0.266 NA
BRANCH  22  23
ATOM     23  C   UNL     1      -2.261  -1.406  24.554  0.00  0.00    +0.072 C 
BRANCH  23  24
ATOM     24  C   UNL     1      -1.690  -1.943  24.810  0.00  0.00    +0.015 C 
ATOM     25  C   UNL     1      -1.118  -2.481  25.067  0.00  0.00    +0.001 C 
ATOM     26  C   UNL     1      -1.511  -2.128  24.026  0.00  0.00    +0.001 C 
ATOM     27  C   UNL     1      -1.868  -1.759  25.595  0.00  0.00    +0.001 C 
ENDBRANCH  23  24
ENDBRANCH  22  23
ENDBRANCH  16  18
TORSDOF 6
ENDMDL
MODEL 8
REMARK VINA RESULT:      -8.6      1.732      3.062
REMARK  Name = 
REMARK  6 active torsions:
REMARK  status: ('A' for Active; 'I' for Inactive)
REMARK    1  A    between atoms: O_2  and  C_3
REMARK    2  A    between atoms: C_3  and  C_4
REMARK    3  A    between atoms: C_10  and  C_13
REMARK    4  A    between atoms: C_16  and  C_18
REMARK    5  A    between atoms: N_22  and  C_23
REMARK    6  A    between atoms: C_23  and  C_24
REMARK                            x       y       z     vdW  Elec       q    Type
REMARK                         _______ _______ _______ _____ _____    ______ ____
ROOT
ATOM     13  C   UNL     1      -2.546   1.617  24.397  0.00  0.00    +0.205 A 
ATOM     14  N   UNL     1      -2.706   1.914  23.643  0.00  0.00    -0.056 NA
ATOM     15  O   UNL     1      -3.280   2.502  23.717  0.00  0.00    -0.336 OA
ATOM     16  C   UNL     1      -3.475   2.569  24.516  0.00  0.00    +0.251 A 
ATOM     17  N   UNL     1      -3.021   2.022  24.936  0.00  0.00    -0.190 NA
ENDROOT
BRANCH  13  10
ATOM      4  C   UNL     1      -0.613  -1.559  25.080  0.00  0.00    +0.277 C 
ATOM      5  O   UNL     1      -0.073  -2.155  25.261  0.00  0.00    -0.270 OA
ATOM      6  N   UNL     1      -0.384  -0.768  25.123  0.00  0.00    -0.158 NA
ATOM      7  C   UNL     1      -0.925  -0.171  24.941  0.00  0.00    +0.155 A 
ATOM      8  N   UNL     1      -1.694  -0.366  24.716  0.00  0.00    -0.227 NA
ATOM      9  C   UNL     1      -2.235   0.230  24.535  0.00  0.00    +0.103 A 
ATOM     10  C   UNL     1      -2.006   1.022  24.578  0.00  0.00    +0.058 A 
ATOM     11  C   UNL     1      -1.237   1.216  24.803  0.00  0.00    +0.008 A 
ATOM     12  C   UNL     1      -0.696   0.620  24.984  0.00  0.00    +0.036 A 
BRANCH   4   3
ATOM      3  C   UNL     1      -1.383  -1.755  24.855  0.00  0.00    +0.229 C 
BRANCH   3   2
ATOM      1  C   UNL     1      -2.356  -2.741  24.508  0.00  0.00    +0.175 C 
ATOM      2  O   UNL     1      -1.576  -2.537  24.682  0.00  0.00    -0.342 OA
ENDBRANCH   3   2
ENDBRANCH   4   3
ENDBRANCH  13  10
BRANCH  16  18
ATOM     18  C   UNL     1      -4.027   3.090  24.839  0.00  0.00    +0.138 C 
ATOM     19  C   UNL     1      -3.921   3.901  24.948  0.00  0.00    +0.027 C 
ATOM     20  C   UNL     1      -4.609   4.205  25.286  0.00  0.00    +0.019 C 
ATOM     21  C   UNL     1      -5.141   3.582  25.386  0.00  0.00    +0.073 C 
ATOM     22  N   UNL     1      -4.780   2.892  25.110  0.00  0.00    -0.266 NA
BRANCH  22  23
ATOM     23  C   UNL     1      -5.115   2.139  25.106  0.00  0.00    +0.072 C 
BRANCH  23  24
ATOM     24  C   UNL     1      -5.879   2.025  25.395  0.00  0.00    +0.015 C 
ATOM     25  C   UNL     1      -6.644   1.910  25.684  0.00  0.00    +0.001 C 
ATOM     26  C   UNL     1      -5.587   2.022  26.166  0.00  0.00    +0.001 C 
ATOM     27  C   UNL     1      -6.172   2.027  24.623  0.00  0.00    +0.001 C 
ENDBRANCH  23  24
ENDBRANCH  22  23
ENDBRANCH  16  18
TORSDOF 6
ENDMDL
