MODEL 1
REMARK VINA RESULT:     -12.2      0.000      0.000
REMARK  Name = 
REMARK  9 active torsions:
REMARK  status: ('A' for Active; 'I' for Inactive)
REMARK    1  A    between atoms: C_2  and  C_4
REMARK    2  A    between atoms: C_4  and  C_5
REMARK    3  A    between atoms: C_5  and  N_6
REMARK    4  A    between atoms: C_5  and  C_32
REMARK    5  A    between atoms: C_7  and  C_9
REMARK    6  A    between atoms: C_11  and  N_12
REMARK    7  A    between atoms: N_15  and  C_16
REMARK    8  A    between atoms: C_19  and  O_20
REMARK    9  A    between atoms: O_20  and  C_21
REMARK                            x       y       z     vdW  Elec       q    Type
REMARK                         _______ _______ _______ _____ _____    ______ ____
ROOT
ATOM      9  C   UNL     1      -3.972   3.152  24.968  0.00  0.00    +0.033 C 
ATOM     10  C   UNL     1      -4.163   2.389  24.717  0.00  0.00    -0.002 C 
ATOM     11  C   UNL     1      -4.891   2.059  24.918  0.00  0.00    +0.152 C 
ATOM     27  C   UNL     1      -5.429   2.490  25.369  0.00  0.00    +0.206 C 
ATOM     28  O   UNL     1      -6.158   2.159  25.570  0.00  0.00    -0.218 OA
ATOM     29  C   UNL     1      -5.239   3.252  25.621  0.00  0.00    +0.189 C 
ATOM     30  O   UNL     1      -5.777   3.684  26.073  0.00  0.00    -0.220 OA
ATOM     31  C   UNL     1      -4.510   3.583  25.420  0.00  0.00    +0.066 C 
ENDROOT
BRANCH  11  12
ATOM     12  N   UNL     1      -5.082   1.296  24.666  0.00  0.00    -0.181 NA
ATOM     13  C   UNL     1      -4.539   0.682  24.763  0.00  0.00    +0.344 C 
ATOM     14  O   UNL     1      -3.807   0.831  25.111  0.00  0.00    -0.249 OA
ATOM     15  N   UNL     1      -4.730  -0.080  24.511  0.00  0.00    -0.161 NA
BRANCH  15  16
ATOM     16  C   UNL     1      -4.186  -0.694  24.609  0.00  0.00    +0.075 A 
ATOM     17  C   UNL     1      -3.897  -1.097  23.949  0.00  0.00    +0.020 A 
ATOM     18  C   UNL     1      -3.355  -1.710  24.046  0.00  0.00    +0.039 A 
ATOM     19  C   UNL     1      -3.101  -1.921  24.801  0.00  0.00    +0.147 A 
ATOM     25  C   UNL     1      -3.390  -1.518  25.461  0.00  0.00    +0.039 A 
ATOM     26  C   UNL     1      -3.933  -0.904  25.364  0.00  0.00    +0.020 A 
BRANCH  19  20
ATOM     20  O   UNL     1      -2.558  -2.534  24.899  0.00  0.00    -0.404 OA
BRANCH  20  21
ATOM     21  C   UNL     1      -1.781  -2.443  24.635  0.00  0.00    +0.575 C 
ATOM     22  F   UNL     1      -1.005  -2.351  24.372  0.00  0.00    -0.133 F 
ATOM     23  F   UNL     1      -1.600  -2.020  25.320  0.00  0.00    -0.133 F 
ATOM     24  F   UNL     1      -1.964  -2.865  23.951  0.00  0.00    -0.133 F 
ENDBRANCH  20  21
ENDBRANCH  19  20
ENDBRANCH  15  16
ENDBRANCH  11  12
BRANCH   9   7
ATOM      6  N   UNL     1      -2.618   3.459  25.306  0.00  0.00    -0.194 NA
ATOM      7  C   UNL     1      -3.243   3.481  24.767  0.00  0.00    +0.261 C 
ATOM      8  O   UNL     1      -3.139   3.834  24.029  0.00  0.00    -0.269 OA
BRANCH   6   5
ATOM      5  C   UNL     1      -1.889   3.789  25.105  0.00  0.00    +0.175 C 
BRANCH   5  32
ATOM     32  C   UNL     1      -1.734   4.581  25.273  0.00  0.00    +0.281 C 
ATOM     33  N   UNL     1      -1.303   5.039  24.740  0.00  0.00    -0.086 NA
ATOM     34  O   UNL     1      -2.010   4.915  25.976  0.00  0.00    -0.270 OA
ENDBRANCH   5  32
BRANCH   5   4
ATOM      4  C   UNL     1      -1.315   3.325  24.735  0.00  0.00    +0.031 C 
BRANCH   4   2
ATOM      1  C   UNL     1      -0.612   2.085  24.839  0.00  0.00    +0.000 C 
ATOM      2  C   UNL     1      -0.866   2.794  25.178  0.00  0.00    +0.002 C 
ATOM      3  C   UNL     1      -0.670   2.971  25.960  0.00  0.00    +0.000 C 
ENDBRANCH   4   2
ENDBRANCH   5   4
ENDBRANCH   6   5
ENDBRANCH   9   7
TORSDOF 9
ENDMDL
MODEL 2
REMARK VINA RESULT:     -11.4      1.727      3.335
REMARK  Name = 
REMARK  9 active torsions:
REMARK  status: ('A' for Active; 'I' for Inactive)
REMARK    1  A    between atoms: C_2  and  C_4
REMARK    2  A    between atoms: C_4  and  C_5
REMARK    3  A    between atoms: C_5  and  N_6
REMARK    4  A    between atoms: C_5  and  C_32
REMARK    5  A    between atoms: C_7  and  C_9
REMARK    6  A    between atoms: C_11  and  N_12
REMARK    7  A    between atoms: N_15  and  C_16
REMARK    8  A    between atoms: C_19  and  O_20
REMARK    9  A    between atoms: O_20  and  C_21
REMARK                            x       y       z     vdW  Elec       q    Type
REMARK                         _______ _______ _______ _____ _____    ______ ____
ROOT
ATOM      9  C   UNL     1      -1.645   2.699  24.992  0.00  0.00    +0.033 C 
ATOM     10  C   UNL     1      -1.621   1.941  25.317  0.00  0.00    -0.002 C 
ATOM     11  C   UNL     1      -0.933   1.489  25.259  0.00  0.00    +0.152 C 
ATOM     27  C   UNL     1      -0.271   1.795  24.876  0.00  0.00    +0.206 C 
ATOM     28  O   UNL     1       0.417   1.342  24.817  0.00  0.00    -0.218 OA
ATOM     29  C   UNL     1      -0.294   2.552  24.551  0.00  0.00    +0.189 C 
ATOM     30  O   UNL     1       0.369   2.858  24.167  0.00  0.00    -0.220 OA
ATOM     31  C   UNL     1      -0.982   3.005  24.609  0.00  0.00    +0.066 C 
ENDROOT
BRANCH  11  12
ATOM     12  N   UNL     1      -0.909   0.731  25.584  0.00  0.00    -0.181 NA
ATOM     13  C   UNL     1      -1.466   0.167  25.354  0.00  0.00    +0.344 C 
ATOM     14  O   UNL     1      -2.046   0.360  24.802  0.00  0.00    -0.249 OA
ATOM     15  N   UNL     1      -1.442  -0.591  25.680  0.00  0.00    -0.161 NA
BRANCH  15  16
ATOM     16  C   UNL     1      -1.999  -1.156  25.450  0.00  0.00    +0.075 A 
ATOM     17  C   UNL     1      -1.805  -1.717  24.876  0.00  0.00    +0.020 A 
ATOM     18  C   UNL     1      -2.362  -2.281  24.648  0.00  0.00    +0.039 A 
ATOM     19  C   UNL     1      -3.110  -2.285  24.992  0.00  0.00    +0.147 A 
ATOM     25  C   UNL     1      -3.304  -1.725  25.566  0.00  0.00    +0.039 A 
ATOM     26  C   UNL     1      -2.747  -1.160  25.795  0.00  0.00    +0.020 A 
BRANCH  19  20
ATOM     20  O   UNL     1      -3.667  -2.849  24.763  0.00  0.00    -0.404 OA
BRANCH  20  21
ATOM     21  C   UNL     1      -4.052  -2.777  24.036  0.00  0.00    +0.575 C 
ATOM     22  F   UNL     1      -4.436  -2.705  23.311  0.00  0.00    -0.133 F 
ATOM     23  F   UNL     1      -4.529  -2.181  24.349  0.00  0.00    -0.133 F 
ATOM     24  F   UNL     1      -3.574  -3.374  23.725  0.00  0.00    -0.133 F 
ENDBRANCH  20  21
ENDBRANCH  19  20
ENDBRANCH  15  16
ENDBRANCH  11  12
BRANCH   9   7
ATOM      6  N   UNL     1      -3.023   2.902  24.672  0.00  0.00    -0.194 NA
ATOM      7  C   UNL     1      -2.333   3.151  25.051  0.00  0.00    +0.261 C 
ATOM      8  O   UNL     1      -2.332   3.851  25.488  0.00  0.00    -0.269 OA
BRANCH   6   5
ATOM      5  C   UNL     1      -3.711   3.354  24.731  0.00  0.00    +0.175 C 
BRANCH   5  32
ATOM     32  C   UNL     1      -3.926   3.861  24.116  0.00  0.00    +0.281 C 
ATOM     33  N   UNL     1      -4.033   3.563  23.355  0.00  0.00    -0.086 NA
ATOM     34  O   UNL     1      -4.034   4.665  24.264  0.00  0.00    -0.270 OA
ENDBRANCH   5  32
BRANCH   5   4
ATOM      4  C   UNL     1      -4.184   3.298  25.405  0.00  0.00    +0.031 C 
BRANCH   4   2
ATOM      1  C   UNL     1      -5.577   3.162  25.691  0.00  0.00    +0.000 C 
ATOM      2  C   UNL     1      -4.876   2.850  25.387  0.00  0.00    +0.002 C 
ATOM      3  C   UNL     1      -4.868   2.091  25.064  0.00  0.00    +0.000 C 
ENDBRANCH   4   2
ENDBRANCH   5   4
ENDBRANCH   6   5
ENDBRANCH   9   7
TORSDOF 9
ENDMDL
MODEL 3
REMARK VINA RESULT:     -11.0      2.575      5.216
REMARK  Name = 
REMARK  9 active torsions:
REMARK  status: ('A' for Active; 'I' for Inactive)
REMARK    1  A    between atoms: C_2  and  C_4
REMARK    2  A    between atoms: C_4  and  C_5
REMARK    3  A    between atoms: C_5  and  N_6
REMARK    4  A    between atoms: C_5  and  C_32
REMARK    5  A    between atoms: C_7  and  C_9
REMARK    6  A    between atoms: C_11  and  N_12
REMARK    7  A    between atoms: N_15  and  C_16
REMARK    8  A    between atoms: C_19  and  O_20
REMARK    9  A    between atoms: O_20  and  C_21
REMARK                            x       y       z     vdW  Elec       q    Type
REMARK                         _______ _______ _______ _____ _____    ______ ____
ROOT
ATOM      9  C   UNL     1      -0.754   0.722  24.249  0.00  0.00    +0.033 C 
ATOM     10  C   UNL     1      -1.358   1.247  24.049  0.00  0.00    -0.002 C 
ATOM     11  C   UNL     1      -1.213   2.059  24.043  0.00  0.00    +0.152 C 
ATOM     27  C   UNL     1      -0.465   2.346  24.235  0.00  0.00    +0.206 C 
ATOM     28  O   UNL     1      -0.319   3.159  24.229  0.00  0.00    -0.218 OA
ATOM     29  C   UNL     1       0.140   1.821  24.434  0.00  0.00    +0.189 C 
ATOM     30  O   UNL     1       0.889   2.108  24.627  0.00  0.00    -0.220 OA
ATOM     31  C   UNL     1      -0.005   1.008  24.441  0.00  0.00    +0.066 C 
ENDROOT
BRANCH  11  12
ATOM     12  N   UNL     1      -1.818   2.585  23.844  0.00  0.00    -0.181 NA
ATOM     13  C   UNL     1      -2.539   2.552  24.242  0.00  0.00    +0.344 C 
ATOM     14  O   UNL     1      -2.657   1.996  24.838  0.00  0.00    -0.249 OA
ATOM     15  N   UNL     1      -3.143   3.077  24.043  0.00  0.00    -0.161 NA
BRANCH  15  16
ATOM     16  C   UNL     1      -3.866   3.045  24.441  0.00  0.00    +0.075 A 
ATOM     17  C   UNL     1      -4.444   2.506  24.204  0.00  0.00    +0.020 A 
ATOM     18  C   UNL     1      -5.166   2.474  24.602  0.00  0.00    +0.039 A 
ATOM     19  C   UNL     1      -5.310   2.980  25.236  0.00  0.00    +0.147 A 
ATOM     25  C   UNL     1      -4.732   3.518  25.474  0.00  0.00    +0.039 A 
ATOM     26  C   UNL     1      -4.010   3.551  25.076  0.00  0.00    +0.020 A 
BRANCH  19  20
ATOM     20  O   UNL     1      -6.031   2.948  25.635  0.00  0.00    -0.404 OA
BRANCH  20  21
ATOM     21  C   UNL     1      -6.218   2.289  26.096  0.00  0.00    +0.575 C 
ATOM     22  F   UNL     1      -6.405   1.632  26.557  0.00  0.00    -0.133 F 
ATOM     23  F   UNL     1      -6.595   1.943  25.449  0.00  0.00    -0.133 F 
ATOM     24  F   UNL     1      -5.841   2.636  26.743  0.00  0.00    -0.133 F 
ENDBRANCH  20  21
ENDBRANCH  19  20
ENDBRANCH  15  16
ENDBRANCH  11  12
BRANCH   9   7
ATOM      6  N   UNL     1      -1.392  -0.416  24.832  0.00  0.00    -0.194 NA
ATOM      7  C   UNL     1      -0.899  -0.090  24.255  0.00  0.00    +0.261 C 
ATOM      8  O   UNL     1      -0.553  -0.576  23.685  0.00  0.00    -0.269 OA
BRANCH   6   5
ATOM      5  C   UNL     1      -1.537  -1.228  24.838  0.00  0.00    +0.175 C 
BRANCH   5  32
ATOM     32  C   UNL     1      -1.018  -1.738  25.227  0.00  0.00    +0.281 C 
ATOM     33  N   UNL     1      -0.813  -2.458  24.883  0.00  0.00    -0.086 NA
ATOM     34  O   UNL     1      -0.703  -1.525  25.960  0.00  0.00    -0.270 OA
ENDBRANCH   5  32
BRANCH   5   4
ATOM      4  C   UNL     1      -2.203  -1.530  24.455  0.00  0.00    +0.031 C 
BRANCH   4   2
ATOM      1  C   UNL     1      -3.620  -1.380  24.339  0.00  0.00    +0.000 C 
ATOM      2  C   UNL     1      -2.946  -1.466  24.809  0.00  0.00    +0.002 C 
ATOM      3  C   UNL     1      -3.016  -1.487  25.631  0.00  0.00    +0.000 C 
ENDBRANCH   4   2
ENDBRANCH   5   4
ENDBRANCH   6   5
ENDBRANCH   9   7
TORSDOF 9
ENDMDL
