MODEL 1
REMARK VINA RESULT:      -8.8      0.000      0.000
REMARK  Name = 
REMARK  3 active torsions:
REMARK  status: ('A' for Active; 'I' for Inactive)
REMARK    1  A    between atoms: O_2  and  C_3
REMARK    2  A    between atoms: C_7  and  C_8
REMARK    3  A    between atoms: C_8  and  N_9
REMARK                            x       y       z     vdW  Elec       q    Type
REMARK                         _______ _______ _______ _____ _____    ______ ____
ROOT
ATOM      9  N   UNL     1      -0.394   2.073  25.448  0.00  0.00    -0.265 NA
ATOM     10  C   UNL     1       0.054   2.071  24.756  0.00  0.00    +0.094 C 
ATOM     11  C   UNL     1       0.106   1.386  24.300  0.00  0.00    +0.112 C 
ATOM     12  N   UNL     1      -0.290   0.702  24.537  0.00  0.00    -0.261 N 
ATOM     13  C   UNL     1      -0.738   0.704  25.229  0.00  0.00    +0.113 C 
ATOM     14  C   UNL     1      -1.065  -0.047  25.323  0.00  0.00    +0.116 C 
ATOM     15  N   UNL     1      -0.820  -0.514  24.689  0.00  0.00    -0.261 N 
ATOM     16  C   UNL     1      -1.018  -1.304  24.562  0.00  0.00    +0.117 C 
ATOM     17  C   UNL     1      -0.341  -0.050  24.203  0.00  0.00    +0.307 C 
ATOM     18  O   UNL     1       0.025  -0.297  23.505  0.00  0.00    -0.252 OA
ATOM     19  C   UNL     1      -0.790   1.390  25.685  0.00  0.00    +0.094 C 
ENDROOT
BRANCH   9   8
ATOM      8  C   UNL     1      -0.446   2.759  25.904  0.00  0.00    +0.119 C 
BRANCH   8   7
ATOM      3  C   UNL     1      -2.299   3.903  25.759  0.00  0.00    +0.225 A 
ATOM      4  C   UNL     1      -2.057   4.534  25.286  0.00  0.00    +0.058 A 
ATOM      5  C   UNL     1      -1.278   4.573  25.020  0.00  0.00    +0.006 A 
ATOM      6  C   UNL     1      -0.740   3.982  25.225  0.00  0.00    +0.016 A 
ATOM      7  C   UNL     1      -0.983   3.351  25.698  0.00  0.00    +0.078 A 
ATOM     20  N   UNL     1      -1.763   3.311  25.965  0.00  0.00    -0.215 NA
BRANCH   3   2
ATOM      1  C   UNL     1      -3.693   3.739  25.489  0.00  0.00    +0.254 C 
ATOM      2  O   UNL     1      -3.080   3.863  26.026  0.00  0.00    -0.456 OA
ENDBRANCH   3   2
ENDBRANCH   8   7
ENDBRANCH   9   8
TORSDOF 3
ENDMDL
MODEL 2
REMARK VINA RESULT:      -8.7      2.579      5.018
REMARK  Name = 
REMARK  3 active torsions:
REMARK  status: ('A' for Active; 'I' for Inactive)
REMARK    1  A    between atoms: O_2  and  C_3
REMARK    2  A    between atoms: C_7  and  C_8
REMARK    3  A    between atoms: C_8  and  N_9
REMARK                            x       y       z     vdW  Elec       q    Type
REMARK                         _______ _______ _______ _____ _____    ______ ____
ROOT
ATOM      9  N   UNL     1      -3.818   0.887  24.139  0.00  0.00    -0.265 NA
ATOM     10  C   UNL     1      -3.286   1.465  23.885  0.00  0.00    +0.094 C 
ATOM     11  C   UNL     1      -3.411   2.255  24.084  0.00  0.00    +0.112 C 
ATOM     12  N   UNL     1      -4.068   2.469  24.535  0.00  0.00    -0.261 N 
ATOM     13  C   UNL     1      -4.599   1.891  24.789  0.00  0.00    +0.113 C 
ATOM     14  C   UNL     1      -5.193   2.264  25.224  0.00  0.00    +0.116 C 
ATOM     15  N   UNL     1      -5.028   3.071  25.240  0.00  0.00    -0.261 N 
ATOM     16  C   UNL     1      -5.480   3.651  25.615  0.00  0.00    +0.117 C 
ATOM     17  C   UNL     1      -4.333   3.198  24.814  0.00  0.00    +0.307 C 
ATOM     18  O   UNL     1      -3.967   3.927  24.689  0.00  0.00    -0.252 OA
ATOM     19  C   UNL     1      -4.474   1.099  24.590  0.00  0.00    +0.094 C 
ENDROOT
BRANCH   9   8
ATOM      8  C   UNL     1      -3.693   0.095  23.940  0.00  0.00    +0.119 C 
BRANCH   8   7
ATOM      3  C   UNL     1      -2.203  -0.882  25.201  0.00  0.00    +0.225 A 
ATOM      4  C   UNL     1      -2.669  -1.444  25.586  0.00  0.00    +0.058 A 
ATOM      5  C   UNL     1      -3.476  -1.492  25.423  0.00  0.00    +0.006 A 
ATOM      6  C   UNL     1      -3.818  -0.979  24.874  0.00  0.00    +0.016 A 
ATOM      7  C   UNL     1      -3.352  -0.418  24.489  0.00  0.00    +0.078 A 
ATOM     20  N   UNL     1      -2.544  -0.369  24.652  0.00  0.00    -0.215 NA
BRANCH   3   2
ATOM      1  C   UNL     1      -0.874  -1.376  25.027  0.00  0.00    +0.254 C 
ATOM      2  O   UNL     1      -1.395  -0.833  25.365  0.00  0.00    -0.456 OA
ENDBRANCH   3   2
ENDBRANCH   8   7
ENDBRANCH   9   8
TORSDOF 3
ENDMDL
MODEL 3
REMARK VINA RESULT:      -8.7      2.512      5.201
REMARK  Name = 
REMARK  3 active torsions:
REMARK  status: ('A' for Active; 'I' for Inactive)
REMARK    1  A    between atoms: O_2  and  C_3
REMARK    2  A    between atoms: C_7  and  C_8
REMARK    3  A    between atoms: C_8  and  N_9
REMARK                            x       y       z     vdW  Elec       q    Type
REMARK                         _______ _______ _______ _____ _____    ______ ____
ROOT
ATOM      9  N   UNL     1      -3.983   0.810  24.298  0.00  0.00    -0.265 NA
ATOM     10  C   UNL     1      -4.727   0.793  24.654  0.00  0.00    +0.094 C 
ATOM     11  C   UNL     1      -4.993   1.444  25.084  0.00  0.00    +0.112 C 
ATOM     12  N   UNL     1      -4.516   2.114  25.158  0.00  0.00    -0.261 N 
ATOM     13  C   UNL     1      -3.772   2.131  24.802  0.00  0.00    +0.113 C 
ATOM     14  C   UNL     1      -3.427   2.861  24.968  0.00  0.00    +0.116 C 
ATOM     15  N   UNL     1      -3.956   3.295  25.427  0.00  0.00    -0.261 N 
ATOM     16  C   UNL     1      -3.835   4.057  25.718  0.00  0.00    +0.117 C 
ATOM     17  C   UNL     1      -4.629   2.833  25.545  0.00  0.00    +0.307 C 
ATOM     18  O   UNL     1      -5.299   3.052  25.974  0.00  0.00    -0.252 OA
ATOM     19  C   UNL     1      -3.505   1.479  24.371  0.00  0.00    +0.094 C 
ENDROOT
BRANCH   9   8
ATOM      8  C   UNL     1      -3.716   0.158  23.867  0.00  0.00    +0.119 C 
BRANCH   8   7
ATOM      3  C   UNL     1      -2.474  -1.243  24.988  0.00  0.00    +0.225 A 
ATOM      4  C   UNL     1      -2.984  -1.888  25.051  0.00  0.00    +0.058 A 
ATOM      5  C   UNL     1      -3.738  -1.851  24.720  0.00  0.00    +0.006 A 
ATOM      6  C   UNL     1      -3.983  -1.169  24.325  0.00  0.00    +0.016 A 
ATOM      7  C   UNL     1      -3.473  -0.524  24.262  0.00  0.00    +0.078 A 
ATOM     20  N   UNL     1      -2.717  -0.561  24.593  0.00  0.00    -0.215 NA
BRANCH   3   2
ATOM      1  C   UNL     1      -1.109  -1.659  24.914  0.00  0.00    +0.254 C 
ATOM      2  O   UNL     1      -1.718  -1.280  25.319  0.00  0.00    -0.456 OA
ENDBRANCH   3   2
ENDBRANCH   8   7
ENDBRANCH   9   8
TORSDOF 3
ENDMDL
MODEL 4
REMARK VINA RESULT:      -8.5      1.713      4.051
REMARK  Name = 
REMARK  3 active torsions:
REMARK  status: ('A' for Active; 'I' for Inactive)
REMARK    1  A    between atoms: O_2  and  C_3
REMARK    2  A    between atoms: C_7  and  C_8
REMARK    3  A    between atoms: C_8  and  N_9
REMARK                            x       y       z     vdW  Elec       q    Type
REMARK                         _______ _______ _______ _____ _____    ______ ____
ROOT
ATOM      9  N   UNL     1      -2.786   3.354  24.922  0.00  0.00    -0.265 NA
ATOM     10  C   UNL     1      -3.065   3.780  25.571  0.00  0.00    +0.094 C 
ATOM     11  C   UNL     1      -3.836   3.662  25.840  0.00  0.00    +0.112 C 
ATOM     12  N   UNL     1      -4.328   3.118  25.461  0.00  0.00    -0.261 N 
ATOM     13  C   UNL     1      -4.048   2.693  24.812  0.00  0.00    +0.113 C 
ATOM     14  C   UNL     1      -4.655   2.199  24.551  0.00  0.00    +0.116 C 
ATOM     15  N   UNL     1      -5.309   2.318  25.039  0.00  0.00    -0.261 N 
ATOM     16  C   UNL     1      -6.037   1.937  24.976  0.00  0.00    +0.117 C 
ATOM     17  C   UNL     1      -5.106   2.887  25.601  0.00  0.00    +0.307 C 
ATOM     18  O   UNL     1      -5.597   3.174  26.199  0.00  0.00    -0.252 OA
ATOM     19  C   UNL     1      -3.277   2.811  24.542  0.00  0.00    +0.094 C 
ENDROOT
BRANCH   9   8
ATOM      8  C   UNL     1      -2.015   3.472  24.652  0.00  0.00    +0.119 C 
BRANCH   8   7
ATOM      3  C   UNL     1      -0.555   1.869  24.902  0.00  0.00    +0.225 A 
ATOM      4  C   UNL     1      -0.161   2.121  25.581  0.00  0.00    +0.058 A 
ATOM      5  C   UNL     1      -0.384   2.824  25.950  0.00  0.00    +0.006 A 
ATOM      6  C   UNL     1      -1.002   3.275  25.641  0.00  0.00    +0.016 A 
ATOM      7  C   UNL     1      -1.397   3.022  24.962  0.00  0.00    +0.078 A 
ATOM     20  N   UNL     1      -1.173   2.318  24.592  0.00  0.00    -0.215 NA
BRANCH   3   2
ATOM      1  C   UNL     1      -0.543   0.440  24.864  0.00  0.00    +0.254 C 
ATOM      2  O   UNL     1      -0.332   1.165  24.532  0.00  0.00    -0.456 OA
ENDBRANCH   3   2
ENDBRANCH   8   7
ENDBRANCH   9   8
TORSDOF 3
ENDMDL
MODEL 5
REMARK VINA RESULT:      -8.5      2.571      4.967
REMARK  Name = 
REMARK  3 active torsions:
REMARK  status: ('A' for Active; 'I' for Inactive)
REMARK    1  A    between atoms: O_2  and  C_3
REMARK    2  A    between atoms: C_7  and  C_8
REMARK    3  A    between atoms: C_8  and  N_9
REMARK                            x       y       z     vdW  Elec       q    Type
REMARK                         _______ _______ _______ _____ _____    ______ ____
ROOT
ATOM      9  N   UNL     1      -3.850   0.507  25.053  0.00  0.00    -0.265 NA
ATOM     10  C   UNL     1      -4.388   0.973  24.636  0.00  0.00    +0.094 C 
ATOM     11  C   UNL     1      -4.156   1.708  24.343  0.00  0.00    +0.112 C 
ATOM     12  N   UNL     1      -3.386   1.979  24.468  0.00  0.00    -0.261 N 
ATOM     13  C   UNL     1      -2.849   1.512  24.885  0.00  0.00    +0.113 C 
ATOM     14  C   UNL     1      -2.133   1.920  24.921  0.00  0.00    +0.116 C 
ATOM     15  N   UNL     1      -2.228   2.638  24.527  0.00  0.00    -0.261 N 
ATOM     16  C   UNL     1      -1.649   3.218  24.430  0.00  0.00    +0.117 C 
ATOM     17  C   UNL     1      -3.002   2.673  24.247  0.00  0.00    +0.307 C 
ATOM     18  O   UNL     1      -3.335   3.296  23.820  0.00  0.00    -0.252 OA
ATOM     19  C   UNL     1      -3.081   0.776  25.178  0.00  0.00    +0.094 C 
ENDROOT
BRANCH   9   8
ATOM      8  C   UNL     1      -4.082  -0.229  25.346  0.00  0.00    +0.119 C 
BRANCH   8   7
ATOM      3  C   UNL     1      -3.098  -2.063  24.689  0.00  0.00    +0.225 A 
ATOM      4  C   UNL     1      -3.583  -2.284  24.060  0.00  0.00    +0.058 A 
ATOM      5  C   UNL     1      -4.235  -1.820  23.859  0.00  0.00    +0.006 A 
ATOM      6  C   UNL     1      -4.402  -1.135  24.288  0.00  0.00    +0.016 A 
ATOM      7  C   UNL     1      -3.916  -0.914  24.917  0.00  0.00    +0.078 A 
ATOM     20  N   UNL     1      -3.264  -1.378  25.118  0.00  0.00    -0.215 NA
BRANCH   3   2
ATOM      1  C   UNL     1      -1.772  -2.520  24.413  0.00  0.00    +0.254 C 
ATOM      2  O   UNL     1      -2.445  -2.527  24.890  0.00  0.00    -0.456 OA
ENDBRANCH   3   2
ENDBRANCH   8   7
ENDBRANCH   9   8
TORSDOF 3
ENDMDL
MODEL 6
REMARK VINA RESULT:      -8.5      2.172      2.975
REMARK  Name = 
REMARK  3 active torsions:
REMARK  status: ('A' for Active; 'I' for Inactive)
REMARK    1  A    between atoms: O_2  and  C_3
REMARK    2  A    between atoms: C_7  and  C_8
REMARK    3  A    between atoms: C_8  and  N_9
REMARK                            x       y       z     vdW  Elec       q    Type
REMARK                         _______ _______ _______ _____ _____    ______ ____
ROOT
ATOM      9  N   UNL     1      -3.309   0.908  24.003  0.00  0.00    -0.265 NA
ATOM     10  C   UNL     1      -2.521   0.835  24.236  0.00  0.00    +0.094 C 
ATOM     11  C   UNL     1      -2.240   0.112  24.515  0.00  0.00    +0.112 C 
ATOM     12  N   UNL     1      -2.745  -0.539  24.560  0.00  0.00    -0.261 N 
ATOM     13  C   UNL     1      -3.533  -0.465  24.326  0.00  0.00    +0.113 C 
ATOM     14  C   UNL     1      -3.899  -1.197  24.431  0.00  0.00    +0.116 C 
ATOM     15  N   UNL     1      -3.338  -1.722  24.730  0.00  0.00    -0.261 N 
ATOM     16  C   UNL     1      -3.467  -2.515  24.916  0.00  0.00    +0.117 C 
ATOM     17  C   UNL     1      -2.625  -1.315  24.809  0.00  0.00    +0.307 C 
ATOM     18  O   UNL     1      -1.916  -1.630  25.089  0.00  0.00    -0.252 OA
ATOM     19  C   UNL     1      -3.815   0.259  24.047  0.00  0.00    +0.094 C 
ENDROOT
BRANCH   9   8
ATOM      8  C   UNL     1      -3.592   1.632  23.724  0.00  0.00    +0.119 C 
BRANCH   8   7
ATOM      3  C   UNL     1      -3.578   3.355  25.063  0.00  0.00    +0.225 A 
ATOM      4  C   UNL     1      -4.361   3.357  25.323  0.00  0.00    +0.058 A 
ATOM      5  C   UNL     1      -4.887   2.784  25.051  0.00  0.00    +0.006 A 
ATOM      6  C   UNL     1      -4.631   2.208  24.517  0.00  0.00    +0.016 A 
ATOM      7  C   UNL     1      -3.849   2.207  24.257  0.00  0.00    +0.078 A 
ATOM     20  N   UNL     1      -3.321   2.781  24.530  0.00  0.00    -0.215 NA
BRANCH   3   2
ATOM      1  C   UNL     1      -2.974   4.065  26.146  0.00  0.00    +0.254 C 
ATOM      2  O   UNL     1      -3.051   3.929  25.336  0.00  0.00    -0.456 OA
ENDBRANCH   3   2
ENDBRANCH   8   7
ENDBRANCH   9   8
TORSDOF 3
ENDMDL
