MODEL 1
REMARK VINA RESULT:     -13.2      0.000      0.000
REMARK  Name = 
REMARK  5 active torsions:
REMARK  status: ('A' for Active; 'I' for Inactive)
REMARK    1  A    between atoms: O_2  and  C_3
REMARK    2  A    between atoms: C_6  and  S_9
REMARK    3  A    between atoms: S_9  and  N_12
REMARK    4  A    between atoms: N_12  and  C_13
REMARK    5  A    between atoms: C_23  and  C_25
REMARK                            x       y       z     vdW  Elec       q    Type
REMARK                         _______ _______ _______ _____ _____    ______ ____
ROOT
ATOM     13  C   UNL     1      -3.638   1.612  24.839  0.00  0.00    +0.147 A 
ATOM     14  C   UNL     1      -2.823   1.496  24.777  0.00  0.00    +0.024 A 
ATOM     15  C   UNL     1      -2.304   2.114  24.948  0.00  0.00    +0.014 A 
ATOM     16  C   UNL     1      -2.600   2.848  25.181  0.00  0.00    +0.041 A 
ATOM     17  C   UNL     1      -2.316   3.687  25.427  0.00  0.00    +0.058 C 
ATOM     18  C   UNL     1      -1.731   4.064  25.523  0.00  0.00    +0.011 C 
ATOM     19  C   UNL     1      -2.536   4.175  25.582  0.00  0.00    +0.043 C 
ATOM     20  C   UNL     1      -3.460   4.501  25.711  0.00  0.00    +0.096 C 
ATOM     21  N   UNL     1      -3.882   3.807  25.514  0.00  0.00    -0.270 N 
ATOM     22  C   UNL     1      -3.202   4.017  25.556  0.00  0.00    +0.100 C 
ATOM     23  C   UNL     1      -4.779   3.799  25.540  0.00  0.00    +0.329 C 
ATOM     24  O   UNL     1      -5.539   4.167  25.676  0.00  0.00    -0.263 OA
ATOM     28  C   UNL     1      -2.843   3.302  25.327  0.00  0.00    +0.110 C 
ATOM     29  N   UNL     1      -3.415   2.964  25.243  0.00  0.00    -0.298 N 
ATOM     30  C   UNL     1      -3.934   2.346  25.071  0.00  0.00    +0.277 A 
ATOM     31  O   UNL     1      -4.816   2.330  25.095  0.00  0.00    -0.266 OA
ENDROOT
BRANCH  23  25
ATOM     25  C   UNL     1      -4.914   2.974  25.294  0.00  0.00    +0.440 C 
ATOM     26  O   UNL     1      -4.896   2.313  24.585  0.00  0.00    -0.235 OA
ATOM     27  O   UNL     1      -5.151   2.846  26.135  0.00  0.00    -0.235 OA
ENDBRANCH  23  25
BRANCH  13  12
ATOM     12  N   UNL     1      -4.266   1.005  24.674  0.00  0.00    -0.092 NA
BRANCH  12   9
ATOM      9  S   UNL     1      -4.033   0.190  24.546  0.00  0.00    +0.093 S 
ATOM     10  O   UNL     1      -3.710   0.320  23.760  0.00  0.00    -0.148 OA
ATOM     11  O   UNL     1      -4.359   0.044  25.346  0.00  0.00    -0.148 OA
BRANCH   9   6
ATOM      3  C   UNL     1      -3.757  -2.297  24.527  0.00  0.00    +0.139 A 
ATOM      4  C   UNL     1      -3.510  -1.911  25.213  0.00  0.00    +0.038 A 
ATOM      5  C   UNL     1      -3.579  -1.091  25.271  0.00  0.00    +0.023 A 
ATOM      6  C   UNL     1      -3.894  -0.658  24.644  0.00  0.00    +0.127 A 
ATOM      7  C   UNL     1      -4.141  -1.044  23.958  0.00  0.00    +0.023 A 
ATOM      8  C   UNL     1      -4.072  -1.864  23.899  0.00  0.00    +0.038 A 
BRANCH   3   2
ATOM      1  C   UNL     1      -2.978  -3.454  24.217  0.00  0.00    +0.252 C 
ATOM      2  O   UNL     1      -3.688  -3.117  24.468  0.00  0.00    -0.471 OA
ENDBRANCH   3   2
ENDBRANCH   9   6
ENDBRANCH  12   9
ENDBRANCH  13  12
TORSDOF 5
ENDMDL
MODEL 2
REMARK VINA RESULT:     -12.8      2.039      5.411
REMARK  Name = 
REMARK  5 active torsions:
REMARK  status: ('A' for Active; 'I' for Inactive)
REMARK    1  A    between atoms: O_2  and  C_3
REMARK    2  A    between atoms: C_6  and  S_9
REMARK    3  A    between atoms: S_9  and  N_12
REMARK    4  A    between atoms: N_12  and  C_13
REMARK    5  A    between atoms: C_23  and  C_25
REMARK                            x       y       z     vdW  Elec       q    Type
REMARK                         _______ _______ _______ _____ _____    ______ ____
ROOT
ATOM     13  C   UNL     1      -2.394   0.397  24.735  0.00  0.00    +0.147 A 
ATOM     14  C   UNL     1      -3.143   0.645  24.493  0.00  0.00    +0.024 A 
ATOM     15  C   UNL     1      -3.712   0.088  24.277  0.00  0.00    +0.014 A 
ATOM     16  C   UNL     1      -3.533  -0.717  24.304  0.00  0.00    +0.041 A 
ATOM     17  C   UNL     1      -3.912  -1.538  24.142  0.00  0.00    +0.058 C 
ATOM     18  C   UNL     1      -4.510  -1.835  23.928  0.00  0.00    +0.011 C 
ATOM     19  C   UNL     1      -3.770  -2.077  24.167  0.00  0.00    +0.043 C 
ATOM     20  C   UNL     1      -2.946  -2.559  24.424  0.00  0.00    +0.096 C 
ATOM     21  N   UNL     1      -2.458  -1.909  24.616  0.00  0.00    -0.270 N 
ATOM     22  C   UNL     1      -3.123  -2.018  24.387  0.00  0.00    +0.100 C 
ATOM     23  C   UNL     1      -1.615  -2.041  24.895  0.00  0.00    +0.329 C 
ATOM     24  O   UNL     1      -0.951  -2.540  25.098  0.00  0.00    -0.263 OA
ATOM     28  C   UNL     1      -3.366  -1.223  24.339  0.00  0.00    +0.110 C 
ATOM     29  N   UNL     1      -2.784  -0.964  24.546  0.00  0.00    -0.298 N 
ATOM     30  C   UNL     1      -2.214  -0.408  24.761  0.00  0.00    +0.277 A 
ATOM     31  O   UNL     1      -1.384  -0.529  25.036  0.00  0.00    -0.266 OA
ENDROOT
BRANCH  23  25
ATOM     25  C   UNL     1      -1.379  -1.210  25.009  0.00  0.00    +0.440 C 
ATOM     26  O   UNL     1      -1.451  -0.398  25.535  0.00  0.00    -0.235 OA
ATOM     27  O   UNL     1      -0.893  -1.333  24.282  0.00  0.00    -0.235 OA
ENDBRANCH  23  25
BRANCH  13  12
ATOM     12  N   UNL     1      -1.724   0.926  24.983  0.00  0.00    -0.092 NA
BRANCH  12   9
ATOM      9  S   UNL     1      -1.811   1.774  24.899  0.00  0.00    +0.093 S 
ATOM     10  O   UNL     1      -1.895   1.764  24.043  0.00  0.00    -0.148 OA
ATOM     11  O   UNL     1      -1.726   1.799  25.771  0.00  0.00    -0.148 OA
BRANCH   9   6
ATOM      3  C   UNL     1      -1.685   4.250  25.245  0.00  0.00    +0.139 A 
ATOM      4  C   UNL     1      -2.387   3.886  25.481  0.00  0.00    +0.038 A 
ATOM      5  C   UNL     1      -2.481   3.072  25.389  0.00  0.00    +0.023 A 
ATOM      6  C   UNL     1      -1.872   2.621  25.061  0.00  0.00    +0.127 A 
ATOM      7  C   UNL     1      -1.170   2.985  24.825  0.00  0.00    +0.023 A 
ATOM      8  C   UNL     1      -1.076   3.799  24.917  0.00  0.00    +0.038 A 
BRANCH   3   2
ATOM      1  C   UNL     1      -1.041   5.470  24.876  0.00  0.00    +0.252 C 
ATOM      2  O   UNL     1      -1.591   5.064  25.337  0.00  0.00    -0.471 OA
ENDBRANCH   3   2
ENDBRANCH   9   6
ENDBRANCH  12   9
ENDBRANCH  13  12
TORSDOF 5
ENDMDL
MODEL 3
REMARK VINA RESULT:     -12.7      1.651      5.147
REMARK  Name = 
REMARK  5 active torsions:
REMARK  status: ('A' for Active; 'I' for Inactive)
REMARK    1  A    between atoms: O_2  and  C_3
REMARK    2  A    between atoms: C_6  and  S_9
REMARK    3  A    between atoms: S_9  and  N_12
REMARK    4  A    between atoms: N_12  and  C_13
REMARK    5  A    between atoms: C_23  and  C_25
REMARK                            x       y       z     vdW  Elec       q    Type
REMARK                         _______ _______ _______ _____ _____    ______ ____
ROOT
ATOM     13  C   UNL     1      -3.227   0.121  24.490  0.00  0.00    +0.147 A 
ATOM     14  C   UNL     1      -3.994  -0.125  24.313  0.00  0.00    +0.024 A 
ATOM     15  C   UNL     1      -4.166  -0.930  24.255  0.00  0.00    +0.014 A 
ATOM     16  C   UNL     1      -3.571  -1.488  24.374  0.00  0.00    +0.041 A 
ATOM     17  C   UNL     1      -3.437  -2.397  24.383  0.00  0.00    +0.058 C 
ATOM     18  C   UNL     1      -3.777  -3.005  24.292  0.00  0.00    +0.011 C 
ATOM     19  C   UNL     1      -3.021  -2.758  24.467  0.00  0.00    +0.043 C 
ATOM     20  C   UNL     1      -2.062  -2.661  24.684  0.00  0.00    +0.096 C 
ATOM     21  N   UNL     1      -2.009  -1.828  24.716  0.00  0.00    -0.270 N 
ATOM     22  C   UNL     1      -2.509  -2.320  24.592  0.00  0.00    +0.100 C 
ATOM     23  C   UNL     1      -1.226  -1.430  24.901  0.00  0.00    +0.329 C 
ATOM     24  O   UNL     1      -0.391  -1.442  25.087  0.00  0.00    -0.263 OA
ATOM     28  C   UNL     1      -3.151  -1.807  24.461  0.00  0.00    +0.110 C 
ATOM     29  N   UNL     1      -2.804  -1.242  24.552  0.00  0.00    -0.298 N 
ATOM     30  C   UNL     1      -2.632  -0.437  24.610  0.00  0.00    +0.277 A 
ATOM     31  O   UNL     1      -1.866  -0.038  24.791  0.00  0.00    -0.266 OA
ENDROOT
BRANCH  23  25
ATOM     25  C   UNL     1      -1.485  -0.598  24.863  0.00  0.00    +0.440 C 
ATOM     26  O   UNL     1      -1.762   0.154  24.317  0.00  0.00    -0.235 OA
ATOM     27  O   UNL     1      -1.408  -0.618  25.743  0.00  0.00    -0.235 OA
ENDBRANCH  23  25
BRANCH  13  12
ATOM     12  N   UNL     1      -2.954   0.963  24.572  0.00  0.00    -0.092 NA
BRANCH  12   9
ATOM      9  S   UNL     1      -3.538   1.591  24.571  0.00  0.00    +0.093 S 
ATOM     10  O   UNL     1      -3.700   1.551  23.728  0.00  0.00    -0.148 OA
ATOM     11  O   UNL     1      -3.381   1.643  25.432  0.00  0.00    -0.148 OA
BRANCH   9   6
ATOM      3  C   UNL     1      -4.862   3.638  25.136  0.00  0.00    +0.139 A 
ATOM      4  C   UNL     1      -5.191   2.919  25.370  0.00  0.00    +0.038 A 
ATOM      5  C   UNL     1      -4.795   2.213  25.208  0.00  0.00    +0.023 A 
ATOM      6  C   UNL     1      -4.071   2.228  24.813  0.00  0.00    +0.127 A 
ATOM      7  C   UNL     1      -3.743   2.947  24.579  0.00  0.00    +0.023 A 
ATOM      8  C   UNL     1      -4.138   3.653  24.740  0.00  0.00    +0.038 A 
BRANCH   3   2
ATOM      1  C   UNL     1      -5.985   4.329  25.686  0.00  0.00    +0.252 C 
ATOM      2  O   UNL     1      -5.258   4.344  25.297  0.00  0.00    -0.471 OA
ENDBRANCH   3   2
ENDBRANCH   9   6
ENDBRANCH  12   9
ENDBRANCH  13  12
TORSDOF 5
ENDMDL
MODEL 4
REMARK VINA RESULT:     -11.9      1.633      2.228
REMARK  Name = 
REMARK  5 active torsions:
REMARK  status: ('A' for Active; 'I' for Inactive)
REMARK    1  A    between atoms: O_2  and  C_3
REMARK    2  A    between atoms: C_6  and  S_9
REMARK    3  A    between atoms: S_9  and  N_12
REMARK    4  A    between atoms: N_12  and  C_13
REMARK    5  A    between atoms: C_23  and  C_25
REMARK                            x       y       z     vdW  Elec       q    Type
REMARK                         _______ _______ _______ _____ _____    ______ ____
ROOT
ATOM     13  C   UNL     1      -2.702   1.884  24.539  0.00  0.00    +0.147 A 
ATOM     14  C   UNL     1      -3.395   1.997  24.974  0.00  0.00    +0.024 A 
ATOM     15  C   UNL     1      -3.507   2.695  25.398  0.00  0.00    +0.014 A 
ATOM     16  C   UNL     1      -2.926   3.281  25.388  0.00  0.00    +0.041 A 
ATOM     17  C   UNL     1      -2.750   4.117  25.727  0.00  0.00    +0.058 C 
ATOM     18  C   UNL     1      -3.027   4.614  26.137  0.00  0.00    +0.011 C 
ATOM     19  C   UNL     1      -2.345   4.500  25.707  0.00  0.00    +0.043 C 
ATOM     20  C   UNL     1      -1.468   4.548  25.255  0.00  0.00    +0.096 C 
ATOM     21  N   UNL     1      -1.468   3.807  24.869  0.00  0.00    -0.270 N 
ATOM     22  C   UNL     1      -1.899   4.179  25.297  0.00  0.00    +0.100 C 
ATOM     23  C   UNL     1      -0.769   3.561  24.361  0.00  0.00    +0.329 C 
ATOM     24  O   UNL     1      -0.000   3.690  24.011  0.00  0.00    -0.263 OA
ATOM     28  C   UNL     1      -2.521   3.627  25.348  0.00  0.00    +0.110 C 
ATOM     29  N   UNL     1      -2.234   3.168  24.953  0.00  0.00    -0.298 N 
ATOM     30  C   UNL     1      -2.122   2.470  24.529  0.00  0.00    +0.277 A 
ATOM     31  O   UNL     1      -1.440   2.220  24.027  0.00  0.00    -0.266 OA
ENDROOT
BRANCH  23  25
ATOM     25  C   UNL     1      -1.057   2.777  24.110  0.00  0.00    +0.440 C 
ATOM     26  O   UNL     1      -1.669   2.261  23.563  0.00  0.00    -0.235 OA
ATOM     27  O   UNL     1      -0.445   2.464  24.665  0.00  0.00    -0.235 OA
ENDBRANCH  23  25
BRANCH  13  12
ATOM     12  N   UNL     1      -2.501   1.166  24.055  0.00  0.00    -0.092 NA
BRANCH  12   9
ATOM      9  S   UNL     1      -2.955   0.448  24.167  0.00  0.00    +0.093 S 
ATOM     10  O   UNL     1      -3.684   0.759  23.834  0.00  0.00    -0.148 OA
ATOM     11  O   UNL     1      -2.218   0.118  24.509  0.00  0.00    -0.148 OA
BRANCH   9   6
ATOM      3  C   UNL     1      -3.812  -1.883  24.475  0.00  0.00    +0.139 A 
ATOM      4  C   UNL     1      -3.352  -1.582  25.091  0.00  0.00    +0.038 A 
ATOM      5  C   UNL     1      -3.045  -0.819  25.040  0.00  0.00    +0.023 A 
ATOM      6  C   UNL     1      -3.197  -0.356  24.374  0.00  0.00    +0.127 A 
ATOM      7  C   UNL     1      -3.656  -0.657  23.758  0.00  0.00    +0.023 A 
ATOM      8  C   UNL     1      -3.964  -1.421  23.809  0.00  0.00    +0.038 A 
BRANCH   3   2
ATOM      1  C   UNL     1      -3.612  -3.297  24.510  0.00  0.00    +0.252 C 
ATOM      2  O   UNL     1      -4.119  -2.647  24.526  0.00  0.00    -0.471 OA
ENDBRANCH   3   2
ENDBRANCH   9   6
ENDBRANCH  12   9
ENDBRANCH  13  12
TORSDOF 5
ENDMDL
MODEL 5
REMARK VINA RESULT:     -11.6      2.227      3.103
REMARK  Name = 
REMARK  5 active torsions:
REMARK  status: ('A' for Active; 'I' for Inactive)
REMARK    1  A    between atoms: O_2  and  C_3
REMARK    2  A    between atoms: C_6  and  S_9
REMARK    3  A    between atoms: S_9  and  N_12
REMARK    4  A    between atoms: N_12  and  C_13
REMARK    5  A    between atoms: C_23  and  C_25
REMARK                            x       y       z     vdW  Elec       q    Type
REMARK                         _______ _______ _______ _____ _____    ______ ____
ROOT
ATOM     13  C   UNL     1      -3.032   1.644  24.738  0.00  0.00    +0.147 A 
ATOM     14  C   UNL     1      -3.388   0.932  24.520  0.00  0.00    +0.024 A 
ATOM     15  C   UNL     1      -4.207   0.847  24.574  0.00  0.00    +0.014 A 
ATOM     16  C   UNL     1      -4.669   1.474  24.846  0.00  0.00    +0.041 A 
ATOM     17  C   UNL     1      -5.546   1.693  25.015  0.00  0.00    +0.058 C 
ATOM     18  C   UNL     1      -6.195   1.428  24.986  0.00  0.00    +0.011 C 
ATOM     19  C   UNL     1      -5.840   2.129  25.201  0.00  0.00    +0.043 C 
ATOM     20  C   UNL     1      -5.602   3.039  25.503  0.00  0.00    +0.096 C 
ATOM     21  N   UNL     1      -4.772   3.007  25.406  0.00  0.00    -0.270 N 
ATOM     22  C   UNL     1      -5.332   2.576  25.309  0.00  0.00    +0.100 C 
ATOM     23  C   UNL     1      -4.264   3.718  25.608  0.00  0.00    +0.329 C 
ATOM     24  O   UNL     1      -4.152   4.520  25.884  0.00  0.00    -0.263 OA
ATOM     28  C   UNL     1      -4.921   1.909  25.028  0.00  0.00    +0.110 C 
ATOM     29  N   UNL     1      -4.313   2.185  25.064  0.00  0.00    -0.298 N 
ATOM     30  C   UNL     1      -3.494   2.270  25.010  0.00  0.00    +0.277 A 
ATOM     31  O   UNL     1      -2.986   2.965  25.207  0.00  0.00    -0.266 OA
ENDROOT
BRANCH  23  25
ATOM     25  C   UNL     1      -3.483   3.386  25.409  0.00  0.00    +0.440 C 
ATOM     26  O   UNL     1      -2.763   2.779  25.639  0.00  0.00    -0.235 OA
ATOM     27  O   UNL     1      -3.524   3.921  24.707  0.00  0.00    -0.235 OA
ENDBRANCH  23  25
BRANCH  13  12
ATOM     12  N   UNL     1      -2.161   1.821  24.712  0.00  0.00    -0.092 NA
BRANCH  12   9
ATOM      9  S   UNL     1      -1.638   1.277  24.305  0.00  0.00    +0.093 S 
ATOM     10  O   UNL     1      -1.986   1.395  23.528  0.00  0.00    -0.148 OA
ATOM     11  O   UNL     1      -1.274   1.148  25.092  0.00  0.00    -0.148 OA
BRANCH   9   6
ATOM      3  C   UNL     1       0.285  -0.153  23.584  0.00  0.00    +0.139 A 
ATOM      4  C   UNL     1      -0.242  -0.497  24.118  0.00  0.00    +0.038 A 
ATOM      5  C   UNL     1      -0.893  -0.069  24.388  0.00  0.00    +0.023 A 
ATOM      6  C   UNL     1      -1.017   0.703  24.124  0.00  0.00    +0.127 A 
ATOM      7  C   UNL     1      -0.491   1.047  23.590  0.00  0.00    +0.023 A 
ATOM      8  C   UNL     1       0.160   0.619  23.320  0.00  0.00    +0.038 A 
BRANCH   3   2
ATOM      1  C   UNL     1       1.477  -0.228  22.801  0.00  0.00    +0.252 C 
ATOM      2  O   UNL     1       0.936  -0.581  23.314  0.00  0.00    -0.471 OA
ENDBRANCH   3   2
ENDBRANCH   9   6
ENDBRANCH  12   9
ENDBRANCH  13  12
TORSDOF 5
ENDMDL
