MODEL 1
REMARK VINA RESULT:     -10.5      0.000      0.000
REMARK  Name = 
REMARK  5 active torsions:
REMARK  status: ('A' for Active; 'I' for Inactive)
REMARK    1  A    between atoms: C_2  and  N_3
REMARK    2  A    between atoms: C_4  and  C_10
REMARK    3  A    between atoms: C_10  and  C_12
REMARK    4  A    between atoms: C_15  and  N_16
REMARK    5  A    between atoms: C_17  and  C_19
REMARK                            x       y       z     vdW  Elec       q    Type
REMARK                         _______ _______ _______ _____ _____    ______ ____
ROOT
ATOM     12  C   UNL     1      -3.833   0.437  24.501  0.00  0.00    +0.010 A 
ATOM     13  C   UNL     1      -3.181   0.552  24.008  0.00  0.00    -0.000 A 
ATOM     14  C   UNL     1      -2.796   1.281  23.998  0.00  0.00    +0.016 A 
ATOM     15  C   UNL     1      -3.062   1.895  24.482  0.00  0.00    +0.074 A 
ATOM     26  C   UNL     1      -3.713   1.779  24.974  0.00  0.00    +0.016 A 
ATOM     27  C   UNL     1      -4.099   1.049  24.984  0.00  0.00    -0.000 A 
ENDROOT
BRANCH  15  16
ATOM     16  N   UNL     1      -2.676   2.625  24.473  0.00  0.00    -0.174 NA
ATOM     17  C   UNL     1      -2.039   2.760  24.979  0.00  0.00    +0.286 C 
ATOM     18  O   UNL     1      -1.787   2.167  25.495  0.00  0.00    -0.266 OA
BRANCH  17  19
ATOM     19  C   UNL     1      -1.654   3.490  24.970  0.00  0.00    +0.134 A 
ATOM     20  C   UNL     1      -2.008   4.227  25.076  0.00  0.00    +0.040 A 
ATOM     21  C   UNL     1      -1.419   4.803  25.024  0.00  0.00    +0.081 A 
ATOM     22  C   UNL     1      -1.529   5.617  25.097  0.00  0.00    +0.054 C 
ATOM     23  N   UNL     1      -0.701   4.422  24.887  0.00  0.00    -0.173 NA
ATOM     24  N   UNL     1      -0.846   3.610  24.854  0.00  0.00    -0.245 N 
ATOM     25  C   UNL     1      -0.282   3.021  24.726  0.00  0.00    +0.154 C 
ENDBRANCH  17  19
ENDBRANCH  15  16
BRANCH  12  10
ATOM     10  C   UNL     1      -4.219  -0.293  24.510  0.00  0.00    +0.195 C 
ATOM     11  O   UNL     1      -4.925  -0.391  24.095  0.00  0.00    -0.216 OA
BRANCH  10   4
ATOM      3  N   UNL     1      -3.871  -1.676  24.597  0.00  0.00    -0.274 N 
ATOM      4  C   UNL     1      -3.899  -0.924  24.934  0.00  0.00    +0.139 C 
ATOM      5  C   UNL     1      -3.606  -0.801  25.696  0.00  0.00    +0.165 C 
ATOM      6  O   UNL     1      -3.286  -1.432  26.121  0.00  0.00    -0.343 OA
ATOM      7  C   UNL     1      -3.258  -2.185  25.784  0.00  0.00    +0.227 C 
ATOM      8  C   UNL     1      -3.551  -2.306  25.022  0.00  0.00    +0.256 C 
ATOM      9  O   UNL     1      -3.524  -3.059  24.685  0.00  0.00    -0.272 OA
BRANCH   3   2
ATOM      1  C   UNL     1      -4.244  -2.565  23.543  0.00  0.00    +0.023 C 
ATOM      2  C   UNL     1      -4.164  -1.798  23.836  0.00  0.00    +0.094 C 
ENDBRANCH   3   2
ENDBRANCH  10   4
ENDBRANCH  12  10
TORSDOF 5
ENDMDL
MODEL 2
REMARK VINA RESULT:      -9.5      1.475      5.254
REMARK  Name = 
REMARK  5 active torsions:
REMARK  status: ('A' for Active; 'I' for Inactive)
REMARK    1  A    between atoms: C_2  and  N_3
REMARK    2  A    between atoms: C_4  and  C_10
REMARK    3  A    between atoms: C_10  and  C_12
REMARK    4  A    between atoms: C_15  and  N_16
REMARK    5  A    between atoms: C_17  and  C_19
REMARK                            x       y       z     vdW  Elec       q    Type
REMARK                         _______ _______ _______ _____ _____    ______ ____
ROOT
ATOM     12  C   UNL     1      -3.574   2.098  24.146  0.00  0.00    +0.010 A 
ATOM     13  C   UNL     1      -3.105   1.725  23.579  0.00  0.00    -0.000 A 
ATOM     14  C   UNL     1      -3.098   0.902  23.526  0.00  0.00    +0.016 A 
ATOM     15  C   UNL     1      -3.561   0.452  24.041  0.00  0.00    +0.074 A 
ATOM     26  C   UNL     1      -4.029   0.826  24.608  0.00  0.00    +0.016 A 
ATOM     27  C   UNL     1      -4.036   1.649  24.661  0.00  0.00    -0.000 A 
ENDROOT
BRANCH  15  16
ATOM     16  N   UNL     1      -3.554  -0.372  23.989  0.00  0.00    -0.174 NA
ATOM     17  C   UNL     1      -3.087  -0.814  24.506  0.00  0.00    +0.286 C 
ATOM     18  O   UNL     1      -2.626  -0.433  25.075  0.00  0.00    -0.266 OA
BRANCH  17  19
ATOM     19  C   UNL     1      -3.080  -1.637  24.453  0.00  0.00    +0.134 A 
ATOM     20  C   UNL     1      -3.736  -2.120  24.325  0.00  0.00    +0.040 A 
ATOM     21  C   UNL     1      -3.477  -2.904  24.312  0.00  0.00    +0.081 A 
ATOM     22  C   UNL     1      -3.952  -3.569  24.200  0.00  0.00    +0.054 C 
ATOM     23  N   UNL     1      -2.662  -2.905  24.432  0.00  0.00    -0.173 NA
ATOM     24  N   UNL     1      -2.416  -2.122  24.519  0.00  0.00    -0.245 N 
ATOM     25  C   UNL     1      -1.642  -1.868  24.650  0.00  0.00    +0.154 C 
ENDBRANCH  17  19
ENDBRANCH  15  16
BRANCH  12  10
ATOM     10  C   UNL     1      -3.581   2.922  24.199  0.00  0.00    +0.195 C 
ATOM     11  O   UNL     1      -4.155   3.357  23.796  0.00  0.00    -0.216 OA
BRANCH  10   4
ATOM      3  N   UNL     1      -3.244   3.762  25.305  0.00  0.00    -0.274 N 
ATOM      4  C   UNL     1      -3.013   3.311  24.654  0.00  0.00    +0.139 C 
ATOM      5  C   UNL     1      -2.215   3.249  24.457  0.00  0.00    +0.165 C 
ATOM      6  O   UNL     1      -1.646   3.638  24.912  0.00  0.00    -0.343 OA
ATOM      7  C   UNL     1      -1.877   4.090  25.563  0.00  0.00    +0.227 C 
ATOM      8  C   UNL     1      -2.677   4.151  25.759  0.00  0.00    +0.256 C 
ATOM      9  O   UNL     1      -2.908   4.602  26.410  0.00  0.00    -0.272 OA
BRANCH   3   2
ATOM      1  C   UNL     1      -4.266   4.172  26.215  0.00  0.00    +0.023 C 
ATOM      2  C   UNL     1      -4.043   3.824  25.501  0.00  0.00    +0.094 C 
ENDBRANCH   3   2
ENDBRANCH  10   4
ENDBRANCH  12  10
TORSDOF 5
ENDMDL
MODEL 3
REMARK VINA RESULT:      -9.5      2.604      4.220
REMARK  Name = 
REMARK  5 active torsions:
REMARK  status: ('A' for Active; 'I' for Inactive)
REMARK    1  A    between atoms: C_2  and  N_3
REMARK    2  A    between atoms: C_4  and  C_10
REMARK    3  A    between atoms: C_10  and  C_12
REMARK    4  A    between atoms: C_15  and  N_16
REMARK    5  A    between atoms: C_17  and  C_19
REMARK                            x       y       z     vdW  Elec       q    Type
REMARK                         _______ _______ _______ _____ _____    ______ ____
ROOT
ATOM     12  C   UNL     1      -3.297   2.486  24.024  0.00  0.00    +0.010 A 
ATOM     13  C   UNL     1      -2.671   2.546  24.558  0.00  0.00    -0.000 A 
ATOM     14  C   UNL     1      -1.956   2.166  24.399  0.00  0.00    +0.016 A 
ATOM     15  C   UNL     1      -1.866   1.727  23.706  0.00  0.00    +0.074 A 
ATOM     26  C   UNL     1      -2.493   1.668  23.172  0.00  0.00    +0.016 A 
ATOM     27  C   UNL     1      -3.208   2.048  23.332  0.00  0.00    -0.000 A 
ENDROOT
BRANCH  15  16
ATOM     16  N   UNL     1      -1.151   1.348  23.547  0.00  0.00    -0.174 NA
ATOM     17  C   UNL     1      -0.996   0.607  23.875  0.00  0.00    +0.286 C 
ATOM     18  O   UNL     1      -1.555   0.245  24.362  0.00  0.00    -0.266 OA
BRANCH  17  19
ATOM     19  C   UNL     1      -0.281   0.227  23.716  0.00  0.00    +0.134 A 
ATOM     20  C   UNL     1       0.322   0.512  23.230  0.00  0.00    +0.040 A 
ATOM     21  C   UNL     1       0.932  -0.043  23.229  0.00  0.00    +0.081 A 
ATOM     22  C   UNL     1       1.643   0.020  22.815  0.00  0.00    +0.054 C 
ATOM     23  N   UNL     1       0.707  -0.670  23.713  0.00  0.00    -0.173 NA
ATOM     24  N   UNL     1      -0.043  -0.504  24.014  0.00  0.00    -0.245 N 
ATOM     25  C   UNL     1      -0.479  -0.984  24.525  0.00  0.00    +0.154 C 
ENDBRANCH  17  19
ENDBRANCH  15  16
BRANCH  12  10
ATOM     10  C   UNL     1      -4.012   2.866  24.183  0.00  0.00    +0.195 C 
ATOM     11  O   UNL     1      -4.155   3.620  23.880  0.00  0.00    -0.216 OA
BRANCH  10   4
ATOM      3  N   UNL     1      -4.959   2.906  25.252  0.00  0.00    -0.274 N 
ATOM      4  C   UNL     1      -4.584   2.492  24.645  0.00  0.00    +0.139 C 
ATOM      5  C   UNL     1      -4.779   1.704  24.500  0.00  0.00    +0.165 C 
ATOM      6  O   UNL     1      -5.352   1.330  24.962  0.00  0.00    -0.343 OA
ATOM      7  C   UNL     1      -5.727   1.743  25.569  0.00  0.00    +0.227 C 
ATOM      8  C   UNL     1      -5.531   2.532  25.714  0.00  0.00    +0.256 C 
ATOM      9  O   UNL     1      -5.906   2.945  26.321  0.00  0.00    -0.272 OA
BRANCH   3   2
ATOM      1  C   UNL     1      -5.325   4.206  25.716  0.00  0.00    +0.023 C 
ATOM      2  C   UNL     1      -4.763   3.693  25.397  0.00  0.00    +0.094 C 
ENDBRANCH   3   2
ENDBRANCH  10   4
ENDBRANCH  12  10
TORSDOF 5
ENDMDL
MODEL 4
REMARK VINA RESULT:      -9.5      1.490      1.932
REMARK  Name = 
REMARK  5 active torsions:
REMARK  status: ('A' for Active; 'I' for Inactive)
REMARK    1  A    between atoms: C_2  and  N_3
REMARK    2  A    between atoms: C_4  and  C_10
REMARK    3  A    between atoms: C_10  and  C_12
REMARK    4  A    between atoms: C_15  and  N_16
REMARK    5  A    between atoms: C_17  and  C_19
REMARK                            x       y       z     vdW  Elec       q    Type
REMARK                         _______ _______ _______ _____ _____    ______ ____
ROOT
ATOM     12  C   UNL     1      -1.333  -0.079  25.137  0.00  0.00    +0.010 A 
ATOM     13  C   UNL     1      -1.522   0.340  24.452  0.00  0.00    -0.000 A 
ATOM     14  C   UNL     1      -1.430   1.160  24.431  0.00  0.00    +0.016 A 
ATOM     15  C   UNL     1      -1.150   1.560  25.097  0.00  0.00    +0.074 A 
ATOM     26  C   UNL     1      -0.962   1.141  25.781  0.00  0.00    +0.016 A 
ATOM     27  C   UNL     1      -1.054   0.321  25.802  0.00  0.00    -0.000 A 
ENDROOT
BRANCH  15  16
ATOM     16  N   UNL     1      -1.059   2.380  25.077  0.00  0.00    -0.174 NA
ATOM     17  C   UNL     1      -1.703   2.871  25.236  0.00  0.00    +0.286 C 
ATOM     18  O   UNL     1      -2.439   2.543  25.415  0.00  0.00    -0.266 OA
BRANCH  17  19
ATOM     19  C   UNL     1      -1.611   3.690  25.216  0.00  0.00    +0.134 A 
ATOM     20  C   UNL     1      -1.003   4.101  24.840  0.00  0.00    +0.040 A 
ATOM     21  C   UNL     1      -1.128   4.908  24.960  0.00  0.00    +0.081 A 
ATOM     22  C   UNL     1      -0.651   5.519  24.679  0.00  0.00    +0.054 C 
ATOM     23  N   UNL     1      -1.813   4.996  25.409  0.00  0.00    -0.173 NA
ATOM     24  N   UNL     1      -2.112   4.243  25.568  0.00  0.00    -0.245 N 
ATOM     25  C   UNL     1      -2.793   4.073  26.002  0.00  0.00    +0.154 C 
ENDBRANCH  17  19
ENDBRANCH  15  16
BRANCH  12  10
ATOM     10  C   UNL     1      -1.425  -0.899  25.157  0.00  0.00    +0.195 C 
ATOM     11  O   UNL     1      -0.766  -1.390  25.081  0.00  0.00    -0.216 OA
BRANCH  10   4
ATOM      3  N   UNL     1      -2.393  -1.893  24.817  0.00  0.00    -0.274 N 
ATOM      4  C   UNL     1      -2.175  -1.228  25.253  0.00  0.00    +0.139 C 
ATOM      5  C   UNL     1      -2.707  -0.892  25.787  0.00  0.00    +0.165 C 
ATOM      6  O   UNL     1      -3.458  -1.221  25.883  0.00  0.00    -0.343 OA
ATOM      7  C   UNL     1      -3.676  -1.886  25.447  0.00  0.00    +0.227 C 
ATOM      8  C   UNL     1      -3.143  -2.222  24.914  0.00  0.00    +0.256 C 
ATOM      9  O   UNL     1      -3.360  -2.887  24.477  0.00  0.00    -0.272 OA
BRANCH   3   2
ATOM      1  C   UNL     1      -1.993  -2.989  23.993  0.00  0.00    +0.023 C 
ATOM      2  C   UNL     1      -1.861  -2.229  24.284  0.00  0.00    +0.094 C 
ENDBRANCH   3   2
ENDBRANCH  10   4
ENDBRANCH  12  10
TORSDOF 5
ENDMDL
MODEL 5
REMARK VINA RESULT:      -9.3      1.384      5.621
REMARK  Name = 
REMARK  5 active torsions:
REMARK  status: ('A' for Active; 'I' for Inactive)
REMARK    1  A    between atoms: C_2  and  N_3
REMARK    2  A    between atoms: C_4  and  C_10
REMARK    3  A    between atoms: C_10  and  C_12
REMARK    4  A    between atoms: C_15  and  N_16
REMARK    5  A    between atoms: C_17  and  C_19
REMARK                            x       y       z     vdW  Elec       q    Type
REMARK                         _______ _______ _______ _____ _____    ______ ____
ROOT
ATOM     12  C   UNL     1      -1.213   1.931  25.141  0.00  0.00    +0.010 A 
ATOM     13  C   UNL     1      -1.176   1.311  25.684  0.00  0.00    -0.000 A 
ATOM     14  C   UNL     1      -1.495   0.575  25.491  0.00  0.00    +0.016 A 
ATOM     15  C   UNL     1      -1.849   0.459  24.754  0.00  0.00    +0.074 A 
ATOM     26  C   UNL     1      -1.885   1.079  24.212  0.00  0.00    +0.016 A 
ATOM     27  C   UNL     1      -1.566   1.815  24.405  0.00  0.00    -0.000 A 
ENDROOT
BRANCH  15  16
ATOM     16  N   UNL     1      -2.167  -0.277  24.560  0.00  0.00    -0.174 NA
ATOM     17  C   UNL     1      -2.927  -0.477  24.814  0.00  0.00    +0.286 C 
ATOM     18  O   UNL     1      -3.368   0.058  25.260  0.00  0.00    -0.266 OA
BRANCH  17  19
ATOM     19  C   UNL     1      -3.245  -1.214  24.620  0.00  0.00    +0.134 A 
ATOM     20  C   UNL     1      -2.911  -1.947  24.793  0.00  0.00    +0.040 A 
ATOM     21  C   UNL     1      -3.413  -2.533  24.500  0.00  0.00    +0.081 A 
ATOM     22  C   UNL     1      -3.291  -3.347  24.552  0.00  0.00    +0.054 C 
ATOM     23  N   UNL     1      -4.057  -2.161  24.145  0.00  0.00    -0.173 NA
ATOM     24  N   UNL     1      -3.954  -1.345  24.220  0.00  0.00    -0.245 N 
ATOM     25  C   UNL     1      -4.470  -0.764  23.942  0.00  0.00    +0.154 C 
ENDBRANCH  17  19
ENDBRANCH  15  16
BRANCH  12  10
ATOM     10  C   UNL     1      -0.894   2.667  25.334  0.00  0.00    +0.195 C 
ATOM     11  O   UNL     1      -0.076   2.774  25.343  0.00  0.00    -0.216 OA
BRANCH  10   4
ATOM      3  N   UNL     1      -1.242   4.048  25.211  0.00  0.00    -0.274 N 
ATOM      4  C   UNL     1      -1.393   3.297  25.519  0.00  0.00    +0.139 C 
ATOM      5  C   UNL     1      -2.044   3.176  26.011  0.00  0.00    +0.165 C 
ATOM      6  O   UNL     1      -2.544   3.806  26.197  0.00  0.00    -0.343 OA
ATOM      7  C   UNL     1      -2.393   4.557  25.889  0.00  0.00    +0.227 C 
ATOM      8  C   UNL     1      -1.742   4.677  25.397  0.00  0.00    +0.256 C 
ATOM      9  O   UNL     1      -1.591   5.427  25.089  0.00  0.00    -0.272 OA
BRANCH   3   2
ATOM      1  C   UNL     1      -0.397   4.931  24.474  0.00  0.00    +0.023 C 
ATOM      2  C   UNL     1      -0.592   4.168  24.719  0.00  0.00    +0.094 C 
ENDBRANCH   3   2
ENDBRANCH  10   4
ENDBRANCH  12  10
TORSDOF 5
ENDMDL
