MODEL 1
REMARK VINA RESULT:     -10.4      0.000      0.000
REMARK  Name = 
REMARK  3 active torsions:
REMARK  status: ('A' for Active; 'I' for Inactive)
REMARK    1  A    between atoms: N_6  and  C_7
REMARK    2  A    between atoms: C_7  and  C_8
REMARK    3  A    between atoms: N_16  and  C_17
REMARK                            x       y       z     vdW  Elec       q    Type
REMARK                         _______ _______ _______ _____ _____    ______ ____
ROOT
ATOM      1  O   UNL     1      -5.004   0.060  25.283  0.00  0.00    -0.252 OA
ATOM      2  C   UNL     1      -4.337   0.328  24.880  0.00  0.00    +0.311 C 
ATOM      3  N   UNL     1      -4.124   1.117  24.765  0.00  0.00    -0.261 N 
ATOM      4  C   UNL     1      -4.479   1.824  24.997  0.00  0.00    +0.112 C 
ATOM      5  C   UNL     1      -4.132   2.545  24.798  0.00  0.00    +0.094 C 
ATOM      6  N   UNL     1      -3.429   2.559  24.368  0.00  0.00    -0.263 NA
ATOM     13  C   UNL     1      -3.072   1.853  24.135  0.00  0.00    +0.094 C 
ATOM     14  C   UNL     1      -3.420   1.131  24.334  0.00  0.00    +0.113 C 
ATOM     15  C   UNL     1      -3.198   0.351  24.183  0.00  0.00    +0.121 C 
ATOM     16  N   UNL     1      -3.764  -0.145  24.520  0.00  0.00    -0.241 N 
ENDROOT
BRANCH  16  17
ATOM     17  C   UNL     1      -3.759  -0.970  24.500  0.00  0.00    +0.055 A 
ATOM     18  C   UNL     1      -3.368  -1.394  25.089  0.00  0.00    +0.015 A 
ATOM     19  C   UNL     1      -3.363  -2.219  25.070  0.00  0.00    +0.001 A 
ATOM     20  C   UNL     1      -3.750  -2.619  24.462  0.00  0.00    +0.000 A 
ATOM     21  C   UNL     1      -4.141  -2.196  23.872  0.00  0.00    +0.001 A 
ATOM     22  C   UNL     1      -4.146  -1.371  23.891  0.00  0.00    +0.015 A 
ENDBRANCH  16  17
BRANCH   6   7
ATOM      7  C   UNL     1      -3.081   3.281  24.169  0.00  0.00    +0.139 C 
BRANCH   7   8
ATOM      8  C   UNL     1      -2.554   3.642  24.691  0.00  0.00    +0.155 A 
ATOM      9  N   UNL     1      -2.754   4.154  25.306  0.00  0.00    -0.226 NA
ATOM     10  C   UNL     1      -2.057   4.382  25.685  0.00  0.00    +0.121 A 
ATOM     11  C   UNL     1      -1.426   4.011  25.303  0.00  0.00    +0.121 A 
ATOM     12  N   UNL     1      -1.733   3.553  24.689  0.00  0.00    -0.226 NA
ENDBRANCH   7   8
ENDBRANCH   6   7
TORSDOF 3
ENDMDL
MODEL 2
REMARK VINA RESULT:     -10.0      1.003      1.291
REMARK  Name = 
REMARK  3 active torsions:
REMARK  status: ('A' for Active; 'I' for Inactive)
REMARK    1  A    between atoms: N_6  and  C_7
REMARK    2  A    between atoms: C_7  and  C_8
REMARK    3  A    between atoms: N_16  and  C_17
REMARK                            x       y       z     vdW  Elec       q    Type
REMARK                         _______ _______ _______ _____ _____    ______ ____
ROOT
ATOM      1  O   UNL     1      -1.833  -0.489  24.104  0.00  0.00    -0.252 OA
ATOM      2  C   UNL     1      -2.520  -0.060  24.256  0.00  0.00    +0.311 C 
ATOM      3  N   UNL     1      -2.592   0.761  24.248  0.00  0.00    -0.261 N 
ATOM      4  C   UNL     1      -2.046   1.362  24.097  0.00  0.00    +0.112 C 
ATOM      5  C   UNL     1      -2.282   2.151  24.128  0.00  0.00    +0.094 C 
ATOM      6  N   UNL     1      -3.064   2.341  24.311  0.00  0.00    -0.263 NA
ATOM     13  C   UNL     1      -3.610   1.742  24.463  0.00  0.00    +0.094 C 
ATOM     14  C   UNL     1      -3.374   0.951  24.431  0.00  0.00    +0.113 C 
ATOM     15  C   UNL     1      -3.785   0.247  24.553  0.00  0.00    +0.121 C 
ATOM     16  N   UNL     1      -3.259  -0.378  24.445  0.00  0.00    -0.241 N 
ENDROOT
BRANCH  16  17
ATOM     17  C   UNL     1      -3.438  -1.180  24.514  0.00  0.00    +0.055 A 
ATOM     18  C   UNL     1      -3.205  -1.599  25.185  0.00  0.00    +0.015 A 
ATOM     19  C   UNL     1      -3.384  -2.402  25.254  0.00  0.00    +0.001 A 
ATOM     20  C   UNL     1      -3.796  -2.785  24.652  0.00  0.00    +0.000 A 
ATOM     21  C   UNL     1      -4.029  -2.367  23.979  0.00  0.00    +0.001 A 
ATOM     22  C   UNL     1      -3.850  -1.565  23.910  0.00  0.00    +0.015 A 
ENDBRANCH  16  17
BRANCH   6   7
ATOM      7  C   UNL     1      -3.300   3.132  24.343  0.00  0.00    +0.139 C 
BRANCH   7   8
ATOM      8  C   UNL     1      -3.103   3.594  24.997  0.00  0.00    +0.155 A 
ATOM      9  N   UNL     1      -3.545   3.669  25.689  0.00  0.00    -0.226 NA
ATOM     10  C   UNL     1      -3.144   4.184  26.194  0.00  0.00    +0.121 A 
ATOM     11  C   UNL     1      -2.453   4.428  25.813  0.00  0.00    +0.121 A 
ATOM     12  N   UNL     1      -2.427   4.063  25.074  0.00  0.00    -0.226 NA
ENDBRANCH   7   8
ENDBRANCH   6   7
TORSDOF 3
ENDMDL
MODEL 3
REMARK VINA RESULT:      -9.5      1.844      5.066
REMARK  Name = 
REMARK  3 active torsions:
REMARK  status: ('A' for Active; 'I' for Inactive)
REMARK    1  A    between atoms: N_6  and  C_7
REMARK    2  A    between atoms: C_7  and  C_8
REMARK    3  A    between atoms: N_16  and  C_17
REMARK                            x       y       z     vdW  Elec       q    Type
REMARK                         _______ _______ _______ _____ _____    ______ ____
ROOT
ATOM      1  O   UNL     1      -0.525   2.510  26.284  0.00  0.00    -0.252 OA
ATOM      2  C   UNL     1      -0.989   2.259  25.651  0.00  0.00    +0.311 C 
ATOM      3  N   UNL     1      -1.137   1.476  25.438  0.00  0.00    -0.261 N 
ATOM      4  C   UNL     1      -0.889   0.760  25.763  0.00  0.00    +0.112 C 
ATOM      5  C   UNL     1      -1.130   0.048  25.424  0.00  0.00    +0.094 C 
ATOM      6  N   UNL     1      -1.620   0.052  24.760  0.00  0.00    -0.263 NA
ATOM     13  C   UNL     1      -1.868   0.768  24.434  0.00  0.00    +0.094 C 
ATOM     14  C   UNL     1      -1.626   1.481  24.774  0.00  0.00    +0.113 C 
ATOM     15  C   UNL     1      -1.781   2.266  24.576  0.00  0.00    +0.121 C 
ATOM     16  N   UNL     1      -1.388   2.747  25.117  0.00  0.00    -0.241 N 
ENDROOT
BRANCH  16  17
ATOM     17  C   UNL     1      -1.392   3.572  25.125  0.00  0.00    +0.055 A 
ATOM     18  C   UNL     1      -0.764   3.992  24.793  0.00  0.00    +0.015 A 
ATOM     19  C   UNL     1      -0.767   4.816  24.801  0.00  0.00    +0.001 A 
ATOM     20  C   UNL     1      -1.399   5.222  25.141  0.00  0.00    +0.000 A 
ATOM     21  C   UNL     1      -2.028   4.804  25.473  0.00  0.00    +0.001 A 
ATOM     22  C   UNL     1      -2.025   3.979  25.465  0.00  0.00    +0.015 A 
ENDBRANCH  16  17
BRANCH   6   7
ATOM      7  C   UNL     1      -1.861  -0.661  24.421  0.00  0.00    +0.139 C 
BRANCH   7   8
ATOM      8  C   UNL     1      -2.568  -1.013  24.660  0.00  0.00    +0.155 A 
ATOM      9  N   UNL     1      -2.663  -1.524  25.300  0.00  0.00    -0.226 NA
ATOM     10  C   UNL     1      -3.458  -1.742  25.337  0.00  0.00    +0.121 A 
ATOM     11  C   UNL     1      -3.854  -1.364  24.720  0.00  0.00    +0.121 A 
ATOM     12  N   UNL     1      -3.304  -0.913  24.301  0.00  0.00    -0.226 NA
ENDBRANCH   7   8
ENDBRANCH   6   7
TORSDOF 3
ENDMDL
MODEL 4
REMARK VINA RESULT:      -9.2      2.468      3.834
REMARK  Name = 
REMARK  3 active torsions:
REMARK  status: ('A' for Active; 'I' for Inactive)
REMARK    1  A    between atoms: N_6  and  C_7
REMARK    2  A    between atoms: C_7  and  C_8
REMARK    3  A    between atoms: N_16  and  C_17
REMARK                            x       y       z     vdW  Elec       q    Type
REMARK                         _______ _______ _______ _____ _____    ______ ____
ROOT
ATOM      1  O   UNL     1      -3.866   2.788  23.375  0.00  0.00    -0.252 OA
ATOM      2  C   UNL     1      -3.455   2.420  23.988  0.00  0.00    +0.311 C 
ATOM      3  N   UNL     1      -2.665   2.187  23.970  0.00  0.00    -0.261 N 
ATOM      4  C   UNL     1      -2.085   2.243  23.386  0.00  0.00    +0.112 C 
ATOM      5  C   UNL     1      -1.326   1.955  23.528  0.00  0.00    +0.094 C 
ATOM      6  N   UNL     1      -1.145   1.611  24.256  0.00  0.00    -0.263 NA
ATOM     13  C   UNL     1      -1.723   1.555  24.841  0.00  0.00    +0.094 C 
ATOM     14  C   UNL     1      -2.484   1.843  24.698  0.00  0.00    +0.113 C 
ATOM     15  C   UNL     1      -3.163   1.863  25.166  0.00  0.00    +0.121 C 
ATOM     16  N   UNL     1      -3.763   2.220  24.727  0.00  0.00    -0.241 N 
ENDROOT
BRANCH  16  17
ATOM     17  C   UNL     1      -4.537   2.353  24.983  0.00  0.00    +0.055 A 
ATOM     18  C   UNL     1      -4.729   3.059  25.364  0.00  0.00    +0.015 A 
ATOM     19  C   UNL     1      -5.503   3.193  25.619  0.00  0.00    +0.001 A 
ATOM     20  C   UNL     1      -6.083   2.621  25.493  0.00  0.00    +0.000 A 
ATOM     21  C   UNL     1      -5.891   1.914  25.112  0.00  0.00    +0.001 A 
ATOM     22  C   UNL     1      -5.118   1.781  24.856  0.00  0.00    +0.015 A 
ENDBRANCH  16  17
BRANCH   6   7
ATOM      7  C   UNL     1      -0.384   1.323  24.399  0.00  0.00    +0.139 C 
BRANCH   7   8
ATOM      8  C   UNL     1      -0.178   0.565  24.150  0.00  0.00    +0.155 A 
ATOM      9  N   UNL     1       0.242   0.376  23.466  0.00  0.00    -0.226 NA
ATOM     10  C   UNL     1       0.324  -0.445  23.435  0.00  0.00    +0.121 A 
ATOM     11  C   UNL     1      -0.045  -0.763  24.101  0.00  0.00    +0.121 A 
ATOM     12  N   UNL     1      -0.355  -0.139  24.543  0.00  0.00    -0.226 NA
ENDBRANCH   7   8
ENDBRANCH   6   7
TORSDOF 3
ENDMDL
