MODEL 1
REMARK VINA RESULT:     -10.3      0.000      0.000
REMARK  Name = 
REMARK  2 active torsions:
REMARK  status: ('A' for Active; 'I' for Inactive)
REMARK    1  A    between atoms: O_2  and  C_3
REMARK    2  A    between atoms: C_8  and  N_9
REMARK                            x       y       z     vdW  Elec       q    Type
REMARK                         _______ _______ _______ _____ _____    ______ ____
ROOT
ATOM      9  N   UNL     1      -3.443  -0.227  24.404  0.00  0.00    -0.159 NA
ATOM     10  C   UNL     1      -4.125   0.193  24.602  0.00  0.00    +0.328 C 
ATOM     11  O   UNL     1      -4.829  -0.210  24.752  0.00  0.00    -0.250 OA
ATOM     12  N   UNL     1      -4.103   1.017  24.651  0.00  0.00    -0.259 N 
ATOM     13  C   UNL     1      -4.785   1.437  24.849  0.00  0.00    +0.117 C 
ATOM     14  C   UNL     1      -4.763   2.259  24.898  0.00  0.00    +0.117 C 
ATOM     15  N   UNL     1      -4.059   2.663  24.749  0.00  0.00    -0.259 N 
ATOM     16  C   UNL     1      -3.377   2.243  24.551  0.00  0.00    +0.118 C 
ATOM     17  C   UNL     1      -2.768   2.787  24.434  0.00  0.00    +0.138 C 
ATOM     18  N   UNL     1      -3.073   3.542  24.560  0.00  0.00    -0.187 NA
ATOM     19  C   UNL     1      -3.870   3.466  24.754  0.00  0.00    +0.323 C 
ATOM     20  O   UNL     1      -4.390   4.084  24.925  0.00  0.00    -0.251 OA
ATOM     21  C   UNL     1      -3.399   1.419  24.502  0.00  0.00    +0.117 C 
ENDROOT
BRANCH   9   8
ATOM      3  C   UNL     1      -2.815  -1.495  24.600  0.00  0.00    +0.154 A 
ATOM      4  C   UNL     1      -2.837  -2.319  24.552  0.00  0.00    +0.038 A 
ATOM      5  C   UNL     1      -3.510  -2.696  24.259  0.00  0.00    +0.003 A 
ATOM      6  C   UNL     1      -4.160  -2.251  24.014  0.00  0.00    +0.002 A 
ATOM      7  C   UNL     1      -4.137  -1.428  24.063  0.00  0.00    +0.020 A 
ATOM      8  C   UNL     1      -3.465  -1.050  24.356  0.00  0.00    +0.109 A 
BRANCH   3   2
ATOM      1  C   UNL     1      -1.450  -1.547  25.019  0.00  0.00    +0.253 C 
ATOM      2  O   UNL     1      -2.143  -1.118  24.894  0.00  0.00    -0.470 OA
ENDBRANCH   3   2
ENDBRANCH   9   8
TORSDOF 2
ENDMDL
MODEL 2
REMARK VINA RESULT:      -9.8      1.120      1.348
REMARK  Name = 
REMARK  2 active torsions:
REMARK  status: ('A' for Active; 'I' for Inactive)
REMARK    1  A    between atoms: O_2  and  C_3
REMARK    2  A    between atoms: C_8  and  N_9
REMARK                            x       y       z     vdW  Elec       q    Type
REMARK                         _______ _______ _______ _____ _____    ______ ____
ROOT
ATOM      9  N   UNL     1      -2.852   0.123  24.642  0.00  0.00    -0.159 NA
ATOM     10  C   UNL     1      -3.333   0.792  24.681  0.00  0.00    +0.328 C 
ATOM     11  O   UNL     1      -4.146   0.723  24.561  0.00  0.00    -0.250 OA
ATOM     12  N   UNL     1      -3.001   1.531  24.840  0.00  0.00    -0.259 N 
ATOM     13  C   UNL     1      -3.482   2.200  24.879  0.00  0.00    +0.117 C 
ATOM     14  C   UNL     1      -3.150   2.937  25.038  0.00  0.00    +0.117 C 
ATOM     15  N   UNL     1      -2.336   3.007  25.158  0.00  0.00    -0.259 N 
ATOM     16  C   UNL     1      -1.855   2.338  25.119  0.00  0.00    +0.118 C 
ATOM     17  C   UNL     1      -1.078   2.574  25.260  0.00  0.00    +0.138 C 
ATOM     18  N   UNL     1      -1.078   3.389  25.386  0.00  0.00    -0.187 NA
ATOM     19  C   UNL     1      -1.856   3.656  25.323  0.00  0.00    +0.323 C 
ATOM     20  O   UNL     1      -2.109   4.437  25.410  0.00  0.00    -0.251 OA
ATOM     21  C   UNL     1      -2.187   1.599  24.960  0.00  0.00    +0.117 C 
ENDROOT
BRANCH   9   8
ATOM      3  C   UNL     1      -2.742  -1.301  24.604  0.00  0.00    +0.154 A 
ATOM      4  C   UNL     1      -3.075  -2.040  24.445  0.00  0.00    +0.038 A 
ATOM      5  C   UNL     1      -3.848  -2.091  24.165  0.00  0.00    +0.003 A 
ATOM      6  C   UNL     1      -4.290  -1.405  24.043  0.00  0.00    +0.002 A 
ATOM      7  C   UNL     1      -3.958  -0.668  24.202  0.00  0.00    +0.020 A 
ATOM      8  C   UNL     1      -3.184  -0.615  24.483  0.00  0.00    +0.109 A 
BRANCH   3   2
ATOM      1  C   UNL     1      -1.484  -1.917  24.886  0.00  0.00    +0.253 C 
ATOM      2  O   UNL     1      -1.968  -1.249  24.885  0.00  0.00    -0.470 OA
ENDBRANCH   3   2
ENDBRANCH   9   8
TORSDOF 2
ENDMDL
MODEL 3
REMARK VINA RESULT:      -9.6      2.695      5.344
REMARK  Name = 
REMARK  2 active torsions:
REMARK  status: ('A' for Active; 'I' for Inactive)
REMARK    1  A    between atoms: O_2  and  C_3
REMARK    2  A    between atoms: C_8  and  N_9
REMARK                            x       y       z     vdW  Elec       q    Type
REMARK                         _______ _______ _______ _____ _____    ______ ____
ROOT
ATOM      9  N   UNL     1      -1.317   2.756  25.236  0.00  0.00    -0.159 NA
ATOM     10  C   UNL     1      -0.880   2.367  24.654  0.00  0.00    +0.328 C 
ATOM     11  O   UNL     1      -0.521   2.798  24.050  0.00  0.00    -0.250 OA
ATOM     12  N   UNL     1      -0.803   1.545  24.677  0.00  0.00    -0.259 N 
ATOM     13  C   UNL     1      -0.366   1.156  24.095  0.00  0.00    +0.117 C 
ATOM     14  C   UNL     1      -0.289   0.336  24.118  0.00  0.00    +0.117 C 
ATOM     15  N   UNL     1      -0.648  -0.097  24.722  0.00  0.00    -0.259 N 
ATOM     16  C   UNL     1      -1.085   0.292  25.304  0.00  0.00    +0.118 C 
ATOM     17  C   UNL     1      -1.375  -0.275  25.827  0.00  0.00    +0.138 C 
ATOM     18  N   UNL     1      -1.117  -1.014  25.570  0.00  0.00    -0.187 NA
ATOM     19  C   UNL     1      -0.668  -0.904  24.887  0.00  0.00    +0.323 C 
ATOM     20  O   UNL     1      -0.303  -1.498  24.446  0.00  0.00    -0.251 OA
ATOM     21  C   UNL     1      -1.162   1.114  25.281  0.00  0.00    +0.117 C 
ENDROOT
BRANCH   9   8
ATOM      3  C   UNL     1      -2.106   3.930  25.437  0.00  0.00    +0.154 A 
ATOM      4  C   UNL     1      -2.183   4.752  25.415  0.00  0.00    +0.038 A 
ATOM      5  C   UNL     1      -1.550   5.219  25.167  0.00  0.00    +0.003 A 
ATOM      6  C   UNL     1      -0.839   4.865  24.943  0.00  0.00    +0.002 A 
ATOM      7  C   UNL     1      -0.762   4.045  24.966  0.00  0.00    +0.020 A 
ATOM      8  C   UNL     1      -1.395   3.577  25.213  0.00  0.00    +0.109 A 
BRANCH   3   2
ATOM      1  C   UNL     1      -3.452   3.817  25.904  0.00  0.00    +0.253 C 
ATOM      2  O   UNL     1      -2.739   3.464  25.684  0.00  0.00    -0.470 OA
ENDBRANCH   3   2
ENDBRANCH   9   8
TORSDOF 2
ENDMDL
MODEL 4
REMARK VINA RESULT:      -9.5      1.194      4.517
REMARK  Name = 
REMARK  2 active torsions:
REMARK  status: ('A' for Active; 'I' for Inactive)
REMARK    1  A    between atoms: O_2  and  C_3
REMARK    2  A    between atoms: C_8  and  N_9
REMARK                            x       y       z     vdW  Elec       q    Type
REMARK                         _______ _______ _______ _____ _____    ______ ____
ROOT
ATOM      9  N   UNL     1      -3.972   1.259  24.542  0.00  0.00    -0.159 NA
ATOM     10  C   UNL     1      -3.245   0.911  24.718  0.00  0.00    +0.328 C 
ATOM     11  O   UNL     1      -2.614   1.378  24.973  0.00  0.00    -0.250 OA
ATOM     12  N   UNL     1      -3.148   0.095  24.641  0.00  0.00    -0.259 N 
ATOM     13  C   UNL     1      -2.422  -0.254  24.817  0.00  0.00    +0.117 C 
ATOM     14  C   UNL     1      -2.326  -1.069  24.739  0.00  0.00    +0.117 C 
ATOM     15  N   UNL     1      -2.956  -1.537  24.485  0.00  0.00    -0.259 N 
ATOM     16  C   UNL     1      -3.683  -1.189  24.309  0.00  0.00    +0.118 C 
ATOM     17  C   UNL     1      -4.201  -1.785  24.072  0.00  0.00    +0.138 C 
ATOM     18  N   UNL     1      -3.795  -2.502  24.102  0.00  0.00    -0.187 NA
ATOM     19  C   UNL     1      -3.026  -2.348  24.357  0.00  0.00    +0.323 C 
ATOM     20  O   UNL     1      -2.430  -2.908  24.466  0.00  0.00    -0.251 OA
ATOM     21  C   UNL     1      -3.779  -0.372  24.386  0.00  0.00    +0.117 C 
ENDROOT
BRANCH   9   8
ATOM      3  C   UNL     1      -4.721   2.376  25.022  0.00  0.00    +0.154 A 
ATOM      4  C   UNL     1      -4.818   3.192  25.101  0.00  0.00    +0.038 A 
ATOM      5  C   UNL     1      -4.260   3.706  24.776  0.00  0.00    +0.003 A 
ATOM      6  C   UNL     1      -3.606   3.404  24.373  0.00  0.00    +0.002 A 
ATOM      7  C   UNL     1      -3.510   2.589  24.295  0.00  0.00    +0.020 A 
ATOM      8  C   UNL     1      -4.067   2.074  24.620  0.00  0.00    +0.109 A 
BRANCH   3   2
ATOM      1  C   UNL     1      -5.945   2.165  25.730  0.00  0.00    +0.253 C 
ATOM      2  O   UNL     1      -5.279   1.863  25.347  0.00  0.00    -0.470 OA
ENDBRANCH   3   2
ENDBRANCH   9   8
TORSDOF 2
ENDMDL
MODEL 5
REMARK VINA RESULT:      -9.5      1.108      4.201
REMARK  Name = 
REMARK  2 active torsions:
REMARK  status: ('A' for Active; 'I' for Inactive)
REMARK    1  A    between atoms: O_2  and  C_3
REMARK    2  A    between atoms: C_8  and  N_9
REMARK                            x       y       z     vdW  Elec       q    Type
REMARK                         _______ _______ _______ _____ _____    ______ ____
ROOT
ATOM      9  N   UNL     1      -3.812   1.134  25.038  0.00  0.00    -0.159 NA
ATOM     10  C   UNL     1      -4.053   0.380  24.802  0.00  0.00    +0.328 C 
ATOM     11  O   UNL     1      -4.845   0.237  24.624  0.00  0.00    -0.250 OA
ATOM     12  N   UNL     1      -3.500  -0.230  24.745  0.00  0.00    -0.259 N 
ATOM     13  C   UNL     1      -3.740  -0.984  24.509  0.00  0.00    +0.117 C 
ATOM     14  C   UNL     1      -3.188  -1.593  24.452  0.00  0.00    +0.117 C 
ATOM     15  N   UNL     1      -2.395  -1.450  24.630  0.00  0.00    -0.259 N 
ATOM     16  C   UNL     1      -2.155  -0.697  24.865  0.00  0.00    +0.118 C 
ATOM     17  C   UNL     1      -1.342  -0.720  25.004  0.00  0.00    +0.138 C 
ATOM     18  N   UNL     1      -1.080  -1.488  24.855  0.00  0.00    -0.187 NA
ATOM     19  C   UNL     1      -1.731  -1.938  24.624  0.00  0.00    +0.323 C 
ATOM     20  O   UNL     1      -1.719  -2.738  24.421  0.00  0.00    -0.251 OA
ATOM     21  C   UNL     1      -2.707  -0.086  24.923  0.00  0.00    +0.117 C 
ENDROOT
BRANCH   9   8
ATOM      3  C   UNL     1      -4.137   2.521  24.944  0.00  0.00    +0.154 A 
ATOM      4  C   UNL     1      -4.690   3.132  25.001  0.00  0.00    +0.038 A 
ATOM      5  C   UNL     1      -5.470   2.963  25.210  0.00  0.00    +0.003 A 
ATOM      6  C   UNL     1      -5.697   2.185  25.362  0.00  0.00    +0.002 A 
ATOM      7  C   UNL     1      -5.145   1.575  25.304  0.00  0.00    +0.020 A 
ATOM      8  C   UNL     1      -4.365   1.743  25.095  0.00  0.00    +0.109 A 
BRANCH   3   2
ATOM      1  C   UNL     1      -3.119   3.473  24.624  0.00  0.00    +0.253 C 
ATOM      2  O   UNL     1      -3.357   2.690  24.735  0.00  0.00    -0.470 OA
ENDBRANCH   3   2
ENDBRANCH   9   8
TORSDOF 2
ENDMDL
MODEL 6
REMARK VINA RESULT:      -9.2      1.486      4.673
REMARK  Name = 
REMARK  2 active torsions:
REMARK  status: ('A' for Active; 'I' for Inactive)
REMARK    1  A    between atoms: O_2  and  C_3
REMARK    2  A    between atoms: C_8  and  N_9
REMARK                            x       y       z     vdW  Elec       q    Type
REMARK                         _______ _______ _______ _____ _____    ______ ____
ROOT
ATOM      9  N   UNL     1      -2.391   2.004  24.956  0.00  0.00    -0.159 NA
ATOM     10  C   UNL     1      -1.929   1.342  25.127  0.00  0.00    +0.328 C 
ATOM     11  O   UNL     1      -1.173   1.436  25.442  0.00  0.00    -0.250 OA
ATOM     12  N   UNL     1      -2.225   0.585  24.983  0.00  0.00    -0.259 N 
ATOM     13  C   UNL     1      -1.763  -0.077  25.154  0.00  0.00    +0.117 C 
ATOM     14  C   UNL     1      -2.058  -0.834  25.011  0.00  0.00    +0.117 C 
ATOM     15  N   UNL     1      -2.815  -0.929  24.696  0.00  0.00    -0.259 N 
ATOM     16  C   UNL     1      -3.277  -0.267  24.525  0.00  0.00    +0.118 C 
ATOM     17  C   UNL     1      -3.997  -0.529  24.221  0.00  0.00    +0.138 C 
ATOM     18  N   UNL     1      -3.981  -1.354  24.204  0.00  0.00    -0.187 NA
ATOM     19  C   UNL     1      -3.250  -1.600  24.497  0.00  0.00    +0.323 C 
ATOM     20  O   UNL     1      -2.999  -2.382  24.578  0.00  0.00    -0.251 OA
ATOM     21  C   UNL     1      -2.981   0.491  24.669  0.00  0.00    +0.117 C 
ENDROOT
BRANCH   9   8
ATOM      3  C   UNL     1      -2.602   3.359  25.358  0.00  0.00    +0.154 A 
ATOM      4  C   UNL     1      -2.306   4.116  25.502  0.00  0.00    +0.038 A 
ATOM      5  C   UNL     1      -1.505   4.274  25.388  0.00  0.00    +0.003 A 
ATOM      6  C   UNL     1      -0.999   3.676  25.130  0.00  0.00    +0.002 A 
ATOM      7  C   UNL     1      -1.294   2.920  24.986  0.00  0.00    +0.020 A 
ATOM      8  C   UNL     1      -2.096   2.761  25.100  0.00  0.00    +0.109 A 
BRANCH   3   2
ATOM      1  C   UNL     1      -3.916   3.807  25.695  0.00  0.00    +0.253 C 
ATOM      2  O   UNL     1      -3.403   3.201  25.472  0.00  0.00    -0.470 OA
ENDBRANCH   3   2
ENDBRANCH   9   8
TORSDOF 2
ENDMDL
MODEL 7
REMARK VINA RESULT:      -9.1      2.512      4.459
REMARK  Name = 
REMARK  2 active torsions:
REMARK  status: ('A' for Active; 'I' for Inactive)
REMARK    1  A    between atoms: O_2  and  C_3
REMARK    2  A    between atoms: C_8  and  N_9
REMARK                            x       y       z     vdW  Elec       q    Type
REMARK                         _______ _______ _______ _____ _____    ______ ____
ROOT
ATOM      9  N   UNL     1      -2.544   3.437  24.987  0.00  0.00    -0.159 NA
ATOM     10  C   UNL     1      -3.228   3.701  25.365  0.00  0.00    +0.328 C 
ATOM     11  O   UNL     1      -3.235   4.437  25.739  0.00  0.00    -0.250 OA
ATOM     12  N   UNL     1      -3.905   3.230  25.371  0.00  0.00    -0.259 N 
ATOM     13  C   UNL     1      -4.589   3.494  25.749  0.00  0.00    +0.117 C 
ATOM     14  C   UNL     1      -5.266   3.023  25.754  0.00  0.00    +0.117 C 
ATOM     15  N   UNL     1      -5.260   2.287  25.382  0.00  0.00    -0.259 N 
ATOM     16  C   UNL     1      -4.576   2.023  25.003  0.00  0.00    +0.118 C 
ATOM     17  C   UNL     1      -4.733   1.278  24.685  0.00  0.00    +0.138 C 
ATOM     18  N   UNL     1      -5.513   1.083  24.866  0.00  0.00    -0.187 NA
ATOM     19  C   UNL     1      -5.838   1.706  25.296  0.00  0.00    +0.323 C 
ATOM     20  O   UNL     1      -6.608   1.743  25.591  0.00  0.00    -0.251 OA
ATOM     21  C   UNL     1      -3.898   2.494  24.998  0.00  0.00    +0.117 C 
ENDROOT
BRANCH   9   8
ATOM      3  C   UNL     1      -1.124   3.560  24.902  0.00  0.00    +0.154 A 
ATOM      4  C   UNL     1      -0.446   4.031  24.897  0.00  0.00    +0.038 A 
ATOM      5  C   UNL     1      -0.513   4.850  24.971  0.00  0.00    +0.003 A 
ATOM      6  C   UNL     1      -1.257   5.198  25.051  0.00  0.00    +0.002 A 
ATOM      7  C   UNL     1      -1.933   4.727  25.057  0.00  0.00    +0.020 A 
ATOM      8  C   UNL     1      -1.867   3.908  24.982  0.00  0.00    +0.109 A 
BRANCH   3   2
ATOM      1  C   UNL     1      -0.319   2.399  24.686  0.00  0.00    +0.253 C 
ATOM      2  O   UNL     1      -1.056   2.741  24.827  0.00  0.00    -0.470 OA
ENDBRANCH   3   2
ENDBRANCH   9   8
TORSDOF 2
ENDMDL
MODEL 8
REMARK VINA RESULT:      -9.1      1.931      4.466
REMARK  Name = 
REMARK  2 active torsions:
REMARK  status: ('A' for Active; 'I' for Inactive)
REMARK    1  A    between atoms: O_2  and  C_3
REMARK    2  A    between atoms: C_8  and  N_9
REMARK                            x       y       z     vdW  Elec       q    Type
REMARK                         _______ _______ _______ _____ _____    ______ ____
ROOT
ATOM      9  N   UNL     1      -3.047   1.868  24.967  0.00  0.00    -0.159 NA
ATOM     10  C   UNL     1      -2.388   1.985  24.485  0.00  0.00    +0.328 C 
ATOM     11  O   UNL     1      -2.277   2.710  24.108  0.00  0.00    -0.250 OA
ATOM     12  N   UNL     1      -1.840   1.377  24.379  0.00  0.00    -0.259 N 
ATOM     13  C   UNL     1      -1.181   1.495  23.897  0.00  0.00    +0.117 C 
ATOM     14  C   UNL     1      -0.633   0.887  23.792  0.00  0.00    +0.117 C 
ATOM     15  N   UNL     1      -0.744   0.162  24.169  0.00  0.00    -0.259 N 
ATOM     16  C   UNL     1      -1.403   0.044  24.651  0.00  0.00    +0.118 C 
ATOM     17  C   UNL     1      -1.367  -0.724  24.950  0.00  0.00    +0.138 C 
ATOM     18  N   UNL     1      -0.686  -1.081  24.652  0.00  0.00    -0.187 NA
ATOM     19  C   UNL     1      -0.302  -0.534  24.170  0.00  0.00    +0.323 C 
ATOM     20  O   UNL     1       0.404  -0.660  23.760  0.00  0.00    -0.251 OA
ATOM     21  C   UNL     1      -1.952   0.652  24.757  0.00  0.00    +0.117 C 
ENDROOT
BRANCH   9   8
ATOM      3  C   UNL     1      -4.402   2.305  25.084  0.00  0.00    +0.154 A 
ATOM      4  C   UNL     1      -4.951   2.913  25.189  0.00  0.00    +0.038 A 
ATOM      5  C   UNL     1      -4.691   3.691  25.282  0.00  0.00    +0.003 A 
ATOM      6  C   UNL     1      -3.884   3.861  25.270  0.00  0.00    +0.002 A 
ATOM      7  C   UNL     1      -3.336   3.253  25.165  0.00  0.00    +0.020 A 
ATOM      8  C   UNL     1      -3.595   2.475  25.072  0.00  0.00    +0.109 A 
BRANCH   3   2
ATOM      1  C   UNL     1      -5.464   1.348  25.067  0.00  0.00    +0.253 C 
ATOM      2  O   UNL     1      -4.662   1.528  24.991  0.00  0.00    -0.470 OA
ENDBRANCH   3   2
ENDBRANCH   9   8
TORSDOF 2
ENDMDL
