MODEL 1
REMARK VINA RESULT:     -12.2      0.000      0.000
REMARK  Name = 
REMARK  8 active torsions:
REMARK  status: ('A' for Active; 'I' for Inactive)
REMARK    1  A    between atoms: C_4  and  C_5
REMARK    2  A    between atoms: C_5  and  C_6
REMARK    3  A    between atoms: C_9  and  C_10
REMARK    4  A    between atoms: C_10  and  O_11
REMARK    5  A    between atoms: O_11  and  C_12
REMARK    6  A    between atoms: C_20  and  N_21
REMARK    7  A    between atoms: N_24  and  C_25
REMARK    8  A    between atoms: C_25  and  C_26
REMARK                            x       y       z     vdW  Elec       q    Type
REMARK                         _______ _______ _______ _____ _____    ______ ____
ROOT
ATOM      1  C   UNL     1      -5.867   2.893  25.471  0.00  0.00    +0.002 C 
ATOM      2  C   UNL     1      -5.353   2.279  25.271  0.00  0.00    +0.019 C 
ATOM      3  C   UNL     1      -5.992   1.761  25.216  0.00  0.00    +0.002 C 
ATOM      4  C   UNL     1      -4.713   2.798  25.325  0.00  0.00    +0.009 C 
ATOM     19  C   UNL     1      -4.199   2.184  25.125  0.00  0.00    +0.022 C 
ATOM     20  C   UNL     1      -4.838   1.666  25.071  0.00  0.00    +0.097 C 
ENDROOT
BRANCH  20  21
ATOM     21  N   UNL     1      -4.926   0.866  24.891  0.00  0.00    -0.189 NA
ATOM     22  C   UNL     1      -4.267   0.414  24.687  0.00  0.00    +0.340 C 
ATOM     23  O   UNL     1      -3.519   0.761  24.664  0.00  0.00    -0.249 OA
ATOM     24  N   UNL     1      -4.356  -0.386  24.508  0.00  0.00    -0.182 NA
BRANCH  24  25
ATOM     25  C   UNL     1      -3.696  -0.839  24.304  0.00  0.00    +0.143 C 
BRANCH  25  26
ATOM     26  C   UNL     1      -3.745  -1.663  24.303  0.00  0.00    -0.001 A 
ATOM     27  C   UNL     1      -3.308  -2.102  24.847  0.00  0.00    -0.003 A 
ATOM     28  C   UNL     1      -3.357  -2.926  24.847  0.00  0.00    -0.000 A 
ATOM     29  C   UNL     1      -3.843  -3.310  24.303  0.00  0.00    -0.000 A 
ATOM     30  C   UNL     1      -4.280  -2.871  23.758  0.00  0.00    -0.000 A 
ATOM     31  C   UNL     1      -4.231  -2.046  23.758  0.00  0.00    -0.003 A 
ENDBRANCH  25  26
ENDBRANCH  24  25
ENDBRANCH  20  21
BRANCH   4   5
ATOM      5  C   UNL     1      -4.624   3.598  25.505  0.00  0.00    +0.049 C 
BRANCH   5   6
ATOM      6  C   UNL     1      -3.880   3.898  25.695  0.00  0.00    +0.100 A 
ATOM      7  N   UNL     1      -3.684   4.309  26.384  0.00  0.00    -0.082 NA
ATOM      8  O   UNL     1      -2.883   4.505  26.345  0.00  0.00    -0.354 OA
ATOM      9  C   UNL     1      -2.585   4.215  25.633  0.00  0.00    +0.198 A 
ATOM     18  C   UNL     1      -3.200   3.840  25.232  0.00  0.00    +0.057 A 
BRANCH   9  10
ATOM     10  C   UNL     1      -1.807   4.288  25.369  0.00  0.00    +0.272 C 
BRANCH  10  11
ATOM     11  O   UNL     1      -1.196   3.913  25.776  0.00  0.00    -0.467 OA
BRANCH  11  12
ATOM     12  C   UNL     1      -0.677   3.412  25.374  0.00  0.00    +0.139 A 
ATOM     13  C   UNL     1      -0.447   3.589  24.602  0.00  0.00    +0.037 A 
ATOM     14  C   UNL     1       0.071   3.089  24.200  0.00  0.00    +0.003 A 
ATOM     15  C   UNL     1       0.359   2.410  24.571  0.00  0.00    +0.000 A 
ATOM     16  C   UNL     1       0.130   2.233  25.343  0.00  0.00    +0.003 A 
ATOM     17  C   UNL     1      -0.389   2.734  25.745  0.00  0.00    +0.037 A 
ENDBRANCH  11  12
ENDBRANCH  10  11
ENDBRANCH   9  10
ENDBRANCH   5   6
ENDBRANCH   4   5
TORSDOF 8
ENDMDL
MODEL 2
REMARK VINA RESULT:     -11.8      2.355      5.435
REMARK  Name = 
REMARK  8 active torsions:
REMARK  status: ('A' for Active; 'I' for Inactive)
REMARK    1  A    between atoms: C_4  and  C_5
REMARK    2  A    between atoms: C_5  and  C_6
REMARK    3  A    between atoms: C_9  and  C_10
REMARK    4  A    between atoms: C_10  and  O_11
REMARK    5  A    between atoms: O_11  and  C_12
REMARK    6  A    between atoms: C_20  and  N_21
REMARK    7  A    between atoms: N_24  and  C_25
REMARK    8  A    between atoms: C_25  and  C_26
REMARK                            x       y       z     vdW  Elec       q    Type
REMARK                         _______ _______ _______ _____ _____    ______ ____
ROOT
ATOM      1  C   UNL     1      -2.255  -2.615  24.962  0.00  0.00    +0.002 C 
ATOM      2  C   UNL     1      -1.782  -1.985  24.714  0.00  0.00    +0.019 C 
ATOM      3  C   UNL     1      -1.145  -2.500  24.620  0.00  0.00    +0.002 C 
ATOM      4  C   UNL     1      -2.421  -1.470  24.809  0.00  0.00    +0.009 C 
ATOM     19  C   UNL     1      -1.948  -0.840  24.562  0.00  0.00    +0.022 C 
ATOM     20  C   UNL     1      -1.311  -1.355  24.467  0.00  0.00    +0.097 C 
ENDROOT
BRANCH  20  21
ATOM     21  N   UNL     1      -0.526  -1.273  24.226  0.00  0.00    -0.189 NA
ATOM     22  C   UNL     1      -0.274  -0.570  23.876  0.00  0.00    +0.340 C 
ATOM     23  O   UNL     1      -0.805   0.052  23.768  0.00  0.00    -0.249 OA
ATOM     24  N   UNL     1       0.511  -0.489  23.635  0.00  0.00    -0.182 NA
BRANCH  24  25
ATOM     25  C   UNL     1       0.764   0.215  23.285  0.00  0.00    +0.143 C 
BRANCH  25  26
ATOM     26  C   UNL     1       1.534   0.278  22.996  0.00  0.00    -0.001 A 
ATOM     27  C   UNL     1       1.766  -0.166  22.341  0.00  0.00    -0.003 A 
ATOM     28  C   UNL     1       2.537  -0.103  22.052  0.00  0.00    -0.000 A 
ATOM     29  C   UNL     1       3.074   0.404  22.417  0.00  0.00    -0.000 A 
ATOM     30  C   UNL     1       2.843   0.849  23.073  0.00  0.00    -0.000 A 
ATOM     31  C   UNL     1       2.072   0.786  23.362  0.00  0.00    -0.003 A 
ENDBRANCH  25  26
ENDBRANCH  24  25
ENDBRANCH  20  21
BRANCH   4   5
ATOM      5  C   UNL     1      -3.205  -1.552  25.051  0.00  0.00    +0.049 C 
BRANCH   5   6
ATOM      6  C   UNL     1      -3.756  -0.967  24.866  0.00  0.00    +0.100 A 
ATOM      7  N   UNL     1      -4.278  -0.975  24.227  0.00  0.00    -0.082 NA
ATOM      8  O   UNL     1      -4.727  -0.284  24.254  0.00  0.00    -0.354 OA
ATOM      9  C   UNL     1      -4.483   0.153  24.910  0.00  0.00    +0.198 A 
ATOM     18  C   UNL     1      -3.883  -0.269  25.288  0.00  0.00    +0.057 A 
BRANCH   9  10
ATOM     10  C   UNL     1      -4.786   0.882  25.146  0.00  0.00    +0.272 C 
BRANCH  10  11
ATOM     11  O   UNL     1      -4.795   1.516  24.617  0.00  0.00    -0.467 OA
BRANCH  11  12
ATOM     12  C   UNL     1      -4.880   2.287  24.899  0.00  0.00    +0.139 A 
ATOM     13  C   UNL     1      -4.322   2.862  24.701  0.00  0.00    +0.037 A 
ATOM     14  C   UNL     1      -4.407   3.633  24.982  0.00  0.00    +0.003 A 
ATOM     15  C   UNL     1      -5.050   3.829  25.461  0.00  0.00    +0.000 A 
ATOM     16  C   UNL     1      -5.607   3.254  25.659  0.00  0.00    +0.003 A 
ATOM     17  C   UNL     1      -5.522   2.483  25.378  0.00  0.00    +0.037 A 
ENDBRANCH  11  12
ENDBRANCH  10  11
ENDBRANCH   9  10
ENDBRANCH   5   6
ENDBRANCH   4   5
TORSDOF 8
ENDMDL
MODEL 3
REMARK VINA RESULT:     -11.2      1.317      3.508
REMARK  Name = 
REMARK  8 active torsions:
REMARK  status: ('A' for Active; 'I' for Inactive)
REMARK    1  A    between atoms: C_4  and  C_5
REMARK    2  A    between atoms: C_5  and  C_6
REMARK    3  A    between atoms: C_9  and  C_10
REMARK    4  A    between atoms: C_10  and  O_11
REMARK    5  A    between atoms: O_11  and  C_12
REMARK    6  A    between atoms: C_20  and  N_21
REMARK    7  A    between atoms: N_24  and  C_25
REMARK    8  A    between atoms: C_25  and  C_26
REMARK                            x       y       z     vdW  Elec       q    Type
REMARK                         _______ _______ _______ _____ _____    ______ ____
ROOT
ATOM      1  C   UNL     1       0.397   1.851  24.366  0.00  0.00    +0.002 C 
ATOM      2  C   UNL     1      -0.221   1.370  24.625  0.00  0.00    +0.019 C 
ATOM      3  C   UNL     1       0.074   0.746  24.174  0.00  0.00    +0.002 C 
ATOM      4  C   UNL     1      -0.517   1.995  25.077  0.00  0.00    +0.009 C 
ATOM     19  C   UNL     1      -1.135   1.515  25.336  0.00  0.00    +0.022 C 
ATOM     20  C   UNL     1      -0.840   0.891  24.885  0.00  0.00    +0.097 C 
ENDROOT
BRANCH  20  21
ATOM     21  N   UNL     1      -1.069   0.110  24.750  0.00  0.00    -0.189 NA
ATOM     22  C   UNL     1      -1.791  -0.164  25.038  0.00  0.00    +0.340 C 
ATOM     23  O   UNL     1      -2.286   0.342  25.462  0.00  0.00    -0.249 OA
ATOM     24  N   UNL     1      -2.020  -0.945  24.902  0.00  0.00    -0.182 NA
BRANCH  24  25
ATOM     25  C   UNL     1      -2.743  -1.219  25.191  0.00  0.00    +0.143 C 
BRANCH  25  26
ATOM     26  C   UNL     1      -3.160  -1.799  24.776  0.00  0.00    -0.001 A 
ATOM     27  C   UNL     1      -2.943  -2.591  24.845  0.00  0.00    -0.003 A 
ATOM     28  C   UNL     1      -3.360  -3.171  24.430  0.00  0.00    -0.000 A 
ATOM     29  C   UNL     1      -3.993  -2.957  23.948  0.00  0.00    -0.000 A 
ATOM     30  C   UNL     1      -4.211  -2.164  23.878  0.00  0.00    -0.000 A 
ATOM     31  C   UNL     1      -3.794  -1.584  24.293  0.00  0.00    -0.003 A 
ENDBRANCH  25  26
ENDBRANCH  24  25
ENDBRANCH  20  21
BRANCH   4   5
ATOM      5  C   UNL     1      -0.288   2.776  25.212  0.00  0.00    +0.049 C 
BRANCH   5   6
ATOM      6  C   UNL     1      -0.857   3.371  25.254  0.00  0.00    +0.100 A 
ATOM      7  N   UNL     1      -0.726   4.178  25.137  0.00  0.00    -0.082 NA
ATOM      8  O   UNL     1      -1.446   4.569  25.230  0.00  0.00    -0.354 OA
ATOM      9  C   UNL     1      -2.022   4.006  25.405  0.00  0.00    +0.198 A 
ATOM     18  C   UNL     1      -1.658   3.266  25.419  0.00  0.00    +0.057 A 
BRANCH   9  10
ATOM     10  C   UNL     1      -2.821   4.157  25.541  0.00  0.00    +0.272 C 
BRANCH  10  11
ATOM     11  O   UNL     1      -3.370   4.050  24.935  0.00  0.00    -0.467 OA
BRANCH  11  12
ATOM     12  C   UNL     1      -4.099   3.696  25.095  0.00  0.00    +0.139 A 
ATOM     13  C   UNL     1      -4.342   3.038  24.662  0.00  0.00    +0.037 A 
ATOM     14  C   UNL     1      -5.070   2.684  24.822  0.00  0.00    +0.003 A 
ATOM     15  C   UNL     1      -5.555   2.989  25.416  0.00  0.00    +0.000 A 
ATOM     16  C   UNL     1      -5.311   3.647  25.849  0.00  0.00    +0.003 A 
ATOM     17  C   UNL     1      -4.583   4.001  25.689  0.00  0.00    +0.037 A 
ENDBRANCH  11  12
ENDBRANCH  10  11
ENDBRANCH   9  10
ENDBRANCH   5   6
ENDBRANCH   4   5
TORSDOF 8
ENDMDL
MODEL 4
REMARK VINA RESULT:     -11.1      1.573      5.220
REMARK  Name = 
REMARK  8 active torsions:
REMARK  status: ('A' for Active; 'I' for Inactive)
REMARK    1  A    between atoms: C_4  and  C_5
REMARK    2  A    between atoms: C_5  and  C_6
REMARK    3  A    between atoms: C_9  and  C_10
REMARK    4  A    between atoms: C_10  and  O_11
REMARK    5  A    between atoms: O_11  and  C_12
REMARK    6  A    between atoms: C_20  and  N_21
REMARK    7  A    between atoms: N_24  and  C_25
REMARK    8  A    between atoms: C_25  and  C_26
REMARK                            x       y       z     vdW  Elec       q    Type
REMARK                         _______ _______ _______ _____ _____    ______ ____
ROOT
ATOM      1  C   UNL     1      -5.852   1.516  25.076  0.00  0.00    +0.002 C 
ATOM      2  C   UNL     1      -5.086   1.818  25.025  0.00  0.00    +0.019 C 
ATOM      3  C   UNL     1      -5.376   2.579  25.150  0.00  0.00    +0.002 C 
ATOM      4  C   UNL     1      -4.795   1.055  24.900  0.00  0.00    +0.009 C 
ATOM     19  C   UNL     1      -4.028   1.356  24.849  0.00  0.00    +0.022 C 
ATOM     20  C   UNL     1      -4.319   2.118  24.974  0.00  0.00    +0.097 C 
ENDROOT
BRANCH  20  21
ATOM     21  N   UNL     1      -3.983   2.869  25.026  0.00  0.00    -0.189 NA
ATOM     22  C   UNL     1      -3.200   2.954  25.271  0.00  0.00    +0.340 C 
ATOM     23  O   UNL     1      -2.753   2.288  25.464  0.00  0.00    -0.249 OA
ATOM     24  N   UNL     1      -2.864   3.706  25.323  0.00  0.00    -0.182 NA
BRANCH  24  25
ATOM     25  C   UNL     1      -2.080   3.791  25.569  0.00  0.00    +0.143 C 
BRANCH  25  26
ATOM     26  C   UNL     1      -1.618   4.405  25.268  0.00  0.00    -0.001 A 
ATOM     27  C   UNL     1      -0.878   4.243  24.943  0.00  0.00    -0.003 A 
ATOM     28  C   UNL     1      -0.415   4.857  24.642  0.00  0.00    -0.000 A 
ATOM     29  C   UNL     1      -0.694   5.633  24.666  0.00  0.00    -0.000 A 
ATOM     30  C   UNL     1      -1.435   5.796  24.991  0.00  0.00    -0.000 A 
ATOM     31  C   UNL     1      -1.897   5.181  25.292  0.00  0.00    -0.003 A 
ENDBRANCH  25  26
ENDBRANCH  24  25
ENDBRANCH  20  21
BRANCH   4   5
ATOM      5  C   UNL     1      -5.131   0.304  24.848  0.00  0.00    +0.049 C 
BRANCH   5   6
ATOM      6  C   UNL     1      -4.682  -0.331  24.576  0.00  0.00    +0.100 A 
ATOM      7  N   UNL     1      -4.818  -0.763  23.885  0.00  0.00    -0.082 NA
ATOM      8  O   UNL     1      -4.237  -1.345  23.829  0.00  0.00    -0.354 OA
ATOM      9  C   UNL     1      -3.740  -1.274  24.483  0.00  0.00    +0.198 A 
ATOM     18  C   UNL     1      -4.015  -0.648  24.945  0.00  0.00    +0.057 A 
BRANCH   9  10
ATOM     10  C   UNL     1      -3.085  -1.746  24.647  0.00  0.00    +0.272 C 
BRANCH  10  11
ATOM     11  O   UNL     1      -2.397  -1.668  24.198  0.00  0.00    -0.467 OA
BRANCH  11  12
ATOM     12  C   UNL     1      -1.658  -1.752  24.557  0.00  0.00    +0.139 A 
ATOM     13  C   UNL     1      -1.444  -2.472  24.896  0.00  0.00    +0.037 A 
ATOM     14  C   UNL     1      -0.706  -2.557  25.254  0.00  0.00    +0.003 A 
ATOM     15  C   UNL     1      -0.181  -1.920  25.272  0.00  0.00    +0.000 A 
ATOM     16  C   UNL     1      -0.395  -1.199  24.933  0.00  0.00    +0.003 A 
ATOM     17  C   UNL     1      -1.134  -1.115  24.575  0.00  0.00    +0.037 A 
ENDBRANCH  11  12
ENDBRANCH  10  11
ENDBRANCH   9  10
ENDBRANCH   5   6
ENDBRANCH   4   5
TORSDOF 8
ENDMDL
MODEL 5
REMARK VINA RESULT:     -11.0      3.237      5.366
REMARK  Name = 
REMARK  8 active torsions:
REMARK  status: ('A' for Active; 'I' for Inactive)
REMARK    1  A    between atoms: C_4  and  C_5
REMARK    2  A    between atoms: C_5  and  C_6
REMARK    3  A    between atoms: C_9  and  C_10
REMARK    4  A    between atoms: C_10  and  O_11
REMARK    5  A    between atoms: O_11  and  C_12
REMARK    6  A    between atoms: C_20  and  N_21
REMARK    7  A    between atoms: N_24  and  C_25
REMARK    8  A    between atoms: C_25  and  C_26
REMARK                            x       y       z     vdW  Elec       q    Type
REMARK                         _______ _______ _______ _____ _____    ______ ____
ROOT
ATOM      1  C   UNL     1      -1.123  -1.548  25.003  0.00  0.00    +0.002 C 
ATOM      2  C   UNL     1      -1.460  -0.802  24.897  0.00  0.00    +0.019 C 
ATOM      3  C   UNL     1      -2.055  -0.994  25.435  0.00  0.00    +0.002 C 
ATOM      4  C   UNL     1      -0.864  -0.610  24.359  0.00  0.00    +0.009 C 
ATOM     19  C   UNL     1      -1.200   0.136  24.254  0.00  0.00    +0.022 C 
ATOM     20  C   UNL     1      -1.796  -0.056  24.791  0.00  0.00    +0.097 C 
ENDROOT
BRANCH  20  21
ATOM     21  N   UNL     1      -2.454   0.336  25.096  0.00  0.00    -0.189 NA
ATOM     22  C   UNL     1      -2.787   0.967  24.683  0.00  0.00    +0.340 C 
ATOM     23  O   UNL     1      -2.461   1.207  23.964  0.00  0.00    -0.249 OA
ATOM     24  N   UNL     1      -3.446   1.358  24.988  0.00  0.00    -0.182 NA
BRANCH  24  25
ATOM     25  C   UNL     1      -3.779   1.990  24.575  0.00  0.00    +0.143 C 
BRANCH  25  26
ATOM     26  C   UNL     1      -4.396   2.424  24.910  0.00  0.00    -0.001 A 
ATOM     27  C   UNL     1      -5.130   2.068  25.032  0.00  0.00    -0.003 A 
ATOM     28  C   UNL     1      -5.747   2.502  25.368  0.00  0.00    -0.000 A 
ATOM     29  C   UNL     1      -5.630   3.290  25.580  0.00  0.00    -0.000 A 
ATOM     30  C   UNL     1      -4.896   3.646  25.458  0.00  0.00    -0.000 A 
ATOM     31  C   UNL     1      -4.278   3.212  25.122  0.00  0.00    -0.003 A 
ENDBRANCH  25  26
ENDBRANCH  24  25
ENDBRANCH  20  21
BRANCH   4   5
ATOM      5  C   UNL     1      -0.205  -1.001  24.054  0.00  0.00    +0.049 C 
BRANCH   5   6
ATOM      6  C   UNL     1       0.320  -0.601  23.560  0.00  0.00    +0.100 A 
ATOM      7  N   UNL     1       0.169  -0.356  22.786  0.00  0.00    -0.082 NA
ATOM      8  O   UNL     1       0.844   0.021  22.501  0.00  0.00    -0.354 OA
ATOM      9  C   UNL     1       1.413   0.010  23.097  0.00  0.00    +0.198 A 
ATOM     18  C   UNL     1       1.090  -0.374  23.752  0.00  0.00    +0.057 A 
BRANCH   9  10
ATOM     10  C   UNL     1       2.173   0.328  23.048  0.00  0.00    +0.272 C 
BRANCH  10  11
ATOM     11  O   UNL     1       2.792  -0.129  22.751  0.00  0.00    -0.467 OA
BRANCH  11  12
ATOM     12  C   UNL     1       3.574   0.068  22.932  0.00  0.00    +0.139 A 
ATOM     13  C   UNL     1       3.878   0.800  22.706  0.00  0.00    +0.037 A 
ATOM     14  C   UNL     1       4.659   0.996  22.886  0.00  0.00    +0.003 A 
ATOM     15  C   UNL     1       5.135   0.459  23.294  0.00  0.00    +0.000 A 
ATOM     16  C   UNL     1       4.830  -0.273  23.520  0.00  0.00    +0.003 A 
ATOM     17  C   UNL     1       4.049  -0.469  23.340  0.00  0.00    +0.037 A 
ENDBRANCH  11  12
ENDBRANCH  10  11
ENDBRANCH   9  10
ENDBRANCH   5   6
ENDBRANCH   4   5
TORSDOF 8
ENDMDL
MODEL 6
REMARK VINA RESULT:     -11.0      2.673      5.764
REMARK  Name = 
REMARK  8 active torsions:
REMARK  status: ('A' for Active; 'I' for Inactive)
REMARK    1  A    between atoms: C_4  and  C_5
REMARK    2  A    between atoms: C_5  and  C_6
REMARK    3  A    between atoms: C_9  and  C_10
REMARK    4  A    between atoms: C_10  and  O_11
REMARK    5  A    between atoms: O_11  and  C_12
REMARK    6  A    between atoms: C_20  and  N_21
REMARK    7  A    between atoms: N_24  and  C_25
REMARK    8  A    between atoms: C_25  and  C_26
REMARK                            x       y       z     vdW  Elec       q    Type
REMARK                         _______ _______ _______ _____ _____    ______ ____
ROOT
ATOM      1  C   UNL     1      -0.922   2.979  25.806  0.00  0.00    +0.002 C 
ATOM      2  C   UNL     1      -0.507   2.551  25.235  0.00  0.00    +0.019 C 
ATOM      3  C   UNL     1       0.205   2.826  25.545  0.00  0.00    +0.002 C 
ATOM      4  C   UNL     1      -1.221   2.275  24.924  0.00  0.00    +0.009 C 
ATOM     19  C   UNL     1      -0.807   1.847  24.353  0.00  0.00    +0.022 C 
ATOM     20  C   UNL     1      -0.094   2.122  24.664  0.00  0.00    +0.097 C 
ENDROOT
BRANCH  20  21
ATOM     21  N   UNL     1       0.703   2.014  24.479  0.00  0.00    -0.189 NA
ATOM     22  C   UNL     1       0.923   1.456  23.914  0.00  0.00    +0.340 C 
ATOM     23  O   UNL     1       0.346   1.005  23.532  0.00  0.00    -0.249 OA
ATOM     24  N   UNL     1       1.719   1.347  23.730  0.00  0.00    -0.182 NA
BRANCH  24  25
ATOM     25  C   UNL     1       1.940   0.788  23.164  0.00  0.00    +0.143 C 
BRANCH  25  26
ATOM     26  C   UNL     1       2.738   0.627  23.033  0.00  0.00    -0.001 A 
ATOM     27  C   UNL     1       3.253   1.235  22.821  0.00  0.00    -0.003 A 
ATOM     28  C   UNL     1       4.052   1.074  22.690  0.00  0.00    -0.000 A 
ATOM     29  C   UNL     1       4.335   0.304  22.771  0.00  0.00    -0.000 A 
ATOM     30  C   UNL     1       3.821  -0.306  22.982  0.00  0.00    -0.000 A 
ATOM     31  C   UNL     1       3.021  -0.144  23.113  0.00  0.00    -0.003 A 
ENDBRANCH  25  26
ENDBRANCH  24  25
ENDBRANCH  20  21
BRANCH   4   5
ATOM      5  C   UNL     1      -2.018   2.384  25.109  0.00  0.00    +0.049 C 
BRANCH   5   6
ATOM      6  C   UNL     1      -2.589   1.892  24.774  0.00  0.00    +0.100 A 
ATOM      7  N   UNL     1      -3.124   2.101  24.182  0.00  0.00    -0.082 NA
ATOM      8  O   UNL     1      -3.591   1.442  24.015  0.00  0.00    -0.354 OA
ATOM      9  C   UNL     1      -3.346   0.825  24.504  0.00  0.00    +0.198 A 
ATOM     18  C   UNL     1      -2.727   1.103  24.973  0.00  0.00    +0.057 A 
BRANCH   9  10
ATOM     10  C   UNL     1      -3.663   0.065  24.520  0.00  0.00    +0.272 C 
BRANCH  10  11
ATOM     11  O   UNL     1      -3.375  -0.514  24.009  0.00  0.00    -0.467 OA
BRANCH  11  12
ATOM     12  C   UNL     1      -3.557  -1.309  24.139  0.00  0.00    +0.139 A 
ATOM     13  C   UNL     1      -4.187  -1.659  23.737  0.00  0.00    +0.037 A 
ATOM     14  C   UNL     1      -4.369  -2.452  23.867  0.00  0.00    +0.003 A 
ATOM     15  C   UNL     1      -3.922  -2.897  24.400  0.00  0.00    +0.000 A 
ATOM     16  C   UNL     1      -3.293  -2.547  24.802  0.00  0.00    +0.003 A 
ATOM     17  C   UNL     1      -3.110  -1.752  24.671  0.00  0.00    +0.037 A 
ENDBRANCH  11  12
ENDBRANCH  10  11
ENDBRANCH   9  10
ENDBRANCH   5   6
ENDBRANCH   4   5
TORSDOF 8
ENDMDL
