MODEL 1
REMARK VINA RESULT:     -14.7      0.000      0.000
REMARK  Name = 
REMARK  5 active torsions:
REMARK  status: ('A' for Active; 'I' for Inactive)
REMARK    1  A    between atoms: N_3  and  C_4
REMARK    2  A    between atoms: N_10  and  C_11
REMARK    3  A    between atoms: C_21  and  C_23
REMARK    4  A    between atoms: C_23  and  O_24
REMARK    5  A    between atoms: O_24  and  C_25
REMARK                            x       y       z     vdW  Elec       q    Type
REMARK                         _______ _______ _______ _____ _____    ______ ____
ROOT
ATOM     11  C   UNL     1      -3.892   1.304  24.822  0.00  0.00    +0.131 A 
ATOM     12  C   UNL     1      -4.674   1.109  24.999  0.00  0.00    +0.023 A 
ATOM     13  C   UNL     1      -5.202   1.698  25.234  0.00  0.00    +0.014 A 
ATOM     14  C   UNL     1      -4.949   2.480  25.291  0.00  0.00    +0.041 A 
ATOM     15  C   UNL     1      -5.260   3.318  25.508  0.00  0.00    +0.058 C 
ATOM     16  C   UNL     1      -5.841   3.652  25.716  0.00  0.00    +0.011 C 
ATOM     17  C   UNL     1      -5.068   3.840  25.540  0.00  0.00    +0.043 C 
ATOM     18  C   UNL     1      -4.190   4.261  25.373  0.00  0.00    +0.095 C 
ATOM     19  N   UNL     1      -3.752   3.586  25.148  0.00  0.00    -0.276 N 
ATOM     20  C   UNL     1      -4.418   3.739  25.351  0.00  0.00    +0.099 C 
ATOM     21  C   UNL     1      -3.106   3.133  24.904  0.00  0.00    +0.270 C 
ATOM     22  O   UNL     1      -2.378   3.495  24.767  0.00  0.00    -0.271 OA
ATOM     31  C   UNL     1      -4.734   2.970  25.312  0.00  0.00    +0.110 C 
ATOM     32  N   UNL     1      -4.167   2.675  25.114  0.00  0.00    -0.298 N 
ATOM     33  C   UNL     1      -3.638   2.086  24.879  0.00  0.00    +0.276 A 
ATOM     34  O   UNL     1      -2.913   1.778  24.636  0.00  0.00    -0.266 OA
ENDROOT
BRANCH  11  10
ATOM      1  O   UNL     1      -4.346  -0.282  24.879  0.00  0.00    -0.249 OA
ATOM      2  C   UNL     1      -3.591  -0.078  24.615  0.00  0.00    +0.344 C 
ATOM      3  N   UNL     1      -3.062  -0.667  24.380  0.00  0.00    -0.189 NA
ATOM     10  N   UNL     1      -3.365   0.715  24.587  0.00  0.00    -0.156 NA
BRANCH   3   4
ATOM      4  C   UNL     1      -3.289  -1.459  24.409  0.00  0.00    +0.097 C 
ATOM      5  C   UNL     1      -2.992  -1.952  25.000  0.00  0.00    +0.022 C 
ATOM      6  C   UNL     1      -3.219  -2.744  25.029  0.00  0.00    +0.002 C 
ATOM      7  C   UNL     1      -3.742  -3.044  24.466  0.00  0.00    +0.000 C 
ATOM      8  C   UNL     1      -4.039  -2.552  23.874  0.00  0.00    +0.002 C 
ATOM      9  C   UNL     1      -3.812  -1.759  23.846  0.00  0.00    +0.022 C 
ENDBRANCH   3   4
ENDBRANCH  11  10
BRANCH  21  23
ATOM     23  C   UNL     1      -3.190   2.319  24.796  0.00  0.00    +0.290 C 
BRANCH  23  24
ATOM     24  O   UNL     1      -2.573   1.882  24.468  0.00  0.00    -0.466 OA
BRANCH  24  25
ATOM     25  C   UNL     1      -1.791   2.071  24.646  0.00  0.00    +0.139 A 
ATOM     26  C   UNL     1      -1.308   2.412  24.070  0.00  0.00    +0.037 A 
ATOM     27  C   UNL     1      -0.524   2.602  24.248  0.00  0.00    +0.003 A 
ATOM     28  C   UNL     1      -0.225   2.452  25.002  0.00  0.00    +0.000 A 
ATOM     29  C   UNL     1      -0.708   2.111  25.578  0.00  0.00    +0.003 A 
ATOM     30  C   UNL     1      -1.491   1.921  25.399  0.00  0.00    +0.037 A 
ENDBRANCH  24  25
ENDBRANCH  23  24
ENDBRANCH  21  23
TORSDOF 5
ENDMDL
MODEL 2
REMARK VINA RESULT:     -14.2      0.982      2.887
REMARK  Name = 
REMARK  5 active torsions:
REMARK  status: ('A' for Active; 'I' for Inactive)
REMARK    1  A    between atoms: N_3  and  C_4
REMARK    2  A    between atoms: N_10  and  C_11
REMARK    3  A    between atoms: C_21  and  C_23
REMARK    4  A    between atoms: C_23  and  O_24
REMARK    5  A    between atoms: O_24  and  C_25
REMARK                            x       y       z     vdW  Elec       q    Type
REMARK                         _______ _______ _______ _____ _____    ______ ____
ROOT
ATOM     11  C   UNL     1      -2.366   1.137  25.073  0.00  0.00    +0.131 A 
ATOM     12  C   UNL     1      -1.687   0.698  25.236  0.00  0.00    +0.023 A 
ATOM     13  C   UNL     1      -0.982   1.082  25.423  0.00  0.00    +0.014 A 
ATOM     14  C   UNL     1      -0.956   1.906  25.448  0.00  0.00    +0.041 A 
ATOM     15  C   UNL     1      -0.372   2.597  25.611  0.00  0.00    +0.058 C 
ATOM     16  C   UNL     1       0.296   2.724  25.783  0.00  0.00    +0.011 C 
ATOM     17  C   UNL     1      -0.376   3.155  25.622  0.00  0.00    +0.043 C 
ATOM     18  C   UNL     1      -1.070   3.840  25.462  0.00  0.00    +0.095 C 
ATOM     19  N   UNL     1      -1.719   3.344  25.287  0.00  0.00    -0.276 N 
ATOM     20  C   UNL     1      -1.032   3.271  25.459  0.00  0.00    +0.099 C 
ATOM     21  C   UNL     1      -2.490   3.126  25.087  0.00  0.00    +0.270 C 
ATOM     22  O   UNL     1      -3.061   3.706  24.955  0.00  0.00    -0.271 OA
ATOM     31  C   UNL     1      -0.993   2.440  25.450  0.00  0.00    +0.110 C 
ATOM     32  N   UNL     1      -1.635   2.346  25.285  0.00  0.00    -0.298 N 
ATOM     33  C   UNL     1      -2.341   1.961  25.098  0.00  0.00    +0.276 A 
ATOM     34  O   UNL     1      -3.138   1.906  24.895  0.00  0.00    -0.266 OA
ENDROOT
BRANCH  11  10
ATOM      1  O   UNL     1      -2.388  -0.503  24.893  0.00  0.00    -0.249 OA
ATOM      2  C   UNL     1      -3.082  -0.068  24.796  0.00  0.00    +0.344 C 
ATOM      3  N   UNL     1      -3.788  -0.453  24.609  0.00  0.00    -0.189 NA
ATOM     10  N   UNL     1      -3.071   0.752  24.886  0.00  0.00    -0.156 NA
BRANCH   3   4
ATOM      4  C   UNL     1      -3.799  -1.273  24.519  0.00  0.00    +0.097 C 
ATOM      5  C   UNL     1      -3.576  -1.760  25.146  0.00  0.00    +0.022 C 
ATOM      6  C   UNL     1      -3.587  -2.580  25.056  0.00  0.00    +0.002 C 
ATOM      7  C   UNL     1      -3.821  -2.913  24.339  0.00  0.00    +0.000 C 
ATOM      8  C   UNL     1      -4.045  -2.426  23.711  0.00  0.00    +0.002 C 
ATOM      9  C   UNL     1      -4.034  -1.606  23.801  0.00  0.00    +0.022 C 
ENDBRANCH   3   4
ENDBRANCH  11  10
BRANCH  21  23
ATOM     23  C   UNL     1      -2.688   2.328  25.019  0.00  0.00    +0.290 C 
BRANCH  23  24
ATOM     24  O   UNL     1      -3.435   2.111  24.743  0.00  0.00    -0.466 OA
BRANCH  24  25
ATOM     25  C   UNL     1      -4.099   2.549  24.961  0.00  0.00    +0.139 A 
ATOM     26  C   UNL     1      -4.456   3.055  24.415  0.00  0.00    +0.037 A 
ATOM     27  C   UNL     1      -5.121   3.494  24.632  0.00  0.00    +0.003 A 
ATOM     28  C   UNL     1      -5.428   3.426  25.395  0.00  0.00    +0.000 A 
ATOM     29  C   UNL     1      -5.070   2.920  25.941  0.00  0.00    +0.003 A 
ATOM     30  C   UNL     1      -4.406   2.482  25.723  0.00  0.00    +0.037 A 
ENDBRANCH  24  25
ENDBRANCH  23  24
ENDBRANCH  21  23
TORSDOF 5
ENDMDL
MODEL 3
REMARK VINA RESULT:     -13.5      1.148      1.370
REMARK  Name = 
REMARK  5 active torsions:
REMARK  status: ('A' for Active; 'I' for Inactive)
REMARK    1  A    between atoms: N_3  and  C_4
REMARK    2  A    between atoms: N_10  and  C_11
REMARK    3  A    between atoms: C_21  and  C_23
REMARK    4  A    between atoms: C_23  and  O_24
REMARK    5  A    between atoms: O_24  and  C_25
REMARK                            x       y       z     vdW  Elec       q    Type
REMARK                         _______ _______ _______ _____ _____    ______ ____
ROOT
ATOM     11  C   UNL     1      -3.397   1.155  24.844  0.00  0.00    +0.131 A 
ATOM     12  C   UNL     1      -3.998   0.598  24.937  0.00  0.00    +0.023 A 
ATOM     13  C   UNL     1      -4.766   0.844  25.110  0.00  0.00    +0.014 A 
ATOM     14  C   UNL     1      -4.932   1.648  25.192  0.00  0.00    +0.041 A 
ATOM     15  C   UNL     1      -5.631   2.217  25.370  0.00  0.00    +0.058 C 
ATOM     16  C   UNL     1      -6.318   2.218  25.513  0.00  0.00    +0.011 C 
ATOM     17  C   UNL     1      -5.722   2.765  25.421  0.00  0.00    +0.043 C 
ATOM     18  C   UNL     1      -5.148   3.566  25.349  0.00  0.00    +0.095 C 
ATOM     19  N   UNL     1      -4.417   3.200  25.175  0.00  0.00    -0.276 N 
ATOM     20  C   UNL     1      -5.089   3.001  25.303  0.00  0.00    +0.099 C 
ATOM     21  C   UNL     1      -3.613   3.129  25.004  0.00  0.00    +0.270 C 
ATOM     22  O   UNL     1      -3.143   3.804  24.946  0.00  0.00    -0.271 OA
ATOM     31  C   UNL     1      -4.986   2.178  25.234  0.00  0.00    +0.110 C 
ATOM     32  N   UNL     1      -4.331   2.205  25.099  0.00  0.00    -0.298 N 
ATOM     33  C   UNL     1      -3.563   1.958  24.925  0.00  0.00    +0.276 A 
ATOM     34  O   UNL     1      -2.760   2.052  24.764  0.00  0.00    -0.266 OA
ENDROOT
BRANCH  11  10
ATOM      1  O   UNL     1      -2.971  -0.426  25.054  0.00  0.00    -0.249 OA
ATOM      2  C   UNL     1      -2.417   0.118  24.775  0.00  0.00    +0.344 C 
ATOM      3  N   UNL     1      -1.648  -0.130  24.601  0.00  0.00    -0.189 NA
ATOM     10  N   UNL     1      -2.630   0.907  24.670  0.00  0.00    -0.156 NA
BRANCH   3   4
ATOM      4  C   UNL     1      -1.435  -0.919  24.706  0.00  0.00    +0.097 C 
ATOM      5  C   UNL     1      -0.928  -1.131  25.321  0.00  0.00    +0.022 C 
ATOM      6  C   UNL     1      -0.715  -1.921  25.426  0.00  0.00    +0.002 C 
ATOM      7  C   UNL     1      -1.009  -2.499  24.916  0.00  0.00    +0.000 C 
ATOM      8  C   UNL     1      -1.517  -2.287  24.301  0.00  0.00    +0.002 C 
ATOM      9  C   UNL     1      -1.730  -1.497  24.196  0.00  0.00    +0.022 C 
ENDBRANCH   3   4
ENDBRANCH  11  10
BRANCH  21  23
ATOM     23  C   UNL     1      -3.279   2.383  24.891  0.00  0.00    +0.290 C 
BRANCH  23  24
ATOM     24  O   UNL     1      -2.509   2.315  24.603  0.00  0.00    -0.466 OA
BRANCH  24  25
ATOM     25  C   UNL     1      -1.930   2.851  24.842  0.00  0.00    +0.139 A 
ATOM     26  C   UNL     1      -1.627   3.398  24.302  0.00  0.00    +0.037 A 
ATOM     27  C   UNL     1      -1.047   3.935  24.540  0.00  0.00    +0.003 A 
ATOM     28  C   UNL     1      -0.771   3.925  25.318  0.00  0.00    +0.000 A 
ATOM     29  C   UNL     1      -1.074   3.379  25.857  0.00  0.00    +0.003 A 
ATOM     30  C   UNL     1      -1.653   2.842  25.618  0.00  0.00    +0.037 A 
ENDBRANCH  24  25
ENDBRANCH  23  24
ENDBRANCH  21  23
TORSDOF 5
ENDMDL
MODEL 4
REMARK VINA RESULT:     -13.3      1.169      4.333
REMARK  Name = 
REMARK  5 active torsions:
REMARK  status: ('A' for Active; 'I' for Inactive)
REMARK    1  A    between atoms: N_3  and  C_4
REMARK    2  A    between atoms: N_10  and  C_11
REMARK    3  A    between atoms: C_21  and  C_23
REMARK    4  A    between atoms: C_23  and  O_24
REMARK    5  A    between atoms: O_24  and  C_25
REMARK                            x       y       z     vdW  Elec       q    Type
REMARK                         _______ _______ _______ _____ _____    ______ ____
ROOT
ATOM     11  C   UNL     1      -3.408   0.200  24.747  0.00  0.00    +0.131 A 
ATOM     12  C   UNL     1      -4.181  -0.061  24.627  0.00  0.00    +0.023 A 
ATOM     13  C   UNL     1      -4.331  -0.860  24.488  0.00  0.00    +0.014 A 
ATOM     14  C   UNL     1      -3.707  -1.399  24.470  0.00  0.00    +0.041 A 
ATOM     15  C   UNL     1      -3.541  -2.295  24.350  0.00  0.00    +0.058 C 
ATOM     16  C   UNL     1      -3.868  -2.903  24.223  0.00  0.00    +0.011 C 
ATOM     17  C   UNL     1      -3.105  -2.643  24.342  0.00  0.00    +0.043 C 
ATOM     18  C   UNL     1      -2.131  -2.525  24.462  0.00  0.00    +0.095 C 
ATOM     19  N   UNL     1      -2.104  -1.701  24.592  0.00  0.00    -0.276 N 
ATOM     20  C   UNL     1      -2.598  -2.198  24.464  0.00  0.00    +0.099 C 
ATOM     21  C   UNL     1      -1.783  -0.955  24.740  0.00  0.00    +0.270 C 
ATOM     22  O   UNL     1      -0.969  -0.869  24.838  0.00  0.00    -0.271 OA
ATOM     31  C   UNL     1      -3.269  -1.705  24.469  0.00  0.00    +0.110 C 
ATOM     32  N   UNL     1      -2.933  -1.139  24.591  0.00  0.00    -0.298 N 
ATOM     33  C   UNL     1      -2.784  -0.339  24.730  0.00  0.00    +0.276 A 
ATOM     34  O   UNL     1      -2.319   0.325  24.880  0.00  0.00    -0.266 OA
ENDROOT
BRANCH  11  10
ATOM      1  O   UNL     1      -4.664   1.249  24.954  0.00  0.00    -0.249 OA
ATOM      2  C   UNL     1      -3.887   1.524  24.989  0.00  0.00    +0.344 C 
ATOM      3  N   UNL     1      -3.737   2.324  25.127  0.00  0.00    -0.189 NA
ATOM     10  N   UNL     1      -3.259   0.999  24.886  0.00  0.00    -0.156 NA
BRANCH   3   4
ATOM      4  C   UNL     1      -4.365   2.849  25.231  0.00  0.00    +0.097 C 
ATOM      5  C   UNL     1      -4.495   3.450  24.681  0.00  0.00    +0.022 C 
ATOM      6  C   UNL     1      -5.122   3.975  24.784  0.00  0.00    +0.002 C 
ATOM      7  C   UNL     1      -5.620   3.899  25.438  0.00  0.00    +0.000 C 
ATOM      8  C   UNL     1      -5.490   3.298  25.988  0.00  0.00    +0.002 C 
ATOM      9  C   UNL     1      -4.863   2.773  25.885  0.00  0.00    +0.022 C 
ENDBRANCH   3   4
ENDBRANCH  11  10
BRANCH  21  23
ATOM     23  C   UNL     1      -2.277  -0.295  24.789  0.00  0.00    +0.290 C 
BRANCH  23  24
ATOM     24  O   UNL     1      -1.967   0.436  25.011  0.00  0.00    -0.466 OA
BRANCH  24  25
ATOM     25  C   UNL     1      -1.253   0.696  24.691  0.00  0.00    +0.139 A 
ATOM     26  C   UNL     1      -0.600   0.813  25.182  0.00  0.00    +0.037 A 
ATOM     27  C   UNL     1       0.115   1.074  24.862  0.00  0.00    +0.003 A 
ATOM     28  C   UNL     1       0.176   1.217  24.052  0.00  0.00    +0.000 A 
ATOM     29  C   UNL     1      -0.477   1.101  23.561  0.00  0.00    +0.003 A 
ATOM     30  C   UNL     1      -1.191   0.840  23.881  0.00  0.00    +0.037 A 
ENDBRANCH  24  25
ENDBRANCH  23  24
ENDBRANCH  21  23
TORSDOF 5
ENDMDL
MODEL 5
REMARK VINA RESULT:     -12.9      1.604      4.807
REMARK  Name = 
REMARK  5 active torsions:
REMARK  status: ('A' for Active; 'I' for Inactive)
REMARK    1  A    between atoms: N_3  and  C_4
REMARK    2  A    between atoms: N_10  and  C_11
REMARK    3  A    between atoms: C_21  and  C_23
REMARK    4  A    between atoms: C_23  and  O_24
REMARK    5  A    between atoms: O_24  and  C_25
REMARK                            x       y       z     vdW  Elec       q    Type
REMARK                         _______ _______ _______ _____ _____    ______ ____
ROOT
ATOM     11  C   UNL     1      -2.374   0.802  24.562  0.00  0.00    +0.131 A 
ATOM     12  C   UNL     1      -2.044   1.524  24.338  0.00  0.00    +0.023 A 
ATOM     13  C   UNL     1      -1.267   1.555  24.063  0.00  0.00    +0.014 A 
ATOM     14  C   UNL     1      -0.820   0.864  24.013  0.00  0.00    +0.041 A 
ATOM     15  C   UNL     1       0.016   0.570  23.768  0.00  0.00    +0.058 C 
ATOM     16  C   UNL     1       0.630   0.802  23.519  0.00  0.00    +0.011 C 
ATOM     17  C   UNL     1       0.301   0.091  23.741  0.00  0.00    +0.043 C 
ATOM     18  C   UNL     1       0.085  -0.848  23.959  0.00  0.00    +0.095 C 
ATOM     19  N   UNL     1      -0.703  -0.755  24.219  0.00  0.00    -0.276 N 
ATOM     20  C   UNL     1      -0.177  -0.342  23.973  0.00  0.00    +0.099 C 
ATOM     21  C   UNL     1      -1.448  -0.961  24.509  0.00  0.00    +0.270 C 
ATOM     22  O   UNL     1      -1.617  -1.748  24.687  0.00  0.00    -0.271 OA
ATOM     31  C   UNL     1      -0.575   0.388  24.000  0.00  0.00    +0.110 C 
ATOM     32  N   UNL     1      -1.150   0.141  24.237  0.00  0.00    -0.298 N 
ATOM     33  C   UNL     1      -1.927   0.111  24.512  0.00  0.00    +0.276 A 
ATOM     34  O   UNL     1      -2.610  -0.249  24.803  0.00  0.00    -0.266 OA
ENDROOT
BRANCH  11  10
ATOM      1  O   UNL     1      -3.240   2.195  24.742  0.00  0.00    -0.249 OA
ATOM      2  C   UNL     1      -3.584   1.469  24.927  0.00  0.00    +0.344 C 
ATOM      3  N   UNL     1      -4.363   1.438  25.201  0.00  0.00    -0.189 NA
ATOM     10  N   UNL     1      -3.151   0.772  24.836  0.00  0.00    -0.156 NA
BRANCH   3   4
ATOM      4  C   UNL     1      -4.795   2.134  25.292  0.00  0.00    +0.097 C 
ATOM      5  C   UNL     1      -5.485   2.251  24.853  0.00  0.00    +0.022 C 
ATOM      6  C   UNL     1      -5.918   2.947  24.944  0.00  0.00    +0.002 C 
ATOM      7  C   UNL     1      -5.661   3.527  25.472  0.00  0.00    +0.000 C 
ATOM      8  C   UNL     1      -4.972   3.410  25.910  0.00  0.00    +0.002 C 
ATOM      9  C   UNL     1      -4.539   2.714  25.820  0.00  0.00    +0.022 C 
ENDBRANCH   3   4
ENDBRANCH  11  10
BRANCH  21  23
ATOM     23  C   UNL     1      -2.023  -0.380  24.620  0.00  0.00    +0.290 C 
BRANCH  23  24
ATOM     24  O   UNL     1      -2.745  -0.576  24.967  0.00  0.00    -0.466 OA
BRANCH  24  25
ATOM     25  C   UNL     1      -3.110  -1.293  24.785  0.00  0.00    +0.139 A 
ATOM     26  C   UNL     1      -3.096  -1.913  25.330  0.00  0.00    +0.037 A 
ATOM     27  C   UNL     1      -3.462  -2.630  25.149  0.00  0.00    +0.003 A 
ATOM     28  C   UNL     1      -3.841  -2.727  24.423  0.00  0.00    +0.000 A 
ATOM     29  C   UNL     1      -3.855  -2.107  23.878  0.00  0.00    +0.003 A 
ATOM     30  C   UNL     1      -3.490  -1.391  24.060  0.00  0.00    +0.037 A 
ENDBRANCH  24  25
ENDBRANCH  23  24
ENDBRANCH  21  23
TORSDOF 5
ENDMDL
MODEL 6
REMARK VINA RESULT:     -12.9      1.640      3.678
REMARK  Name = 
REMARK  5 active torsions:
REMARK  status: ('A' for Active; 'I' for Inactive)
REMARK    1  A    between atoms: N_3  and  C_4
REMARK    2  A    between atoms: N_10  and  C_11
REMARK    3  A    between atoms: C_21  and  C_23
REMARK    4  A    between atoms: C_23  and  O_24
REMARK    5  A    between atoms: O_24  and  C_25
REMARK                            x       y       z     vdW  Elec       q    Type
REMARK                         _______ _______ _______ _____ _____    ______ ____
ROOT
ATOM     11  C   UNL     1      -2.347   1.019  24.265  0.00  0.00    +0.131 A 
ATOM     12  C   UNL     1      -2.192   1.766  23.950  0.00  0.00    +0.023 A 
ATOM     13  C   UNL     1      -2.784   2.341  23.941  0.00  0.00    +0.014 A 
ATOM     14  C   UNL     1      -3.530   2.168  24.246  0.00  0.00    +0.041 A 
ATOM     15  C   UNL     1      -4.354   2.554  24.379  0.00  0.00    +0.058 C 
ATOM     16  C   UNL     1      -4.702   3.156  24.280  0.00  0.00    +0.011 C 
ATOM     17  C   UNL     1      -4.851   2.417  24.590  0.00  0.00    +0.043 C 
ATOM     18  C   UNL     1      -5.221   1.598  25.000  0.00  0.00    +0.095 C 
ATOM     19  N   UNL     1      -4.549   1.103  24.955  0.00  0.00    -0.276 N 
ATOM     20  C   UNL     1      -4.725   1.770  24.777  0.00  0.00    +0.099 C 
ATOM     21  C   UNL     1      -4.084   0.427  25.041  0.00  0.00    +0.270 C 
ATOM     22  O   UNL     1      -4.402  -0.251  25.385  0.00  0.00    -0.271 OA
ATOM     31  C   UNL     1      -3.995   2.005  24.455  0.00  0.00    +0.110 C 
ATOM     32  N   UNL     1      -3.685   1.421  24.560  0.00  0.00    -0.298 N 
ATOM     33  C   UNL     1      -3.093   0.847  24.569  0.00  0.00    +0.276 A 
ATOM     34  O   UNL     1      -2.764   0.106  24.723  0.00  0.00    -0.266 OA
ENDROOT
BRANCH  11  10
ATOM      1  O   UNL     1      -0.879   1.337  23.579  0.00  0.00    -0.249 OA
ATOM      2  C   UNL     1      -1.021   0.604  23.931  0.00  0.00    +0.344 C 
ATOM      3  N   UNL     1      -0.428   0.029  23.940  0.00  0.00    -0.189 NA
ATOM     10  N   UNL     1      -1.754   0.445  24.274  0.00  0.00    -0.156 NA
BRANCH   3   4
ATOM      4  C   UNL     1       0.305   0.187  23.598  0.00  0.00    +0.097 C 
ATOM      5  C   UNL     1       0.544  -0.227  22.925  0.00  0.00    +0.022 C 
ATOM      6  C   UNL     1       1.277  -0.068  22.583  0.00  0.00    +0.002 C 
ATOM      7  C   UNL     1       1.772   0.504  22.913  0.00  0.00    +0.000 C 
ATOM      8  C   UNL     1       1.533   0.917  23.586  0.00  0.00    +0.002 C 
ATOM      9  C   UNL     1       0.800   0.759  23.928  0.00  0.00    +0.022 C 
ENDBRANCH   3   4
ENDBRANCH  11  10
BRANCH  21  23
ATOM     23  C   UNL     1      -3.299   0.430  24.784  0.00  0.00    +0.290 C 
BRANCH  23  24
ATOM     24  O   UNL     1      -2.811  -0.215  24.942  0.00  0.00    -0.466 OA
BRANCH  24  25
ATOM     25  C   UNL     1      -3.112  -0.982  24.897  0.00  0.00    +0.139 A 
ATOM     26  C   UNL     1      -3.155  -1.449  25.576  0.00  0.00    +0.037 A 
ATOM     27  C   UNL     1      -3.456  -2.216  25.532  0.00  0.00    +0.003 A 
ATOM     28  C   UNL     1      -3.713  -2.516  24.808  0.00  0.00    +0.000 A 
ATOM     29  C   UNL     1      -3.670  -2.049  24.128  0.00  0.00    +0.003 A 
ATOM     30  C   UNL     1      -3.369  -1.283  24.174  0.00  0.00    +0.037 A 
ENDBRANCH  24  25
ENDBRANCH  23  24
ENDBRANCH  21  23
TORSDOF 5
ENDMDL
