MODEL 1
REMARK VINA RESULT:     -10.7      0.000      0.000
REMARK  Name = 
REMARK  9 active torsions:
REMARK  status: ('A' for Active; 'I' for Inactive)
REMARK    1  A    between atoms: C_2  and  C_4
REMARK    2  A    between atoms: C_6  and  C_7
REMARK    3  A    between atoms: C_7  and  C_8
REMARK    4  A    between atoms: C_11  and  C_13
REMARK    5  A    between atoms: C_22  and  C_23
REMARK    6  A    between atoms: C_23  and  N_24
REMARK    7  A    between atoms: N_24  and  C_25
REMARK    8  A    between atoms: C_25  and  C_26
REMARK    9  A    between atoms: C_26  and  N_27
REMARK                            x       y       z     vdW  Elec       q    Type
REMARK                         _______ _______ _______ _____ _____    ______ ____
ROOT
ATOM      4  C   UNL     1      -3.559   1.370  24.035  0.00  0.00    +0.006 C 
ATOM      5  C   UNL     1      -3.689   2.137  24.309  0.00  0.00    +0.005 C 
ATOM      6  C   UNL     1      -4.320   2.291  24.817  0.00  0.00    +0.027 C 
ATOM     19  C   UNL     1      -4.822   1.678  25.050  0.00  0.00    -0.048 C 
ATOM     20  C   UNL     1      -5.454   1.832  25.558  0.00  0.00    +0.026 C 
ATOM     21  C   UNL     1      -4.691   0.911  24.775  0.00  0.00    -0.033 C 
ATOM     22  C   UNL     1      -4.059   0.757  24.267  0.00  0.00    +0.039 C 
ENDROOT
BRANCH   4   2
ATOM      1  C   UNL     1      -3.009   1.340  22.716  0.00  0.00    +0.000 C 
ATOM      2  C   UNL     1      -2.926   1.216  23.526  0.00  0.00    +0.000 C 
ATOM      3  C   UNL     1      -2.211   0.936  23.830  0.00  0.00    +0.000 C 
ENDBRANCH   4   2
BRANCH   6   7
ATOM      7  C   UNL     1      -4.452   3.057  25.092  0.00  0.00    +0.091 C 
BRANCH   7   8
ATOM      8  C   UNL     1      -3.825   3.502  25.391  0.00  0.00    +0.227 A 
ATOM      9  N   UNL     1      -3.733   3.744  26.174  0.00  0.00    -0.111 NA
ATOM     10  N   UNL     1      -3.031   4.174  26.227  0.00  0.00    -0.107 NA
ATOM     11  C   UNL     1      -2.689   4.197  25.476  0.00  0.00    +0.250 A 
ATOM     12  O   UNL     1      -3.181   3.781  24.960  0.00  0.00    -0.420 OA
BRANCH  11  13
ATOM     13  C   UNL     1      -1.981   4.571  25.277  0.00  0.00    +0.055 A 
ATOM     14  C   UNL     1      -1.971   5.381  25.122  0.00  0.00    +0.005 A 
ATOM     15  C   UNL     1      -1.263   5.755  24.922  0.00  0.00    +0.000 A 
ATOM     16  C   UNL     1      -0.565   5.318  24.877  0.00  0.00    +0.000 A 
ATOM     17  C   UNL     1      -0.574   4.508  25.031  0.00  0.00    +0.000 A 
ATOM     18  C   UNL     1      -1.282   4.134  25.231  0.00  0.00    +0.005 A 
ENDBRANCH  11  13
ENDBRANCH   7   8
ENDBRANCH   6   7
BRANCH  22  23
ATOM     23  C   UNL     1      -3.929  -0.010  23.993  0.00  0.00    +0.093 C 
BRANCH  23  24
ATOM     24  N   UNL     1      -4.234  -0.654  24.406  0.00  0.00    -0.216 NA
BRANCH  24  25
ATOM     25  C   UNL     1      -4.098  -1.422  24.135  0.00  0.00    +0.106 C 
BRANCH  25  26
ATOM     26  C   UNL     1      -3.908  -2.021  24.669  0.00  0.00    +0.091 C 
BRANCH  26  27
ATOM     27  N   UNL     1      -3.547  -2.713  24.402  0.00  0.00    -0.269 NA
ATOM     28  C   UNL     1      -2.759  -2.866  24.589  0.00  0.00    +0.090 C 
ATOM     29  C   UNL     1      -3.976  -3.253  23.948  0.00  0.00    +0.090 C 
ENDBRANCH  26  27
ENDBRANCH  25  26
ENDBRANCH  24  25
ENDBRANCH  23  24
ENDBRANCH  22  23
TORSDOF 9
ENDMDL
MODEL 2
REMARK VINA RESULT:     -10.0      1.220      5.434
REMARK  Name = 
REMARK  9 active torsions:
REMARK  status: ('A' for Active; 'I' for Inactive)
REMARK    1  A    between atoms: C_2  and  C_4
REMARK    2  A    between atoms: C_6  and  C_7
REMARK    3  A    between atoms: C_7  and  C_8
REMARK    4  A    between atoms: C_11  and  C_13
REMARK    5  A    between atoms: C_22  and  C_23
REMARK    6  A    between atoms: C_23  and  N_24
REMARK    7  A    between atoms: N_24  and  C_25
REMARK    8  A    between atoms: C_25  and  C_26
REMARK    9  A    between atoms: C_26  and  N_27
REMARK                            x       y       z     vdW  Elec       q    Type
REMARK                         _______ _______ _______ _____ _____    ______ ____
ROOT
ATOM      4  C   UNL     1      -3.337   1.939  23.886  0.00  0.00    +0.006 C 
ATOM      5  C   UNL     1      -3.765   1.251  24.044  0.00  0.00    +0.005 C 
ATOM      6  C   UNL     1      -4.388   1.268  24.584  0.00  0.00    +0.027 C 
ATOM     19  C   UNL     1      -4.583   1.973  24.967  0.00  0.00    -0.048 C 
ATOM     20  C   UNL     1      -5.206   1.990  25.507  0.00  0.00    +0.026 C 
ATOM     21  C   UNL     1      -4.156   2.660  24.808  0.00  0.00    -0.033 C 
ATOM     22  C   UNL     1      -3.533   2.643  24.268  0.00  0.00    +0.039 C 
ENDROOT
BRANCH   4   2
ATOM      1  C   UNL     1      -2.842   2.144  22.561  0.00  0.00    +0.000 C 
ATOM      2  C   UNL     1      -2.714   1.922  23.345  0.00  0.00    +0.000 C 
ATOM      3  C   UNL     1      -1.962   1.684  23.589  0.00  0.00    +0.000 C 
ENDBRANCH   4   2
BRANCH   6   7
ATOM      7  C   UNL     1      -4.815   0.581  24.743  0.00  0.00    +0.091 C 
BRANCH   7   8
ATOM      8  C   UNL     1      -4.422  -0.105  24.978  0.00  0.00    +0.227 A 
ATOM      9  N   UNL     1      -4.231  -0.313  25.752  0.00  0.00    -0.111 NA
ATOM     10  N   UNL     1      -3.842  -1.040  25.732  0.00  0.00    -0.107 NA
ATOM     11  C   UNL     1      -3.794  -1.282  24.945  0.00  0.00    +0.250 A 
ATOM     12  O   UNL     1      -4.153  -0.703  24.478  0.00  0.00    -0.420 OA
BRANCH  11  13
ATOM     13  C   UNL     1      -3.448  -1.979  24.672  0.00  0.00    +0.055 A 
ATOM     14  C   UNL     1      -3.916  -2.564  24.326  0.00  0.00    +0.005 A 
ATOM     15  C   UNL     1      -3.570  -3.262  24.052  0.00  0.00    +0.000 A 
ATOM     16  C   UNL     1      -2.757  -3.374  24.125  0.00  0.00    +0.000 A 
ATOM     17  C   UNL     1      -2.288  -2.790  24.470  0.00  0.00    +0.000 A 
ATOM     18  C   UNL     1      -2.634  -2.092  24.743  0.00  0.00    +0.005 A 
ENDBRANCH  11  13
ENDBRANCH   7   8
ENDBRANCH   6   7
BRANCH  22  23
ATOM     23  C   UNL     1      -3.105   3.331  24.110  0.00  0.00    +0.093 C 
BRANCH  23  24
ATOM     24  N   UNL     1      -2.982   3.887  24.706  0.00  0.00    -0.216 NA
BRANCH  24  25
ATOM     25  C   UNL     1      -2.445   4.503  24.592  0.00  0.00    +0.106 C 
BRANCH  25  26
ATOM     26  C   UNL     1      -1.965   4.753  25.214  0.00  0.00    +0.091 C 
BRANCH  26  27
ATOM     27  N   UNL     1      -1.275   5.179  25.059  0.00  0.00    -0.269 NA
ATOM     28  C   UNL     1      -1.310   5.995  24.948  0.00  0.00    +0.090 C 
ATOM     29  C   UNL     1      -0.550   4.786  25.014  0.00  0.00    +0.090 C 
ENDBRANCH  26  27
ENDBRANCH  25  26
ENDBRANCH  24  25
ENDBRANCH  23  24
ENDBRANCH  22  23
TORSDOF 9
ENDMDL
MODEL 3
REMARK VINA RESULT:      -9.8      2.836      4.864
REMARK  Name = 
REMARK  9 active torsions:
REMARK  status: ('A' for Active; 'I' for Inactive)
REMARK    1  A    between atoms: C_2  and  C_4
REMARK    2  A    between atoms: C_6  and  C_7
REMARK    3  A    between atoms: C_7  and  C_8
REMARK    4  A    between atoms: C_11  and  C_13
REMARK    5  A    between atoms: C_22  and  C_23
REMARK    6  A    between atoms: C_23  and  N_24
REMARK    7  A    between atoms: N_24  and  C_25
REMARK    8  A    between atoms: C_25  and  C_26
REMARK    9  A    between atoms: C_26  and  N_27
REMARK                            x       y       z     vdW  Elec       q    Type
REMARK                         _______ _______ _______ _____ _____    ______ ____
ROOT
ATOM      4  C   UNL     1      -0.953   0.715  24.605  0.00  0.00    +0.006 C 
ATOM      5  C   UNL     1      -1.651   0.450  24.955  0.00  0.00    +0.005 C 
ATOM      6  C   UNL     1      -1.835  -0.355  24.949  0.00  0.00    +0.027 C 
ATOM     19  C   UNL     1      -1.321  -0.893  24.592  0.00  0.00    -0.048 C 
ATOM     20  C   UNL     1      -1.505  -1.697  24.586  0.00  0.00    +0.026 C 
ATOM     21  C   UNL     1      -0.623  -0.626  24.242  0.00  0.00    -0.033 C 
ATOM     22  C   UNL     1      -0.439   0.178  24.249  0.00  0.00    +0.039 C 
ENDROOT
BRANCH   4   2
ATOM      1  C   UNL     1      -0.353   1.843  25.245  0.00  0.00    +0.000 C 
ATOM      2  C   UNL     1      -0.769   1.521  24.611  0.00  0.00    +0.000 C 
ATOM      3  C   UNL     1      -1.002   2.001  23.982  0.00  0.00    +0.000 C 
ENDBRANCH   4   2
BRANCH   6   7
ATOM      7  C   UNL     1      -2.533  -0.621  25.299  0.00  0.00    +0.091 C 
BRANCH   7   8
ATOM      8  C   UNL     1      -3.258  -0.300  25.072  0.00  0.00    +0.227 A 
ATOM      9  N   UNL     1      -3.799  -0.643  24.553  0.00  0.00    -0.111 NA
ATOM     10  N   UNL     1      -4.445  -0.134  24.485  0.00  0.00    -0.107 NA
ATOM     11  C   UNL     1      -4.302   0.524  24.962  0.00  0.00    +0.250 A 
ATOM     12  O   UNL     1      -3.568   0.421  25.325  0.00  0.00    -0.420 OA
BRANCH  11  13
ATOM     13  C   UNL     1      -4.805   1.170  25.059  0.00  0.00    +0.055 A 
ATOM     14  C   UNL     1      -5.433   1.128  25.592  0.00  0.00    +0.005 A 
ATOM     15  C   UNL     1      -5.936   1.776  25.690  0.00  0.00    +0.000 A 
ATOM     16  C   UNL     1      -5.810   2.464  25.254  0.00  0.00    +0.000 A 
ATOM     17  C   UNL     1      -5.182   2.507  24.722  0.00  0.00    +0.000 A 
ATOM     18  C   UNL     1      -4.679   1.860  24.624  0.00  0.00    +0.005 A 
ENDBRANCH  11  13
ENDBRANCH   7   8
ENDBRANCH   6   7
BRANCH  22  23
ATOM     23  C   UNL     1       0.259   0.444  23.898  0.00  0.00    +0.093 C 
BRANCH  23  24
ATOM     24  N   UNL     1       0.739  -0.083  23.483  0.00  0.00    -0.216 NA
BRANCH  24  25
ATOM     25  C   UNL     1       1.325   0.203  22.978  0.00  0.00    +0.106 C 
BRANCH  25  26
ATOM     26  C   UNL     1       2.065  -0.161  22.956  0.00  0.00    +0.091 C 
BRANCH  26  27
ATOM     27  N   UNL     1       2.645   0.114  22.438  0.00  0.00    -0.269 NA
ATOM     28  C   UNL     1       2.608  -0.077  21.637  0.00  0.00    +0.090 C 
ATOM     29  C   UNL     1       3.264   0.581  22.722  0.00  0.00    +0.090 C 
ENDBRANCH  26  27
ENDBRANCH  25  26
ENDBRANCH  24  25
ENDBRANCH  23  24
ENDBRANCH  22  23
TORSDOF 9
ENDMDL
MODEL 4
REMARK VINA RESULT:      -9.8      2.704      4.543
REMARK  Name = 
REMARK  9 active torsions:
REMARK  status: ('A' for Active; 'I' for Inactive)
REMARK    1  A    between atoms: C_2  and  C_4
REMARK    2  A    between atoms: C_6  and  C_7
REMARK    3  A    between atoms: C_7  and  C_8
REMARK    4  A    between atoms: C_11  and  C_13
REMARK    5  A    between atoms: C_22  and  C_23
REMARK    6  A    between atoms: C_23  and  N_24
REMARK    7  A    between atoms: N_24  and  C_25
REMARK    8  A    between atoms: C_25  and  C_26
REMARK    9  A    between atoms: C_26  and  N_27
REMARK                            x       y       z     vdW  Elec       q    Type
REMARK                         _______ _______ _______ _____ _____    ______ ____
ROOT
ATOM      4  C   UNL     1      -1.036   1.501  24.888  0.00  0.00    +0.006 C 
ATOM      5  C   UNL     1      -1.562   2.060  25.191  0.00  0.00    +0.005 C 
ATOM      6  C   UNL     1      -1.377   2.863  25.151  0.00  0.00    +0.027 C 
ATOM     19  C   UNL     1      -0.667   3.107  24.809  0.00  0.00    -0.048 C 
ATOM     20  C   UNL     1      -0.482   3.910  24.770  0.00  0.00    +0.026 C 
ATOM     21  C   UNL     1      -0.142   2.547  24.507  0.00  0.00    -0.033 C 
ATOM     22  C   UNL     1      -0.326   1.744  24.547  0.00  0.00    +0.039 C 
ENDROOT
BRANCH   4   2
ATOM      1  C   UNL     1      -1.029   0.263  25.602  0.00  0.00    +0.000 C 
ATOM      2  C   UNL     1      -1.221   0.697  24.928  0.00  0.00    +0.000 C 
ATOM      3  C   UNL     1      -1.597   0.329  24.293  0.00  0.00    +0.000 C 
ENDBRANCH   4   2
BRANCH   6   7
ATOM      7  C   UNL     1      -1.903   3.423  25.453  0.00  0.00    +0.091 C 
BRANCH   7   8
ATOM      8  C   UNL     1      -2.691   3.424  25.209  0.00  0.00    +0.227 A 
ATOM      9  N   UNL     1      -3.020   3.921  24.640  0.00  0.00    -0.111 NA
ATOM     10  N   UNL     1      -3.821   3.733  24.570  0.00  0.00    -0.107 NA
ATOM     11  C   UNL     1      -3.985   3.119  25.097  0.00  0.00    +0.250 A 
ATOM     12  O   UNL     1      -3.286   2.929  25.492  0.00  0.00    -0.420 OA
BRANCH  11  13
ATOM     13  C   UNL     1      -4.718   2.760  25.209  0.00  0.00    +0.055 A 
ATOM     14  C   UNL     1      -4.962   2.153  24.705  0.00  0.00    +0.005 A 
ATOM     15  C   UNL     1      -5.696   1.793  24.817  0.00  0.00    +0.000 A 
ATOM     16  C   UNL     1      -6.186   2.040  25.433  0.00  0.00    +0.000 A 
ATOM     17  C   UNL     1      -5.944   2.646  25.937  0.00  0.00    +0.000 A 
ATOM     18  C   UNL     1      -5.209   3.006  25.825  0.00  0.00    +0.005 A 
ENDBRANCH  11  13
ENDBRANCH   7   8
ENDBRANCH   6   7
BRANCH  22  23
ATOM     23  C   UNL     1       0.200   1.185  24.244  0.00  0.00    +0.093 C 
BRANCH  23  24
ATOM     24  N   UNL     1       0.898   1.430  23.880  0.00  0.00    -0.216 NA
BRANCH  24  25
ATOM     25  C   UNL     1       1.388   0.877  23.512  0.00  0.00    +0.106 C 
BRANCH  25  26
ATOM     26  C   UNL     1       2.100   1.117  23.174  0.00  0.00    +0.091 C 
BRANCH  26  27
ATOM     27  N   UNL     1       2.585   0.566  22.796  0.00  0.00    -0.269 NA
ATOM     28  C   UNL     1       2.250  -0.076  22.401  0.00  0.00    +0.090 C 
ATOM     29  C   UNL     1       3.405   0.658  22.813  0.00  0.00    +0.090 C 
ENDBRANCH  26  27
ENDBRANCH  25  26
ENDBRANCH  24  25
ENDBRANCH  23  24
ENDBRANCH  22  23
TORSDOF 9
ENDMDL
MODEL 5
REMARK VINA RESULT:      -9.4      2.596      4.263
REMARK  Name = 
REMARK  9 active torsions:
REMARK  status: ('A' for Active; 'I' for Inactive)
REMARK    1  A    between atoms: C_2  and  C_4
REMARK    2  A    between atoms: C_6  and  C_7
REMARK    3  A    between atoms: C_7  and  C_8
REMARK    4  A    between atoms: C_11  and  C_13
REMARK    5  A    between atoms: C_22  and  C_23
REMARK    6  A    between atoms: C_23  and  N_24
REMARK    7  A    between atoms: N_24  and  C_25
REMARK    8  A    between atoms: C_25  and  C_26
REMARK    9  A    between atoms: C_26  and  N_27
REMARK                            x       y       z     vdW  Elec       q    Type
REMARK                         _______ _______ _______ _____ _____    ______ ____
ROOT
ATOM      4  C   UNL     1      -1.279   2.289  24.430  0.00  0.00    +0.006 C 
ATOM      5  C   UNL     1      -1.953   2.735  24.261  0.00  0.00    +0.005 C 
ATOM      6  C   UNL     1      -2.383   2.588  23.573  0.00  0.00    +0.027 C 
ATOM     19  C   UNL     1      -2.140   1.994  23.053  0.00  0.00    -0.048 C 
ATOM     20  C   UNL     1      -2.571   1.846  22.365  0.00  0.00    +0.026 C 
ATOM     21  C   UNL     1      -1.467   1.549  23.223  0.00  0.00    -0.033 C 
ATOM     22  C   UNL     1      -1.036   1.696  23.911  0.00  0.00    +0.039 C 
ENDROOT
BRANCH   4   2
ATOM      1  C   UNL     1      -0.967   1.969  25.787  0.00  0.00    +0.000 C 
ATOM      2  C   UNL     1      -0.848   2.437  25.119  0.00  0.00    +0.000 C 
ATOM      3  C   UNL     1      -0.299   3.052  25.137  0.00  0.00    +0.000 C 
ENDBRANCH   4   2
BRANCH   6   7
ATOM      7  C   UNL     1      -3.057   3.033  23.404  0.00  0.00    +0.091 C 
BRANCH   7   8
ATOM      8  C   UNL     1      -3.643   3.129  23.977  0.00  0.00    +0.227 A 
ATOM      9  N   UNL     1      -3.799   3.820  24.397  0.00  0.00    -0.111 NA
ATOM     10  N   UNL     1      -4.428   3.670  24.910  0.00  0.00    -0.107 NA
ATOM     11  C   UNL     1      -4.660   2.886  24.805  0.00  0.00    +0.250 A 
ATOM     12  O   UNL     1      -4.174   2.551  24.228  0.00  0.00    -0.420 OA
BRANCH  11  13
ATOM     13  C   UNL     1      -5.270   2.502  25.206  0.00  0.00    +0.055 A 
ATOM     14  C   UNL     1      -5.675   1.880  24.845  0.00  0.00    +0.005 A 
ATOM     15  C   UNL     1      -6.285   1.496  25.246  0.00  0.00    +0.000 A 
ATOM     16  C   UNL     1      -6.491   1.735  26.008  0.00  0.00    +0.000 A 
ATOM     17  C   UNL     1      -6.087   2.356  26.370  0.00  0.00    +0.000 A 
ATOM     18  C   UNL     1      -5.476   2.740  25.969  0.00  0.00    +0.005 A 
ENDBRANCH  11  13
ENDBRANCH   7   8
ENDBRANCH   6   7
BRANCH  22  23
ATOM     23  C   UNL     1      -0.363   1.250  24.079  0.00  0.00    +0.093 C 
BRANCH  23  24
ATOM     24  N   UNL     1      -0.109   0.671  23.551  0.00  0.00    -0.216 NA
BRANCH  24  25
ATOM     25  C   UNL     1       0.697   0.519  23.459  0.00  0.00    +0.106 C 
BRANCH  25  26
ATOM     26  C   UNL     1       0.948  -0.156  23.058  0.00  0.00    +0.091 C 
BRANCH  26  27
ATOM     27  N   UNL     1       1.624  -0.129  22.586  0.00  0.00    -0.269 NA
ATOM     28  C   UNL     1       1.587  -0.363  21.797  0.00  0.00    +0.090 C 
ATOM     29  C   UNL     1       2.340   0.132  22.906  0.00  0.00    +0.090 C 
ENDBRANCH  26  27
ENDBRANCH  25  26
ENDBRANCH  24  25
ENDBRANCH  23  24
ENDBRANCH  22  23
TORSDOF 9
ENDMDL
MODEL 6
REMARK VINA RESULT:      -9.3      2.742      5.323
REMARK  Name = 
REMARK  9 active torsions:
REMARK  status: ('A' for Active; 'I' for Inactive)
REMARK    1  A    between atoms: C_2  and  C_4
REMARK    2  A    between atoms: C_6  and  C_7
REMARK    3  A    between atoms: C_7  and  C_8
REMARK    4  A    between atoms: C_11  and  C_13
REMARK    5  A    between atoms: C_22  and  C_23
REMARK    6  A    between atoms: C_23  and  N_24
REMARK    7  A    between atoms: N_24  and  C_25
REMARK    8  A    between atoms: C_25  and  C_26
REMARK    9  A    between atoms: C_26  and  N_27
REMARK                            x       y       z     vdW  Elec       q    Type
REMARK                         _______ _______ _______ _____ _____    ______ ____
ROOT
ATOM      4  C   UNL     1      -1.069   1.624  24.967  0.00  0.00    +0.006 C 
ATOM      5  C   UNL     1      -1.893   1.594  24.923  0.00  0.00    +0.005 C 
ATOM      6  C   UNL     1      -2.267   1.636  24.189  0.00  0.00    +0.027 C 
ATOM     19  C   UNL     1      -1.818   1.708  23.500  0.00  0.00    -0.048 C 
ATOM     20  C   UNL     1      -2.193   1.750  22.766  0.00  0.00    +0.026 C 
ATOM     21  C   UNL     1      -0.995   1.738  23.545  0.00  0.00    -0.033 C 
ATOM     22  C   UNL     1      -0.621   1.696  24.279  0.00  0.00    +0.039 C 
ENDROOT
BRANCH   4   2
ATOM      1  C   UNL     1      -0.549   0.849  26.049  0.00  0.00    +0.000 C 
ATOM      2  C   UNL     1      -0.694   1.582  25.702  0.00  0.00    +0.000 C 
ATOM      3  C   UNL     1      -0.465   2.275  26.088  0.00  0.00    +0.000 C 
ENDBRANCH   4   2
BRANCH   6   7
ATOM      7  C   UNL     1      -3.090   1.606  24.143  0.00  0.00    +0.091 C 
BRANCH   7   8
ATOM      8  C   UNL     1      -3.493   0.930  24.391  0.00  0.00    +0.227 A 
ATOM      9  N   UNL     1      -4.150   0.913  24.889  0.00  0.00    -0.111 NA
ATOM     10  N   UNL     1      -4.373   0.126  24.990  0.00  0.00    -0.107 NA
ATOM     11  C   UNL     1      -3.854  -0.344  24.554  0.00  0.00    +0.250 A 
ATOM     12  O   UNL     1      -3.310   0.154  24.184  0.00  0.00    -0.420 OA
BRANCH  11  13
ATOM     13  C   UNL     1      -3.875  -1.166  24.498  0.00  0.00    +0.055 A 
ATOM     14  C   UNL     1      -4.259  -1.527  23.863  0.00  0.00    +0.005 A 
ATOM     15  C   UNL     1      -4.280  -2.351  23.806  0.00  0.00    +0.000 A 
ATOM     16  C   UNL     1      -3.916  -2.812  24.385  0.00  0.00    +0.000 A 
ATOM     17  C   UNL     1      -3.532  -2.453  25.020  0.00  0.00    +0.000 A 
ATOM     18  C   UNL     1      -3.511  -1.629  25.076  0.00  0.00    +0.005 A 
ENDBRANCH  11  13
ENDBRANCH   7   8
ENDBRANCH   6   7
BRANCH  22  23
ATOM     23  C   UNL     1       0.203   1.726  24.324  0.00  0.00    +0.093 C 
BRANCH  23  24
ATOM     24  N   UNL     1       0.657   1.624  23.643  0.00  0.00    -0.216 NA
BRANCH  24  25
ATOM     25  C   UNL     1       1.368   1.206  23.680  0.00  0.00    +0.106 C 
BRANCH  25  26
ATOM     26  C   UNL     1       1.936   1.306  23.091  0.00  0.00    +0.091 C 
BRANCH  26  27
ATOM     27  N   UNL     1       2.462   0.695  22.917  0.00  0.00    -0.269 NA
ATOM     28  C   UNL     1       2.177  -0.032  22.650  0.00  0.00    +0.090 C 
ATOM     29  C   UNL     1       3.275   0.811  23.009  0.00  0.00    +0.090 C 
ENDBRANCH  26  27
ENDBRANCH  25  26
ENDBRANCH  24  25
ENDBRANCH  23  24
ENDBRANCH  22  23
TORSDOF 9
ENDMDL
MODEL 7
REMARK VINA RESULT:      -9.1      2.011      5.348
REMARK  Name = 
REMARK  9 active torsions:
REMARK  status: ('A' for Active; 'I' for Inactive)
REMARK    1  A    between atoms: C_2  and  C_4
REMARK    2  A    between atoms: C_6  and  C_7
REMARK    3  A    between atoms: C_7  and  C_8
REMARK    4  A    between atoms: C_11  and  C_13
REMARK    5  A    between atoms: C_22  and  C_23
REMARK    6  A    between atoms: C_23  and  N_24
REMARK    7  A    between atoms: N_24  and  C_25
REMARK    8  A    between atoms: C_25  and  C_26
REMARK    9  A    between atoms: C_26  and  N_27
REMARK                            x       y       z     vdW  Elec       q    Type
REMARK                         _______ _______ _______ _____ _____    ______ ____
ROOT
ATOM      4  C   UNL     1      -2.213   1.903  23.777  0.00  0.00    +0.006 C 
ATOM      5  C   UNL     1      -1.636   1.320  23.861  0.00  0.00    +0.005 C 
ATOM      6  C   UNL     1      -1.153   1.311  24.530  0.00  0.00    +0.027 C 
ATOM     19  C   UNL     1      -1.248   1.885  25.115  0.00  0.00    -0.048 C 
ATOM     20  C   UNL     1      -0.765   1.876  25.784  0.00  0.00    +0.026 C 
ATOM     21  C   UNL     1      -1.825   2.468  25.030  0.00  0.00    -0.033 C 
ATOM     22  C   UNL     1      -2.308   2.477  24.361  0.00  0.00    +0.039 C 
ENDROOT
BRANCH   4   2
ATOM      1  C   UNL     1      -2.465   2.335  22.438  0.00  0.00    +0.000 C 
ATOM      2  C   UNL     1      -2.696   1.912  23.107  0.00  0.00    +0.000 C 
ATOM      3  C   UNL     1      -3.410   1.499  23.108  0.00  0.00    +0.000 C 
ENDBRANCH   4   2
BRANCH   6   7
ATOM      7  C   UNL     1      -0.576   0.728  24.614  0.00  0.00    +0.091 C 
BRANCH   7   8
ATOM      8  C   UNL     1      -0.780  -0.069  24.547  0.00  0.00    +0.227 A 
ATOM      9  N   UNL     1      -0.296  -0.669  24.256  0.00  0.00    -0.111 NA
ATOM     10  N   UNL     1      -0.720  -1.376  24.288  0.00  0.00    -0.107 NA
ATOM     11  C   UNL     1      -1.466  -1.212  24.600  0.00  0.00    +0.250 A 
ATOM     12  O   UNL     1      -1.502  -0.403  24.760  0.00  0.00    -0.420 OA
BRANCH  11  13
ATOM     13  C   UNL     1      -2.069  -1.759  24.729  0.00  0.00    +0.055 A 
ATOM     14  C   UNL     1      -2.615  -1.636  25.335  0.00  0.00    +0.005 A 
ATOM     15  C   UNL     1      -3.219  -2.183  25.465  0.00  0.00    +0.000 A 
ATOM     16  C   UNL     1      -3.277  -2.853  24.988  0.00  0.00    +0.000 A 
ATOM     17  C   UNL     1      -2.732  -2.977  24.381  0.00  0.00    +0.000 A 
ATOM     18  C   UNL     1      -2.128  -2.430  24.252  0.00  0.00    +0.005 A 
ENDBRANCH  11  13
ENDBRANCH   7   8
ENDBRANCH   6   7
BRANCH  22  23
ATOM     23  C   UNL     1      -2.885   3.061  24.277  0.00  0.00    +0.093 C 
BRANCH  23  24
ATOM     24  N   UNL     1      -3.205   3.425  24.945  0.00  0.00    -0.216 NA
BRANCH  24  25
ATOM     25  C   UNL     1      -3.962   3.751  24.915  0.00  0.00    +0.106 C 
BRANCH  25  26
ATOM     26  C   UNL     1      -4.404   3.832  25.606  0.00  0.00    +0.091 C 
BRANCH  26  27
ATOM     27  N   UNL     1      -5.228   3.805  25.576  0.00  0.00    -0.269 NA
ATOM     28  C   UNL     1      -5.624   3.103  25.747  0.00  0.00    +0.090 C 
ATOM     29  C   UNL     1      -5.656   4.482  25.374  0.00  0.00    +0.090 C 
ENDBRANCH  26  27
ENDBRANCH  25  26
ENDBRANCH  24  25
ENDBRANCH  23  24
ENDBRANCH  22  23
TORSDOF 9
ENDMDL
MODEL 8
REMARK VINA RESULT:      -8.5      1.867      5.325
REMARK  Name = 
REMARK  9 active torsions:
REMARK  status: ('A' for Active; 'I' for Inactive)
REMARK    1  A    between atoms: C_2  and  C_4
REMARK    2  A    between atoms: C_6  and  C_7
REMARK    3  A    between atoms: C_7  and  C_8
REMARK    4  A    between atoms: C_11  and  C_13
REMARK    5  A    between atoms: C_22  and  C_23
REMARK    6  A    between atoms: C_23  and  N_24
REMARK    7  A    between atoms: N_24  and  C_25
REMARK    8  A    between atoms: C_25  and  C_26
REMARK    9  A    between atoms: C_26  and  N_27
REMARK                            x       y       z     vdW  Elec       q    Type
REMARK                         _______ _______ _______ _____ _____    ______ ____
ROOT
ATOM      4  C   UNL     1      -1.626   2.709  24.845  0.00  0.00    +0.006 C 
ATOM      5  C   UNL     1      -1.203   2.050  24.586  0.00  0.00    +0.005 C 
ATOM      6  C   UNL     1      -1.444   1.645  23.908  0.00  0.00    +0.027 C 
ATOM     19  C   UNL     1      -2.108   1.900  23.490  0.00  0.00    -0.048 C 
ATOM     20  C   UNL     1      -2.349   1.496  22.812  0.00  0.00    +0.026 C 
ATOM     21  C   UNL     1      -2.531   2.559  23.750  0.00  0.00    -0.033 C 
ATOM     22  C   UNL     1      -2.290   2.964  24.428  0.00  0.00    +0.039 C 
ENDROOT
BRANCH   4   2
ATOM      1  C   UNL     1      -0.924   3.794  25.455  0.00  0.00    +0.000 C 
ATOM      2  C   UNL     1      -1.385   3.114  25.523  0.00  0.00    +0.000 C 
ATOM      3  C   UNL     1      -1.606   2.837  26.269  0.00  0.00    +0.000 C 
ENDBRANCH   4   2
BRANCH   6   7
ATOM      7  C   UNL     1      -1.021   0.987  23.648  0.00  0.00    +0.091 C 
BRANCH   7   8
ATOM      8  C   UNL     1      -1.093   0.267  24.045  0.00  0.00    +0.227 A 
ATOM      9  N   UNL     1      -0.487  -0.134  24.434  0.00  0.00    -0.111 NA
ATOM     10  N   UNL     1      -0.803  -0.827  24.752  0.00  0.00    -0.107 NA
ATOM     11  C   UNL     1      -1.604  -0.853  24.559  0.00  0.00    +0.250 A 
ATOM     12  O   UNL     1      -1.784  -0.177  24.122  0.00  0.00    -0.420 OA
BRANCH  11  13
ATOM     13  C   UNL     1      -2.134  -1.451  24.766  0.00  0.00    +0.055 A 
ATOM     14  C   UNL     1      -2.072  -2.196  24.418  0.00  0.00    +0.005 A 
ATOM     15  C   UNL     1      -2.602  -2.794  24.625  0.00  0.00    +0.000 A 
ATOM     16  C   UNL     1      -3.193  -2.646  25.181  0.00  0.00    +0.000 A 
ATOM     17  C   UNL     1      -3.256  -1.901  25.530  0.00  0.00    +0.000 A 
ATOM     18  C   UNL     1      -2.726  -1.303  25.323  0.00  0.00    +0.005 A 
ENDBRANCH  11  13
ENDBRANCH   7   8
ENDBRANCH   6   7
BRANCH  22  23
ATOM     23  C   UNL     1      -2.713   3.623  24.687  0.00  0.00    +0.093 C 
BRANCH  23  24
ATOM     24  N   UNL     1      -3.495   3.730  24.449  0.00  0.00    -0.216 NA
BRANCH  24  25
ATOM     25  C   UNL     1      -4.075   3.916  25.007  0.00  0.00    +0.106 C 
BRANCH  25  26
ATOM     26  C   UNL     1      -4.870   3.780  24.837  0.00  0.00    +0.091 C 
BRANCH  26  27
ATOM     27  N   UNL     1      -5.424   3.750  25.447  0.00  0.00    -0.269 NA
ATOM     28  C   UNL     1      -5.814   4.436  25.686  0.00  0.00    +0.090 C 
ATOM     29  C   UNL     1      -5.588   3.032  25.821  0.00  0.00    +0.090 C 
ENDBRANCH  26  27
ENDBRANCH  25  26
ENDBRANCH  24  25
ENDBRANCH  23  24
ENDBRANCH  22  23
TORSDOF 9
ENDMDL
