MODEL 1
REMARK VINA RESULT:      -9.3      0.000      0.000
REMARK  Name = 
REMARK  5 active torsions:
REMARK  status: ('A' for Active; 'I' for Inactive)
REMARK    1  A    between atoms: N_6  and  C_7
REMARK    2  A    between atoms: C_7  and  C_8
REMARK    3  A    between atoms: C_20  and  C_21
REMARK    4  A    between atoms: C_21  and  C_22
REMARK    5  A    between atoms: C_22  and  C_23
REMARK                            x       y       z     vdW  Elec       q    Type
REMARK                         _______ _______ _______ _____ _____    ______ ____
ROOT
ATOM      1  C   UNL     1      -1.010   0.543  25.261  0.00  0.00    +0.090 C 
ATOM      2  N   UNL     1      -1.375   0.958  24.648  0.00  0.00    -0.271 NA
ATOM      3  C   UNL     1      -2.190   1.058  24.718  0.00  0.00    +0.083 C 
ATOM      4  C   UNL     1      -2.630   0.769  25.353  0.00  0.00    +0.035 C 
ATOM      5  C   UNL     1      -3.420   0.975  25.231  0.00  0.00    +0.074 C 
ATOM      6  N   UNL     1      -3.468   1.391  24.520  0.00  0.00    -0.262 NA
ATOM     15  C   UNL     1      -2.708   1.443  24.203  0.00  0.00    +0.151 C 
ATOM     16  C   UNL     1      -2.538   1.822  23.490  0.00  0.00    +0.257 C 
ATOM     17  O   UNL     1      -3.182   2.157  23.100  0.00  0.00    -0.272 OA
ATOM     18  N   UNL     1      -1.807   1.911  23.117  0.00  0.00    -0.203 NA
ATOM     19  C   UNL     1      -1.067   1.643  23.363  0.00  0.00    +0.131 C 
ATOM     20  C   UNL     1      -0.875   1.218  24.045  0.00  0.00    +0.080 C 
ENDROOT
BRANCH   6   7
ATOM      7  C   UNL     1      -4.155   1.702  24.185  0.00  0.00    +0.100 C 
BRANCH   7   8
ATOM      8  C   UNL     1      -4.791   1.908  24.667  0.00  0.00    -0.005 A 
ATOM      9  C   UNL     1      -5.355   1.342  24.873  0.00  0.00    -0.003 A 
ATOM     10  C   UNL     1      -5.991   1.549  25.355  0.00  0.00    +0.001 A 
ATOM     11  C   UNL     1      -6.064   2.323  25.632  0.00  0.00    +0.011 A 
ATOM     12  C   UNL     1      -5.501   2.889  25.426  0.00  0.00    +0.057 A 
ATOM     13 CL   UNL     1      -5.574   3.663  25.703  0.00  0.00    -0.082 Cl
ATOM     14  C   UNL     1      -4.865   2.682  24.944  0.00  0.00    +0.008 A 
ENDBRANCH   7   8
ENDBRANCH   6   7
BRANCH  20  21
ATOM     21  C   UNL     1      -0.077   1.029  24.136  0.00  0.00    +0.027 C 
BRANCH  21  22
ATOM     22  C   UNL     1       0.360   0.765  23.487  0.00  0.00    +0.087 C 
BRANCH  22  23
ATOM     23  C   UNL     1       1.173   0.905  23.452  0.00  0.00    +0.229 C 
ATOM     24  O   UNL     1       1.516   1.466  23.951  0.00  0.00    -0.275 OA
ATOM     25  N   UNL     1       1.642   0.485  22.920  0.00  0.00    -0.259 N 
ATOM     26  C   UNL     1       1.378  -0.090  22.389  0.00  0.00    +0.103 C 
ATOM     27  C   UNL     1       2.030  -0.364  21.965  0.00  0.00    +0.049 C 
ATOM     28  C   UNL     1       2.696   0.041  22.233  0.00  0.00    -0.007 A 
ATOM     29  C   UNL     1       3.492  -0.000  22.016  0.00  0.00    -0.003 A 
ATOM     30  C   UNL     1       4.046   0.484  22.389  0.00  0.00    -0.000 A 
ATOM     31  C   UNL     1       3.806   1.008  22.978  0.00  0.00    +0.001 A 
ATOM     32  C   UNL     1       3.012   1.049  23.195  0.00  0.00    +0.015 A 
ATOM     33  C   UNL     1       2.456   0.566  22.823  0.00  0.00    +0.050 A 
ENDBRANCH  22  23
ENDBRANCH  21  22
ENDBRANCH  20  21
TORSDOF 5
ENDMDL
MODEL 2
REMARK VINA RESULT:      -9.3      0.900      1.081
REMARK  Name = 
REMARK  5 active torsions:
REMARK  status: ('A' for Active; 'I' for Inactive)
REMARK    1  A    between atoms: N_6  and  C_7
REMARK    2  A    between atoms: C_7  and  C_8
REMARK    3  A    between atoms: C_20  and  C_21
REMARK    4  A    between atoms: C_21  and  C_22
REMARK    5  A    between atoms: C_22  and  C_23
REMARK                            x       y       z     vdW  Elec       q    Type
REMARK                         _______ _______ _______ _____ _____    ______ ____
ROOT
ATOM      1  C   UNL     1      -0.573   2.419  25.384  0.00  0.00    +0.090 C 
ATOM      2  N   UNL     1      -1.084   2.191  24.777  0.00  0.00    -0.271 NA
ATOM      3  C   UNL     1      -1.868   2.433  24.858  0.00  0.00    +0.083 C 
ATOM      4  C   UNL     1      -2.143   2.875  25.498  0.00  0.00    +0.035 C 
ATOM      5  C   UNL     1      -2.949   3.010  25.387  0.00  0.00    +0.074 C 
ATOM      6  N   UNL     1      -3.173   2.651  24.679  0.00  0.00    -0.262 NA
ATOM     15  C   UNL     1      -2.505   2.294  24.352  0.00  0.00    +0.151 C 
ATOM     16  C   UNL     1      -2.514   1.879  23.639  0.00  0.00    +0.257 C 
ATOM     17  O   UNL     1      -3.245   1.837  23.259  0.00  0.00    -0.272 OA
ATOM     18  N   UNL     1      -1.890   1.500  23.257  0.00  0.00    -0.203 NA
ATOM     19  C   UNL     1      -1.101   1.442  23.492  0.00  0.00    +0.131 C 
ATOM     20  C   UNL     1      -0.742   1.750  24.169  0.00  0.00    +0.080 C 
ENDROOT
BRANCH   6   7
ATOM      7  C   UNL     1      -3.932   2.649  24.355  0.00  0.00    +0.100 C 
BRANCH   7   8
ATOM      8  C   UNL     1      -4.585   2.800  24.834  0.00  0.00    -0.005 A 
ATOM      9  C   UNL     1      -4.795   3.578  25.013  0.00  0.00    -0.003 A 
ATOM     10  C   UNL     1      -5.449   3.729  25.493  0.00  0.00    +0.001 A 
ATOM     11  C   UNL     1      -5.893   3.102  25.794  0.00  0.00    +0.011 A 
ATOM     12  C   UNL     1      -5.684   2.325  25.615  0.00  0.00    +0.057 A 
ATOM     13 CL   UNL     1      -6.128   1.698  25.915  0.00  0.00    -0.082 Cl
ATOM     14  C   UNL     1      -5.030   2.174  25.135  0.00  0.00    +0.008 A 
ENDBRANCH   7   8
ENDBRANCH   6   7
BRANCH  20  21
ATOM     21  C   UNL     1       0.064   1.596  24.248  0.00  0.00    +0.027 C 
BRANCH  21  22
ATOM     22  C   UNL     1       0.445   1.102  23.708  0.00  0.00    +0.087 C 
BRANCH  22  23
ATOM     23  C   UNL     1       1.258   1.173  23.585  0.00  0.00    +0.229 C 
ATOM     24  O   UNL     1       1.681   1.773  23.963  0.00  0.00    -0.275 OA
ATOM     25  N   UNL     1       1.648   0.645  23.086  0.00  0.00    -0.259 N 
ATOM     26  C   UNL     1       1.300   0.021  22.673  0.00  0.00    +0.103 C 
ATOM     27  C   UNL     1       1.891  -0.361  22.243  0.00  0.00    +0.049 C 
ATOM     28  C   UNL     1       2.604   0.026  22.391  0.00  0.00    -0.007 A 
ATOM     29  C   UNL     1       3.371  -0.108  22.117  0.00  0.00    -0.003 A 
ATOM     30  C   UNL     1       3.988   0.381  22.366  0.00  0.00    -0.000 A 
ATOM     31  C   UNL     1       3.837   1.003  22.886  0.00  0.00    +0.001 A 
ATOM     32  C   UNL     1       3.071   1.136  23.159  0.00  0.00    +0.015 A 
ATOM     33  C   UNL     1       2.453   0.648  22.911  0.00  0.00    +0.050 A 
ENDBRANCH  22  23
ENDBRANCH  21  22
ENDBRANCH  20  21
TORSDOF 5
ENDMDL
MODEL 3
REMARK VINA RESULT:      -8.9      2.094      6.753
REMARK  Name = 
REMARK  5 active torsions:
REMARK  status: ('A' for Active; 'I' for Inactive)
REMARK    1  A    between atoms: N_6  and  C_7
REMARK    2  A    between atoms: C_7  and  C_8
REMARK    3  A    between atoms: C_20  and  C_21
REMARK    4  A    between atoms: C_21  and  C_22
REMARK    5  A    between atoms: C_22  and  C_23
REMARK                            x       y       z     vdW  Elec       q    Type
REMARK                         _______ _______ _______ _____ _____    ______ ____
ROOT
ATOM      1  C   UNL     1      -0.553   2.524  24.465  0.00  0.00    +0.090 C 
ATOM      2  N   UNL     1      -0.513   1.710  24.334  0.00  0.00    -0.271 NA
ATOM      3  C   UNL     1       0.193   1.433  24.013  0.00  0.00    +0.083 C 
ATOM      4  C   UNL     1       0.831   1.922  23.828  0.00  0.00    +0.035 C 
ATOM      5  C   UNL     1       1.434   1.450  23.520  0.00  0.00    +0.074 C 
ATOM      6  N   UNL     1       1.169   0.669  23.515  0.00  0.00    -0.262 NA
ATOM     15  C   UNL     1       0.402   0.658  23.820  0.00  0.00    +0.151 C 
ATOM     16  C   UNL     1      -0.045  -0.031  23.900  0.00  0.00    +0.257 C 
ATOM     17  O   UNL     1       0.323  -0.727  23.655  0.00  0.00    -0.272 OA
ATOM     18  N   UNL     1      -0.811  -0.115  24.194  0.00  0.00    -0.203 NA
ATOM     19  C   UNL     1      -1.320   0.469  24.480  0.00  0.00    +0.131 C 
ATOM     20  C   UNL     1      -1.187   1.281  24.542  0.00  0.00    +0.080 C 
ENDROOT
BRANCH   6   7
ATOM      7  C   UNL     1       1.596   0.014  23.252  0.00  0.00    +0.100 C 
BRANCH   7   8
ATOM      8  C   UNL     1       2.301   0.120  22.838  0.00  0.00    -0.005 A 
ATOM      9  C   UNL     1       2.308   0.070  22.015  0.00  0.00    -0.003 A 
ATOM     10  C   UNL     1       3.013   0.176  21.600  0.00  0.00    +0.001 A 
ATOM     11  C   UNL     1       3.712   0.333  22.009  0.00  0.00    +0.011 A 
ATOM     12  C   UNL     1       3.705   0.384  22.833  0.00  0.00    +0.057 A 
ATOM     13 CL   UNL     1       4.404   0.541  23.242  0.00  0.00    -0.082 Cl
ATOM     14  C   UNL     1       3.000   0.277  23.247  0.00  0.00    +0.008 A 
ENDBRANCH   7   8
ENDBRANCH   6   7
BRANCH  20  21
ATOM     21  C   UNL     1      -1.811   1.723  24.853  0.00  0.00    +0.027 C 
BRANCH  21  22
ATOM     22  C   UNL     1      -2.589   1.467  24.752  0.00  0.00    +0.087 C 
BRANCH  22  23
ATOM     23  C   UNL     1      -3.216   1.949  24.986  0.00  0.00    +0.229 C 
ATOM     24  O   UNL     1      -3.068   2.716  25.254  0.00  0.00    -0.275 OA
ATOM     25  N   UNL     1      -3.989   1.665  24.953  0.00  0.00    -0.259 N 
ATOM     26  C   UNL     1      -4.220   0.915  24.699  0.00  0.00    +0.103 C 
ATOM     27  C   UNL     1      -5.041   0.867  24.757  0.00  0.00    +0.049 C 
ATOM     28  C   UNL     1      -5.318   1.588  25.047  0.00  0.00    -0.007 A 
ATOM     29  C   UNL     1      -6.080   1.859  25.216  0.00  0.00    -0.003 A 
ATOM     30  C   UNL     1      -6.189   2.624  25.506  0.00  0.00    -0.000 A 
ATOM     31  C   UNL     1      -5.539   3.117  25.627  0.00  0.00    +0.001 A 
ATOM     32  C   UNL     1      -4.779   2.845  25.458  0.00  0.00    +0.015 A 
ATOM     33  C   UNL     1      -4.668   2.081  25.168  0.00  0.00    +0.050 A 
ENDBRANCH  22  23
ENDBRANCH  21  22
ENDBRANCH  20  21
TORSDOF 5
ENDMDL
MODEL 4
REMARK VINA RESULT:      -8.7     15.298     16.761
REMARK  Name = 
REMARK  5 active torsions:
REMARK  status: ('A' for Active; 'I' for Inactive)
REMARK    1  A    between atoms: N_6  and  C_7
REMARK    2  A    between atoms: C_7  and  C_8
REMARK    3  A    between atoms: C_20  and  C_21
REMARK    4  A    between atoms: C_21  and  C_22
REMARK    5  A    between atoms: C_22  and  C_23
REMARK                            x       y       z     vdW  Elec       q    Type
REMARK                         _______ _______ _______ _____ _____    ______ ____
ROOT
ATOM      1  C   UNL     1      -6.533  -9.623  13.636  0.00  0.00    +0.090 C 
ATOM      2  N   UNL     1      -5.776  -9.931  13.518  0.00  0.00    -0.271 NA
ATOM      3  C   UNL     1      -5.467  -9.841  12.759  0.00  0.00    +0.083 C 
ATOM      4  C   UNL     1      -5.874  -9.471  12.144  0.00  0.00    +0.035 C 
ATOM      5  C   UNL     1      -5.392  -9.486  11.474  0.00  0.00    +0.074 C 
ATOM      6  N   UNL     1      -4.688  -9.867  11.675  0.00  0.00    -0.262 NA
ATOM     15  C   UNL     1      -4.734 -10.086  12.469  0.00  0.00    +0.151 C 
ATOM     16  C   UNL     1      -4.129 -10.481  12.868  0.00  0.00    +0.257 C 
ATOM     17  O   UNL     1      -3.458 -10.651  12.420  0.00  0.00    -0.272 OA
ATOM     18  N   UNL     1      -4.108 -10.729  13.654  0.00  0.00    -0.203 NA
ATOM     19  C   UNL     1      -4.686 -10.643  14.237  0.00  0.00    +0.131 C 
ATOM     20  C   UNL     1      -5.428 -10.288  14.176  0.00  0.00    +0.080 C 
ENDROOT
BRANCH   6   7
ATOM      7  C   UNL     1      -4.050 -10.004  11.171  0.00  0.00    +0.100 C 
BRANCH   7   8
ATOM      8  C   UNL     1      -4.088  -9.764  10.383  0.00  0.00    -0.005 A 
ATOM      9  C   UNL     1      -3.893  -8.990  10.176  0.00  0.00    -0.003 A 
ATOM     10  C   UNL     1      -3.932  -8.750   9.388  0.00  0.00    +0.001 A 
ATOM     11  C   UNL     1      -4.166  -9.285   8.805  0.00  0.00    +0.011 A 
ATOM     12  C   UNL     1      -4.362 -10.059   9.012  0.00  0.00    +0.057 A 
ATOM     13 CL   UNL     1      -4.596 -10.594   8.429  0.00  0.00    -0.082 Cl
ATOM     14  C   UNL     1      -4.323 -10.299   9.800  0.00  0.00    +0.008 A 
ENDBRANCH   7   8
ENDBRANCH   6   7
BRANCH  20  21
ATOM     21  C   UNL     1      -5.883 -10.289  14.864  0.00  0.00    +0.027 C 
BRANCH  21  22
ATOM     22  C   UNL     1      -5.519 -10.381  15.599  0.00  0.00    +0.087 C 
BRANCH  22  23
ATOM     23  C   UNL     1      -5.977 -10.422  16.285  0.00  0.00    +0.229 C 
ATOM     24  O   UNL     1      -6.800 -10.381  16.234  0.00  0.00    -0.275 OA
ATOM     25  N   UNL     1      -5.613 -10.503  17.020  0.00  0.00    -0.259 N 
ATOM     26  C   UNL     1      -4.800 -10.551  17.156  0.00  0.00    +0.103 C 
ATOM     27  C   UNL     1      -4.682 -10.628  17.969  0.00  0.00    +0.049 C 
ATOM     28  C   UNL     1      -5.421 -10.628  18.335  0.00  0.00    -0.007 A 
ATOM     29  C   UNL     1      -5.645 -10.688  19.127  0.00  0.00    -0.003 A 
ATOM     30  C   UNL     1      -6.443 -10.671  19.332  0.00  0.00    -0.000 A 
ATOM     31  C   UNL     1      -7.019 -10.594  18.746  0.00  0.00    +0.001 A 
ATOM     32  C   UNL     1      -6.795 -10.534  17.954  0.00  0.00    +0.015 A 
ATOM     33  C   UNL     1      -5.996 -10.551  17.748  0.00  0.00    +0.050 A 
ENDBRANCH  22  23
ENDBRANCH  21  22
ENDBRANCH  20  21
TORSDOF 5
ENDMDL
MODEL 5
REMARK VINA RESULT:      -8.3      3.118      4.876
REMARK  Name = 
REMARK  5 active torsions:
REMARK  status: ('A' for Active; 'I' for Inactive)
REMARK    1  A    between atoms: N_6  and  C_7
REMARK    2  A    between atoms: C_7  and  C_8
REMARK    3  A    between atoms: C_20  and  C_21
REMARK    4  A    between atoms: C_21  and  C_22
REMARK    5  A    between atoms: C_22  and  C_23
REMARK                            x       y       z     vdW  Elec       q    Type
REMARK                         _______ _______ _______ _____ _____    ______ ____
ROOT
ATOM      1  C   UNL     1      -0.768   0.719  23.606  0.00  0.00    +0.090 C 
ATOM      2  N   UNL     1      -0.687   1.019  24.371  0.00  0.00    -0.271 NA
ATOM      3  C   UNL     1      -0.642   1.840  24.431  0.00  0.00    +0.083 C 
ATOM      4  C   UNL     1      -0.675   2.346  23.780  0.00  0.00    +0.035 C 
ATOM      5  C   UNL     1      -0.613   3.121  24.057  0.00  0.00    +0.074 C 
ATOM      6  N   UNL     1      -0.543   3.094  24.878  0.00  0.00    -0.262 NA
ATOM     15  C   UNL     1      -0.561   2.302  25.110  0.00  0.00    +0.151 C 
ATOM     16  C   UNL     1      -0.504   2.057  25.896  0.00  0.00    +0.257 C 
ATOM     17  O   UNL     1      -0.427   2.660  26.453  0.00  0.00    -0.272 OA
ATOM     18  N   UNL     1      -0.515   1.289  26.197  0.00  0.00    -0.203 NA
ATOM     19  C   UNL     1      -0.585   0.577  25.787  0.00  0.00    +0.131 C 
ATOM     20  C   UNL     1      -0.662   0.456  24.974  0.00  0.00    +0.080 C 
ENDROOT
BRANCH   6   7
ATOM      7  C   UNL     1      -0.468   3.744  25.380  0.00  0.00    +0.100 C 
BRANCH   7   8
ATOM      8  C   UNL     1      -0.911   4.426  25.240  0.00  0.00    -0.005 A 
ATOM      9  C   UNL     1      -0.574   5.062  24.837  0.00  0.00    -0.003 A 
ATOM     10  C   UNL     1      -1.016   5.744  24.697  0.00  0.00    +0.001 A 
ATOM     11  C   UNL     1      -1.797   5.790  24.960  0.00  0.00    +0.011 A 
ATOM     12  C   UNL     1      -2.134   5.154  25.364  0.00  0.00    +0.057 A 
ATOM     13 CL   UNL     1      -2.915   5.200  25.627  0.00  0.00    -0.082 Cl
ATOM     14  C   UNL     1      -1.692   4.472  25.504  0.00  0.00    +0.008 A 
ENDBRANCH   7   8
ENDBRANCH   6   7
BRANCH  20  21
ATOM     21  C   UNL     1      -0.720  -0.331  24.732  0.00  0.00    +0.027 C 
BRANCH  21  22
ATOM     22  C   UNL     1      -1.182  -0.861  25.164  0.00  0.00    +0.087 C 
BRANCH  22  23
ATOM     23  C   UNL     1      -1.525  -1.511  24.789  0.00  0.00    +0.229 C 
ATOM     24  O   UNL     1      -1.073  -1.980  24.282  0.00  0.00    -0.275 OA
ATOM     25  N   UNL     1      -2.319  -1.692  24.919  0.00  0.00    -0.259 N 
ATOM     26  C   UNL     1      -2.837  -1.275  25.408  0.00  0.00    +0.103 C 
ATOM     27  C   UNL     1      -3.573  -1.647  25.375  0.00  0.00    +0.049 C 
ATOM     28  C   UNL     1      -3.509  -2.292  24.866  0.00  0.00    -0.007 A 
ATOM     29  C   UNL     1      -4.058  -2.859  24.622  0.00  0.00    -0.003 A 
ATOM     30  C   UNL     1      -3.831  -3.453  24.097  0.00  0.00    -0.000 A 
ATOM     31  C   UNL     1      -3.056  -3.481  23.815  0.00  0.00    +0.001 A 
ATOM     32  C   UNL     1      -2.508  -2.914  24.059  0.00  0.00    +0.015 A 
ATOM     33  C   UNL     1      -2.735  -2.320  24.584  0.00  0.00    +0.050 A 
ENDBRANCH  22  23
ENDBRANCH  21  22
ENDBRANCH  20  21
TORSDOF 5
ENDMDL
MODEL 6
REMARK VINA RESULT:      -8.1     14.448     15.181
REMARK  Name = 
REMARK  5 active torsions:
REMARK  status: ('A' for Active; 'I' for Inactive)
REMARK    1  A    between atoms: N_6  and  C_7
REMARK    2  A    between atoms: C_7  and  C_8
REMARK    3  A    between atoms: C_20  and  C_21
REMARK    4  A    between atoms: C_21  and  C_22
REMARK    5  A    between atoms: C_22  and  C_23
REMARK                            x       y       z     vdW  Elec       q    Type
REMARK                         _______ _______ _______ _____ _____    ______ ____
ROOT
ATOM      1  C   UNL     1      -7.242 -10.431  13.971  0.00  0.00    +0.090 C 
ATOM      2  N   UNL     1      -6.969 -10.160  14.702  0.00  0.00    -0.271 NA
ATOM      3  C   UNL     1      -7.551  -9.953  15.247  0.00  0.00    +0.083 C 
ATOM      4  C   UNL     1      -8.360 -10.007  15.091  0.00  0.00    +0.035 C 
ATOM      5  C   UNL     1      -8.767  -9.754  15.762  0.00  0.00    +0.074 C 
ATOM      6  N   UNL     1      -8.210  -9.544  16.334  0.00  0.00    -0.262 NA
ATOM     15  C   UNL     1      -7.459  -9.667  16.015  0.00  0.00    +0.151 C 
ATOM     16  C   UNL     1      -6.760  -9.518  16.428  0.00  0.00    +0.257 C 
ATOM     17  O   UNL     1      -6.852  -9.231  17.196  0.00  0.00    -0.272 OA
ATOM     18  N   UNL     1      -5.982  -9.617  16.174  0.00  0.00    -0.203 NA
ATOM     19  C   UNL     1      -5.709  -9.891  15.445  0.00  0.00    +0.131 C 
ATOM     20  C   UNL     1      -6.149 -10.133  14.789  0.00  0.00    +0.080 C 
ENDROOT
BRANCH   6   7
ATOM      7  C   UNL     1      -8.375  -9.261  17.091  0.00  0.00    +0.100 C 
BRANCH   7   8
ATOM      8  C   UNL     1      -9.153  -9.092  17.307  0.00  0.00    -0.005 A 
ATOM      9  C   UNL     1      -9.615  -9.670  17.672  0.00  0.00    -0.003 A 
ATOM     10  C   UNL     1     -10.393  -9.501  17.888  0.00  0.00    +0.001 A 
ATOM     11  C   UNL     1     -10.709  -8.753  17.740  0.00  0.00    +0.011 A 
ATOM     12  C   UNL     1     -10.247  -8.175  17.375  0.00  0.00    +0.057 A 
ATOM     13 CL   UNL     1     -10.563  -7.427  17.227  0.00  0.00    -0.082 Cl
ATOM     14  C   UNL     1      -9.469  -8.344  17.159  0.00  0.00    +0.008 A 
ENDBRANCH   7   8
ENDBRANCH   6   7
BRANCH  20  21
ATOM     21  C   UNL     1      -5.711 -10.379  14.135  0.00  0.00    +0.027 C 
BRANCH  21  22
ATOM     22  C   UNL     1      -4.886 -10.388  14.171  0.00  0.00    +0.087 C 
BRANCH  22  23
ATOM     23  C   UNL     1      -4.443 -10.410  13.475  0.00  0.00    +0.229 C 
ATOM     24  O   UNL     1      -4.817 -10.315  12.746  0.00  0.00    -0.275 OA
ATOM     25  N   UNL     1      -3.627 -10.525  13.509  0.00  0.00    -0.259 N 
ATOM     26  C   UNL     1      -3.179 -10.627  14.195  0.00  0.00    +0.103 C 
ATOM     27  C   UNL     1      -2.391 -10.724  13.973  0.00  0.00    +0.049 C 
ATOM     28  C   UNL     1      -2.351 -10.682  13.151  0.00  0.00    -0.007 A 
ATOM     29  C   UNL     1      -1.717 -10.740  12.625  0.00  0.00    -0.003 A 
ATOM     30  C   UNL     1      -1.848 -10.675  11.813  0.00  0.00    -0.000 A 
ATOM     31  C   UNL     1      -2.612 -10.552  11.526  0.00  0.00    +0.001 A 
ATOM     32  C   UNL     1      -3.245 -10.494  12.052  0.00  0.00    +0.015 A 
ATOM     33  C   UNL     1      -3.115 -10.559  12.864  0.00  0.00    +0.050 A 
ENDBRANCH  22  23
ENDBRANCH  21  22
ENDBRANCH  20  21
TORSDOF 5
ENDMDL
MODEL 7
REMARK VINA RESULT:      -8.1      0.793      1.030
REMARK  Name = 
REMARK  5 active torsions:
REMARK  status: ('A' for Active; 'I' for Inactive)
REMARK    1  A    between atoms: N_6  and  C_7
REMARK    2  A    between atoms: C_7  and  C_8
REMARK    3  A    between atoms: C_20  and  C_21
REMARK    4  A    between atoms: C_21  and  C_22
REMARK    5  A    between atoms: C_22  and  C_23
REMARK                            x       y       z     vdW  Elec       q    Type
REMARK                         _______ _______ _______ _____ _____    ______ ____
ROOT
ATOM      1  C   UNL     1      -0.739  -0.121  24.886  0.00  0.00    +0.090 C 
ATOM      2  N   UNL     1      -1.033   0.407  24.323  0.00  0.00    -0.271 NA
ATOM      3  C   UNL     1      -1.801   0.678  24.452  0.00  0.00    +0.083 C 
ATOM      4  C   UNL     1      -2.261   0.447  25.096  0.00  0.00    +0.035 C 
ATOM      5  C   UNL     1      -2.990   0.829  25.038  0.00  0.00    +0.074 C 
ATOM      6  N   UNL     1      -2.980   1.296  24.358  0.00  0.00    -0.262 NA
ATOM     15  C   UNL     1      -2.245   1.202  23.996  0.00  0.00    +0.151 C 
ATOM     16  C   UNL     1      -2.031   1.586  23.298  0.00  0.00    +0.257 C 
ATOM     17  O   UNL     1      -2.603   2.081  22.971  0.00  0.00    -0.272 OA
ATOM     18  N   UNL     1      -1.319   1.540  22.883  0.00  0.00    -0.203 NA
ATOM     19  C   UNL     1      -0.646   1.098  23.064  0.00  0.00    +0.131 C 
ATOM     20  C   UNL     1      -0.518   0.594  23.705  0.00  0.00    +0.080 C 
ENDROOT
BRANCH   6   7
ATOM      7  C   UNL     1      -3.597   1.773  24.088  0.00  0.00    +0.100 C 
BRANCH   7   8
ATOM      8  C   UNL     1      -4.246   1.923  24.575  0.00  0.00    -0.005 A 
ATOM      9  C   UNL     1      -4.844   1.361  24.651  0.00  0.00    -0.003 A 
ATOM     10  C   UNL     1      -5.493   1.511  25.138  0.00  0.00    +0.001 A 
ATOM     11  C   UNL     1      -5.543   2.225  25.550  0.00  0.00    +0.011 A 
ATOM     12  C   UNL     1      -4.944   2.787  25.474  0.00  0.00    +0.057 A 
ATOM     13 CL   UNL     1      -4.993   3.500  25.886  0.00  0.00    -0.082 Cl
ATOM     14  C   UNL     1      -4.295   2.636  24.987  0.00  0.00    +0.008 A 
ENDBRANCH   7   8
ENDBRANCH   6   7
BRANCH  20  21
ATOM     21  C   UNL     1       0.221   0.229  23.732  0.00  0.00    +0.027 C 
BRANCH  21  22
ATOM     22  C   UNL     1       0.833   0.501  23.250  0.00  0.00    +0.087 C 
BRANCH  22  23
ATOM     23  C   UNL     1       1.560   0.111  23.247  0.00  0.00    +0.229 C 
ATOM     24  O   UNL     1       1.591  -0.704  23.378  0.00  0.00    -0.275 OA
ATOM     25  N   UNL     1       2.255   0.533  23.112  0.00  0.00    -0.259 N 
ATOM     26  C   UNL     1       2.310   1.345  22.973  0.00  0.00    +0.103 C 
ATOM     27  C   UNL     1       3.106   1.533  22.867  0.00  0.00    +0.049 C 
ATOM     28  C   UNL     1       3.543   0.838  22.941  0.00  0.00    -0.007 A 
ATOM     29  C   UNL     1       4.353   0.687  22.890  0.00  0.00    -0.003 A 
ATOM     30  C   UNL     1       4.636  -0.081  22.990  0.00  0.00    -0.000 A 
ATOM     31  C   UNL     1       4.111  -0.699  23.141  0.00  0.00    +0.001 A 
ATOM     32  C   UNL     1       3.302  -0.548  23.192  0.00  0.00    +0.015 A 
ATOM     33  C   UNL     1       3.017   0.220  23.092  0.00  0.00    +0.050 A 
ENDBRANCH  22  23
ENDBRANCH  21  22
ENDBRANCH  20  21
TORSDOF 5
ENDMDL
MODEL 8
REMARK VINA RESULT:      -8.1      3.104      4.797
REMARK  Name = 
REMARK  5 active torsions:
REMARK  status: ('A' for Active; 'I' for Inactive)
REMARK    1  A    between atoms: N_6  and  C_7
REMARK    2  A    between atoms: C_7  and  C_8
REMARK    3  A    between atoms: C_20  and  C_21
REMARK    4  A    between atoms: C_21  and  C_22
REMARK    5  A    between atoms: C_22  and  C_23
REMARK                            x       y       z     vdW  Elec       q    Type
REMARK                         _______ _______ _______ _____ _____    ______ ____
ROOT
ATOM      1  C   UNL     1      -0.282   0.724  23.951  0.00  0.00    +0.090 C 
ATOM      2  N   UNL     1      -0.674   0.423  24.612  0.00  0.00    -0.271 NA
ATOM      3  C   UNL     1      -1.017  -0.321  24.518  0.00  0.00    +0.083 C 
ATOM      4  C   UNL     1      -0.981  -0.752  23.816  0.00  0.00    +0.035 C 
ATOM      5  C   UNL     1      -1.383  -1.463  23.932  0.00  0.00    +0.074 C 
ATOM      6  N   UNL     1      -1.667  -1.472  24.707  0.00  0.00    -0.262 NA
ATOM     15  C   UNL     1      -1.441  -0.766  25.069  0.00  0.00    +0.151 C 
ATOM     16  C   UNL     1      -1.627  -0.576  25.850  0.00  0.00    +0.257 C 
ATOM     17  O   UNL     1      -2.063  -1.142  26.262  0.00  0.00    -0.272 OA
ATOM     18  N   UNL     1      -1.435   0.106  26.273  0.00  0.00    -0.203 NA
ATOM     19  C   UNL     1      -1.010   0.766  26.020  0.00  0.00    +0.131 C 
ATOM     20  C   UNL     1      -0.671   0.907  25.281  0.00  0.00    +0.080 C 
ENDROOT
BRANCH   6   7
ATOM      7  C   UNL     1      -2.102  -2.079  25.057  0.00  0.00    +0.100 C 
BRANCH   7   8
ATOM      8  C   UNL     1      -2.731  -2.424  24.651  0.00  0.00    -0.005 A 
ATOM      9  C   UNL     1      -2.693  -3.216  24.425  0.00  0.00    -0.003 A 
ATOM     10  C   UNL     1      -3.322  -3.561  24.018  0.00  0.00    +0.001 A 
ATOM     11  C   UNL     1      -3.991  -3.112  23.837  0.00  0.00    +0.011 A 
ATOM     12  C   UNL     1      -4.029  -2.319  24.062  0.00  0.00    +0.057 A 
ATOM     13 CL   UNL     1      -4.697  -1.871  23.881  0.00  0.00    -0.082 Cl
ATOM     14  C   UNL     1      -3.399  -1.975  24.469  0.00  0.00    +0.008 A 
ENDBRANCH   7   8
ENDBRANCH   6   7
BRANCH  20  21
ATOM     21  C   UNL     1      -0.277   1.627  25.199  0.00  0.00    +0.027 C 
BRANCH  21  22
ATOM     22  C   UNL     1      -0.526   2.285  25.631  0.00  0.00    +0.087 C 
BRANCH  22  23
ATOM     23  C   UNL     1      -0.444   3.042  25.314  0.00  0.00    +0.229 C 
ATOM     24  O   UNL     1       0.231   3.236  24.879  0.00  0.00    -0.275 OA
ATOM     25  N   UNL     1      -1.036   3.605  25.430  0.00  0.00    -0.259 N 
ATOM     26  C   UNL     1      -1.737   3.491  25.850  0.00  0.00    +0.103 C 
ATOM     27  C   UNL     1      -2.165   4.196  25.826  0.00  0.00    +0.049 C 
ATOM     28  C   UNL     1      -1.729   4.744  25.393  0.00  0.00    -0.007 A 
ATOM     29  C   UNL     1      -1.877   5.531  25.189  0.00  0.00    -0.003 A 
ATOM     30  C   UNL     1      -1.326   5.951  24.741  0.00  0.00    -0.000 A 
ATOM     31  C   UNL     1      -0.628   5.585  24.496  0.00  0.00    +0.001 A 
ATOM     32  C   UNL     1      -0.481   4.800  24.700  0.00  0.00    +0.015 A 
ATOM     33  C   UNL     1      -1.031   4.379  25.148  0.00  0.00    +0.050 A 
ENDBRANCH  22  23
ENDBRANCH  21  22
ENDBRANCH  20  21
TORSDOF 5
ENDMDL
MODEL 9
REMARK VINA RESULT:      -8.0      3.964      5.357
REMARK  Name = 
REMARK  5 active torsions:
REMARK  status: ('A' for Active; 'I' for Inactive)
REMARK    1  A    between atoms: N_6  and  C_7
REMARK    2  A    between atoms: C_7  and  C_8
REMARK    3  A    between atoms: C_20  and  C_21
REMARK    4  A    between atoms: C_21  and  C_22
REMARK    5  A    between atoms: C_22  and  C_23
REMARK                            x       y       z     vdW  Elec       q    Type
REMARK                         _______ _______ _______ _____ _____    ______ ____
ROOT
ATOM      1  C   UNL     1      -3.676   1.386  23.416  0.00  0.00    +0.090 C 
ATOM      2  N   UNL     1      -3.812   1.809  24.112  0.00  0.00    -0.271 NA
ATOM      3  C   UNL     1      -3.414   2.527  24.179  0.00  0.00    +0.083 C 
ATOM      4  C   UNL     1      -2.907   2.822  23.598  0.00  0.00    +0.035 C 
ATOM      5  C   UNL     1      -2.615   3.548  23.859  0.00  0.00    +0.074 C 
ATOM      6  N   UNL     1      -2.940   3.702  24.601  0.00  0.00    -0.262 NA
ATOM     15  C   UNL     1      -3.434   3.071  24.799  0.00  0.00    +0.151 C 
ATOM     16  C   UNL     1      -3.858   3.030  25.506  0.00  0.00    +0.257 C 
ATOM     17  O   UNL     1      -3.760   3.668  26.019  0.00  0.00    -0.272 OA
ATOM     18  N   UNL     1      -4.366   2.435  25.767  0.00  0.00    -0.203 NA
ATOM     19  C   UNL     1      -4.576   1.734  25.386  0.00  0.00    +0.131 C 
ATOM     20  C   UNL     1      -4.330   1.455  24.649  0.00  0.00    +0.080 C 
ENDROOT
BRANCH   6   7
ATOM      7  C   UNL     1      -2.796   4.369  25.065  0.00  0.00    +0.100 C 
BRANCH   7   8
ATOM      8  C   UNL     1      -2.066   4.750  25.024  0.00  0.00    -0.005 A 
ATOM      9  C   UNL     1      -2.029   5.554  24.843  0.00  0.00    -0.003 A 
ATOM     10  C   UNL     1      -1.299   5.935  24.803  0.00  0.00    +0.001 A 
ATOM     11  C   UNL     1      -0.604   5.512  24.943  0.00  0.00    +0.011 A 
ATOM     12  C   UNL     1      -0.641   4.707  25.123  0.00  0.00    +0.057 A 
ATOM     13 CL   UNL     1       0.053   4.284  25.263  0.00  0.00    -0.082 Cl
ATOM     14  C   UNL     1      -1.372   4.327  25.164  0.00  0.00    +0.008 A 
ENDBRANCH   7   8
ENDBRANCH   6   7
BRANCH  20  21
ATOM     21  C   UNL     1      -4.642   0.727  24.419  0.00  0.00    +0.027 C 
BRANCH  21  22
ATOM     22  C   UNL     1      -4.531   0.062  24.895  0.00  0.00    +0.087 C 
BRANCH  22  23
ATOM     23  C   UNL     1      -4.453  -0.684  24.552  0.00  0.00    +0.229 C 
ATOM     24  O   UNL     1      -4.849  -0.856  23.848  0.00  0.00    -0.275 OA
ATOM     25  N   UNL     1      -3.981  -1.256  24.911  0.00  0.00    -0.259 N 
ATOM     26  C   UNL     1      -3.555  -1.164  25.611  0.00  0.00    +0.103 C 
ATOM     27  C   UNL     1      -3.162  -1.873  25.766  0.00  0.00    +0.049 C 
ATOM     28  C   UNL     1      -3.345  -2.403  25.162  0.00  0.00    -0.007 A 
ATOM     29  C   UNL     1      -3.116  -3.184  25.024  0.00  0.00    -0.003 A 
ATOM     30  C   UNL     1      -3.394  -3.583  24.358  0.00  0.00    -0.000 A 
ATOM     31  C   UNL     1      -3.900  -3.202  23.829  0.00  0.00    +0.001 A 
ATOM     32  C   UNL     1      -4.128  -2.422  23.967  0.00  0.00    +0.015 A 
ATOM     33  C   UNL     1      -3.851  -2.022  24.633  0.00  0.00    +0.050 A 
ENDBRANCH  22  23
ENDBRANCH  21  22
ENDBRANCH  20  21
TORSDOF 5
ENDMDL
MODEL 10
REMARK VINA RESULT:      -7.3      3.988      5.060
REMARK  Name = 
REMARK  5 active torsions:
REMARK  status: ('A' for Active; 'I' for Inactive)
REMARK    1  A    between atoms: N_6  and  C_7
REMARK    2  A    between atoms: C_7  and  C_8
REMARK    3  A    between atoms: C_20  and  C_21
REMARK    4  A    between atoms: C_21  and  C_22
REMARK    5  A    between atoms: C_22  and  C_23
REMARK                            x       y       z     vdW  Elec       q    Type
REMARK                         _______ _______ _______ _____ _____    ______ ____
ROOT
ATOM      1  C   UNL     1      -3.392   1.917  23.356  0.00  0.00    +0.090 C 
ATOM      2  N   UNL     1      -3.749   1.535  23.995  0.00  0.00    -0.271 NA
ATOM      3  C   UNL     1      -3.793   0.714  23.944  0.00  0.00    +0.083 C 
ATOM      4  C   UNL     1      -3.505   0.283  23.301  0.00  0.00    +0.035 C 
ATOM      5  C   UNL     1      -3.646  -0.517  23.447  0.00  0.00    +0.074 C 
ATOM      6  N   UNL     1      -4.022  -0.580  24.178  0.00  0.00    -0.262 NA
ATOM     15  C   UNL     1      -4.113   0.180  24.485  0.00  0.00    +0.151 C 
ATOM     16  C   UNL     1      -4.468   0.337  25.214  0.00  0.00    +0.257 C 
ATOM     17  O   UNL     1      -4.735  -0.323  25.630  0.00  0.00    -0.272 OA
ATOM     18  N   UNL     1      -4.591   1.066  25.579  0.00  0.00    -0.203 NA
ATOM     19  C   UNL     1      -4.389   1.818  25.308  0.00  0.00    +0.131 C 
ATOM     20  C   UNL     1      -4.014   2.027  24.603  0.00  0.00    +0.080 C 
ENDROOT
BRANCH   6   7
ATOM      7  C   UNL     1      -4.265  -1.281  24.539  0.00  0.00    +0.100 C 
BRANCH   7   8
ATOM      8  C   UNL     1      -3.857  -1.983  24.393  0.00  0.00    -0.005 A 
ATOM      9  C   UNL     1      -4.204  -2.574  23.934  0.00  0.00    -0.003 A 
ATOM     10  C   UNL     1      -3.796  -3.276  23.788  0.00  0.00    +0.001 A 
ATOM     11  C   UNL     1      -3.040  -3.387  24.101  0.00  0.00    +0.011 A 
ATOM     12  C   UNL     1      -2.694  -2.796  24.560  0.00  0.00    +0.057 A 
ATOM     13 CL   UNL     1      -1.938  -2.906  24.873  0.00  0.00    -0.082 Cl
ATOM     14  C   UNL     1      -3.102  -2.094  24.706  0.00  0.00    +0.008 A 
ENDBRANCH   7   8
ENDBRANCH   6   7
BRANCH  20  21
ATOM     21  C   UNL     1      -3.888   2.835  24.490  0.00  0.00    +0.027 C 
BRANCH  21  22
ATOM     22  C   UNL     1      -3.519   3.280  25.078  0.00  0.00    +0.087 C 
BRANCH  22  23
ATOM     23  C   UNL     1      -3.091   3.957  24.877  0.00  0.00    +0.229 C 
ATOM     24  O   UNL     1      -3.452   4.558  24.442  0.00  0.00    -0.275 OA
ATOM     25  N   UNL     1      -2.303   4.031  25.109  0.00  0.00    -0.259 N 
ATOM     26  C   UNL     1      -1.871   3.478  25.543  0.00  0.00    +0.103 C 
ATOM     27  C   UNL     1      -1.110   3.777  25.651  0.00  0.00    +0.049 C 
ATOM     28  C   UNL     1      -1.072   4.515  25.284  0.00  0.00    -0.007 A 
ATOM     29  C   UNL     1      -0.460   5.064  25.211  0.00  0.00    -0.003 A 
ATOM     30  C   UNL     1      -0.587   5.770  24.804  0.00  0.00    -0.000 A 
ATOM     31  C   UNL     1      -1.324   5.927  24.469  0.00  0.00    +0.001 A 
ATOM     32  C   UNL     1      -1.935   5.378  24.542  0.00  0.00    +0.015 A 
ATOM     33  C   UNL     1      -1.809   4.672  24.949  0.00  0.00    +0.050 A 
ENDBRANCH  22  23
ENDBRANCH  21  22
ENDBRANCH  20  21
TORSDOF 5
ENDMDL
