REMARK  Name = 
REMARK  8 active torsions:
REMARK  status: ('A' for Active; 'I' for Inactive)
REMARK    1  A    between atoms: N_5  and  C_8
REMARK    2  A    between atoms: C_9  and  C_10
REMARK    3  A    between atoms: C_10  and  N_11
REMARK    4  A    between atoms: N_11  and  C_12
REMARK    5  A    between atoms: N_11  and  C_20
REMARK    6  A    between atoms: C_12  and  C_13
REMARK    7  A    between atoms: C_20  and  C_21
REMARK    8  A    between atoms: C_29  and  C_30
REMARK                            x       y       z     vdW  Elec       q    Type
REMARK                         _______ _______ _______ _____ _____    ______ ____
ROOT
ATOM     11  N   UNL     1       3.387  -3.319   0.000  0.00  0.00    -0.263 NA
ENDROOT
BRANCH  11  10
ATOM     10  C   UNL     1       2.774  -2.767   0.000  0.00  0.00    +0.104 C 
BRANCH  10   9
ATOM      8  C   UNL     1       1.322  -2.537   0.000  0.00  0.00    +0.120 C 
ATOM      9  C   UNL     1       1.990  -3.022   0.000  0.00  0.00    +0.148 C 
ATOM     28  O   UNL     1       1.735  -3.806   0.000  0.00  0.00    -0.350 OA
ATOM     29  C   UNL     1       0.910  -3.806   0.000  0.00  0.00    +0.180 C 
ATOM     32  C   UNL     1       0.655  -3.022   0.000  0.00  0.00    +0.198 C 
ATOM     33  O   UNL     1      -0.130  -2.767   0.000  0.00  0.00    -0.219 OA
BRANCH   8   5
ATOM      1  C   UNL     1       1.322   0.763   0.000  0.00  0.00    +0.090 C 
ATOM      2  N   UNL     1       1.322  -0.062   0.000  0.00  0.00    -0.269 NA
ATOM      3  C   UNL     1       2.037  -0.474   0.000  0.00  0.00    +0.090 C 
ATOM      4  C   UNL     1       2.037  -1.299   0.000  0.00  0.00    +0.090 C 
ATOM      5  N   UNL     1       1.322  -1.712   0.000  0.00  0.00    -0.267 NA
ATOM      6  C   UNL     1       0.608  -1.299   0.000  0.00  0.00    +0.090 C 
ATOM      7  C   UNL     1       0.608  -0.474   0.000  0.00  0.00    +0.090 C 
ENDBRANCH   8   5
BRANCH  29  30
ATOM     30  C   UNL     1       0.425  -4.474   0.000  0.00  0.00    +0.214 C 
ATOM     31  O   UNL     1       0.760  -5.227   0.000  0.00  0.00    -0.218 OA
ENDBRANCH  29  30
ENDBRANCH  10   9
ENDBRANCH  11  10
BRANCH  11  12
ATOM     12  C   UNL     1       4.172  -3.064   0.000  0.00  0.00    +0.099 C 
BRANCH  12  13
ATOM     13  C   UNL     1       4.343  -2.257   0.000  0.00  0.00    -0.006 A 
ATOM     14  C   UNL     1       3.730  -1.705   0.000  0.00  0.00    -0.002 A 
ATOM     15  C   UNL     1       3.902  -0.898   0.000  0.00  0.00    +0.011 A 
ATOM     16  C   UNL     1       4.687  -0.643   0.000  0.00  0.00    +0.058 A 
ATOM     17 CL   UNL     1       4.858   0.164   0.000  0.00  0.00    -0.082 Cl
ATOM     18  C   UNL     1       5.300  -1.195   0.000  0.00  0.00    +0.011 A 
ATOM     19  C   UNL     1       5.128  -2.002   0.000  0.00  0.00    -0.002 A 
ENDBRANCH  12  13
ENDBRANCH  11  12
BRANCH  11  20
ATOM     20  C   UNL     1       3.216  -4.126   0.000  0.00  0.00    +0.099 C 
BRANCH  20  21
ATOM     21  C   UNL     1       3.829  -4.678   0.000  0.00  0.00    -0.005 A 
ATOM     22  C   UNL     1       4.614  -4.423   0.000  0.00  0.00    -0.003 A 
ATOM     23  C   UNL     1       5.227  -4.975   0.000  0.00  0.00    +0.001 A 
ATOM     24  C   UNL     1       5.055  -5.782   0.000  0.00  0.00    +0.011 A 
ATOM     25  C   UNL     1       4.271  -6.037   0.000  0.00  0.00    +0.057 A 
ATOM     26 CL   UNL     1       4.099  -6.844   0.000  0.00  0.00    -0.082 Cl
ATOM     27  C   UNL     1       3.657  -5.485   0.000  0.00  0.00    +0.008 A 
ENDBRANCH  20  21
ENDBRANCH  11  20
TORSDOF 8
