MODEL 1
REMARK VINA RESULT:      -7.7      0.000      0.000
REMARK  Name = 
REMARK  8 active torsions:
REMARK  status: ('A' for Active; 'I' for Inactive)
REMARK    1  A    between atoms: N_4  and  C_5
REMARK    2  A    between atoms: C_8  and  C_9
REMARK    3  A    between atoms: C_9  and  N_10
REMARK    4  A    between atoms: N_10  and  C_11
REMARK    5  A    between atoms: C_14  and  C_15
REMARK    6  A    between atoms: C_15  and  N_16
REMARK    7  A    between atoms: N_16  and  S_17
REMARK    8  A    between atoms: S_17  and  C_20
REMARK                            x       y       z     vdW  Elec       q    Type
REMARK                         _______ _______ _______ _____ _____    ______ ____
ROOT
ATOM     11  C   UNL     1       0.435   0.528  23.627  0.00  0.00    +0.135 C 
ATOM     12  C   UNL     1       0.027  -0.168  23.459  0.00  0.00    +0.162 C 
ATOM     13  O   UNL     1      -0.766  -0.052  23.649  0.00  0.00    -0.350 OA
ATOM     14  C   UNL     1      -0.850   0.717  23.936  0.00  0.00    +0.166 C 
ATOM     26  C   UNL     1      -0.107   1.076  23.922  0.00  0.00    +0.199 C 
ATOM     27  O   UNL     1       0.063   1.846  24.162  0.00  0.00    -0.219 OA
ENDROOT
BRANCH  11  10
ATOM     10  N   UNL     1       1.243   0.656  23.520  0.00  0.00    -0.209 NA
BRANCH  10   9
ATOM      9  C   UNL     1       1.650   0.253  22.926  0.00  0.00    +0.115 C 
BRANCH   9   8
ATOM      5  C   UNL     1       4.123   0.227  22.916  0.00  0.00    +0.073 A 
ATOM      6  C   UNL     1       3.718   0.927  22.751  0.00  0.00    +0.016 A 
ATOM      7  C   UNL     1       2.893   0.935  22.754  0.00  0.00    -0.002 A 
ATOM      8  C   UNL     1       2.474   0.245  22.923  0.00  0.00    -0.005 A 
ATOM     28  C   UNL     1       2.880  -0.454  23.088  0.00  0.00    -0.002 A 
ATOM     29  C   UNL     1       3.705  -0.463  23.085  0.00  0.00    +0.016 A 
BRANCH   5   4
ATOM      1  C   UNL     1       6.190   0.309  23.615  0.00  0.00    +0.097 C 
ATOM      2  C   UNL     1       5.365   0.318  23.618  0.00  0.00    +0.246 C 
ATOM      3  O   UNL     1       4.957   0.425  24.326  0.00  0.00    -0.273 OA
ATOM      4  N   UNL     1       4.949   0.219  22.913  0.00  0.00    -0.179 NA
ENDBRANCH   5   4
ENDBRANCH   9   8
ENDBRANCH  10   9
ENDBRANCH  11  10
BRANCH  14  15
ATOM     15  C   UNL     1      -1.553   1.066  24.191  0.00  0.00    +0.148 C 
BRANCH  15  16
ATOM     16  N   UNL     1      -2.274   0.687  24.057  0.00  0.00    -0.075 NA
BRANCH  16  17
ATOM     17  S   UNL     1      -2.980   1.067  24.249  0.00  0.00    +0.077 S 
ATOM     18  O   UNL     1      -2.840   0.924  25.049  0.00  0.00    -0.152 OA
ATOM     19  O   UNL     1      -3.120   1.210  23.448  0.00  0.00    -0.152 OA
BRANCH  17  20
ATOM     20  C   UNL     1      -3.687   1.447  24.440  0.00  0.00    +0.124 A 
ATOM     21  C   UNL     1      -4.306   1.019  24.779  0.00  0.00    +0.020 A 
ATOM     22  C   UNL     1      -5.014   1.398  24.971  0.00  0.00    +0.001 A 
ATOM     23  C   UNL     1      -5.101   2.206  24.824  0.00  0.00    +0.000 A 
ATOM     24  C   UNL     1      -4.482   2.633  24.486  0.00  0.00    +0.001 A 
ATOM     25  C   UNL     1      -3.775   2.253  24.294  0.00  0.00    +0.020 A 
ENDBRANCH  17  20
ENDBRANCH  16  17
ENDBRANCH  15  16
ENDBRANCH  14  15
TORSDOF 8
ENDMDL
MODEL 2
REMARK VINA RESULT:      -7.5      4.561      5.908
REMARK  Name = 
REMARK  8 active torsions:
REMARK  status: ('A' for Active; 'I' for Inactive)
REMARK    1  A    between atoms: N_4  and  C_5
REMARK    2  A    between atoms: C_8  and  C_9
REMARK    3  A    between atoms: C_9  and  N_10
REMARK    4  A    between atoms: N_10  and  C_11
REMARK    5  A    between atoms: C_14  and  C_15
REMARK    6  A    between atoms: C_15  and  N_16
REMARK    7  A    between atoms: N_16  and  S_17
REMARK    8  A    between atoms: S_17  and  C_20
REMARK                            x       y       z     vdW  Elec       q    Type
REMARK                         _______ _______ _______ _____ _____    ______ ____
ROOT
ATOM     11  C   UNL     1      -4.630   1.389  24.775  0.00  0.00    +0.135 C 
ATOM     12  C   UNL     1      -5.055   1.743  25.386  0.00  0.00    +0.162 C 
ATOM     13  O   UNL     1      -4.791   2.520  25.465  0.00  0.00    -0.350 OA
ATOM     14  C   UNL     1      -4.202   2.647  24.901  0.00  0.00    +0.166 C 
ATOM     26  C   UNL     1      -4.102   1.949  24.475  0.00  0.00    +0.199 C 
ATOM     27  O   UNL     1      -3.569   1.829  23.858  0.00  0.00    -0.219 OA
ENDROOT
BRANCH  11  10
ATOM     10  N   UNL     1      -4.716   0.613  24.509  0.00  0.00    -0.209 NA
BRANCH  10   9
ATOM      9  C   UNL     1      -4.733  -0.009  25.051  0.00  0.00    +0.115 C 
BRANCH   9   8
ATOM      5  C   UNL     1      -3.362  -2.030  24.657  0.00  0.00    +0.073 A 
ATOM      6  C   UNL     1      -3.868  -1.754  24.066  0.00  0.00    +0.016 A 
ATOM      7  C   UNL     1      -4.325  -1.080  24.197  0.00  0.00    -0.002 A 
ATOM      8  C   UNL     1      -4.276  -0.682  24.919  0.00  0.00    -0.005 A 
ATOM     28  C   UNL     1      -3.771  -0.959  25.509  0.00  0.00    -0.002 A 
ATOM     29  C   UNL     1      -3.313  -1.634  25.378  0.00  0.00    +0.016 A 
BRANCH   5   4
ATOM      1  C   UNL     1      -1.643  -3.306  24.228  0.00  0.00    +0.097 C 
ATOM      2  C   UNL     1      -2.100  -2.632  24.359  0.00  0.00    +0.246 C 
ATOM      3  O   UNL     1      -1.753  -1.885  24.324  0.00  0.00    -0.273 OA
ATOM      4  N   UNL     1      -2.904  -2.705  24.525  0.00  0.00    -0.179 NA
ENDBRANCH   5   4
ENDBRANCH   9   8
ENDBRANCH  10   9
ENDBRANCH  11  10
BRANCH  14  15
ATOM     15  C   UNL     1      -3.785   3.350  24.785  0.00  0.00    +0.148 C 
BRANCH  15  16
ATOM     16  N   UNL     1      -3.389   3.704  25.417  0.00  0.00    -0.075 NA
BRANCH  16  17
ATOM     17  S   UNL     1      -2.680   4.106  25.285  0.00  0.00    +0.077 S 
ATOM     18  O   UNL     1      -3.011   4.472  24.624  0.00  0.00    -0.152 OA
ATOM     19  O   UNL     1      -2.350   3.739  25.947  0.00  0.00    -0.152 OA
BRANCH  17  20
ATOM     20  C   UNL     1      -1.972   4.507  25.154  0.00  0.00    +0.124 A 
ATOM     21  C   UNL     1      -1.964   5.332  25.133  0.00  0.00    +0.020 A 
ATOM     22  C   UNL     1      -1.255   5.735  25.001  0.00  0.00    +0.001 A 
ATOM     23  C   UNL     1      -0.555   5.311  24.891  0.00  0.00    +0.000 A 
ATOM     24  C   UNL     1      -0.564   4.487  24.912  0.00  0.00    +0.001 A 
ATOM     25  C   UNL     1      -1.273   4.085  25.044  0.00  0.00    +0.020 A 
ENDBRANCH  17  20
ENDBRANCH  16  17
ENDBRANCH  15  16
ENDBRANCH  14  15
TORSDOF 8
ENDMDL
MODEL 3
REMARK VINA RESULT:      -7.5      1.691      7.029
REMARK  Name = 
REMARK  8 active torsions:
REMARK  status: ('A' for Active; 'I' for Inactive)
REMARK    1  A    between atoms: N_4  and  C_5
REMARK    2  A    between atoms: C_8  and  C_9
REMARK    3  A    between atoms: C_9  and  N_10
REMARK    4  A    between atoms: N_10  and  C_11
REMARK    5  A    between atoms: C_14  and  C_15
REMARK    6  A    between atoms: C_15  and  N_16
REMARK    7  A    between atoms: N_16  and  S_17
REMARK    8  A    between atoms: S_17  and  C_20
REMARK                            x       y       z     vdW  Elec       q    Type
REMARK                         _______ _______ _______ _____ _____    ______ ____
ROOT
ATOM     11  C   UNL     1      -0.457   0.874  23.704  0.00  0.00    +0.135 C 
ATOM     12  C   UNL     1      -0.384   0.200  23.234  0.00  0.00    +0.162 C 
ATOM     13  O   UNL     1       0.419   0.077  23.090  0.00  0.00    -0.350 OA
ATOM     14  C   UNL     1       0.841   0.674  23.471  0.00  0.00    +0.166 C 
ATOM     26  C   UNL     1       0.301   1.167  23.851  0.00  0.00    +0.199 C 
ATOM     27  O   UNL     1       0.484   1.835  24.298  0.00  0.00    -0.219 OA
ENDROOT
BRANCH  11  10
ATOM     10  N   UNL     1      -1.164   1.199  23.980  0.00  0.00    -0.209 NA
BRANCH  10   9
ATOM      9  C   UNL     1      -1.875   1.022  23.601  0.00  0.00    +0.115 C 
BRANCH   9   8
ATOM      5  C   UNL     1      -3.990   2.019  24.409  0.00  0.00    +0.073 A 
ATOM      6  C   UNL     1      -3.696   1.334  24.763  0.00  0.00    +0.016 A 
ATOM      7  C   UNL     1      -2.990   1.002  24.493  0.00  0.00    -0.002 A 
ATOM      8  C   UNL     1      -2.579   1.354  23.870  0.00  0.00    -0.005 A 
ATOM     28  C   UNL     1      -2.874   2.039  23.517  0.00  0.00    -0.002 A 
ATOM     29  C   UNL     1      -3.580   2.372  23.787  0.00  0.00    +0.016 A 
BRANCH   5   4
ATOM      1  C   UNL     1      -5.387   3.260  25.538  0.00  0.00    +0.097 C 
ATOM      2  C   UNL     1      -4.681   2.928  25.269  0.00  0.00    +0.246 C 
ATOM      3  O   UNL     1      -3.962   3.172  25.589  0.00  0.00    -0.273 OA
ATOM      4  N   UNL     1      -4.696   2.352  24.679  0.00  0.00    -0.179 NA
ENDBRANCH   5   4
ENDBRANCH   9   8
ENDBRANCH  10   9
ENDBRANCH  11  10
BRANCH  14  15
ATOM     15  C   UNL     1       1.662   0.762  23.472  0.00  0.00    +0.148 C 
BRANCH  15  16
ATOM     16  N   UNL     1       2.120   0.367  22.910  0.00  0.00    -0.075 NA
BRANCH  16  17
ATOM     17  S   UNL     1       2.932   0.283  23.027  0.00  0.00    +0.077 S 
ATOM     18  O   UNL     1       3.020   1.103  23.008  0.00  0.00    -0.152 OA
ATOM     19  O   UNL     1       2.844  -0.538  23.046  0.00  0.00    -0.152 OA
BRANCH  17  20
ATOM     20  C   UNL     1       3.744   0.198  23.144  0.00  0.00    +0.124 A 
ATOM     21  C   UNL     1       4.047  -0.510  23.441  0.00  0.00    +0.020 A 
ATOM     22  C   UNL     1       4.860  -0.595  23.558  0.00  0.00    +0.001 A 
ATOM     23  C   UNL     1       5.369   0.029  23.377  0.00  0.00    +0.000 A 
ATOM     24  C   UNL     1       5.067   0.736  23.080  0.00  0.00    +0.001 A 
ATOM     25  C   UNL     1       4.254   0.821  22.963  0.00  0.00    +0.020 A 
ENDBRANCH  17  20
ENDBRANCH  16  17
ENDBRANCH  15  16
ENDBRANCH  14  15
TORSDOF 8
ENDMDL
MODEL 4
REMARK VINA RESULT:      -7.1      4.644      5.987
REMARK  Name = 
REMARK  8 active torsions:
REMARK  status: ('A' for Active; 'I' for Inactive)
REMARK    1  A    between atoms: N_4  and  C_5
REMARK    2  A    between atoms: C_8  and  C_9
REMARK    3  A    between atoms: C_9  and  N_10
REMARK    4  A    between atoms: N_10  and  C_11
REMARK    5  A    between atoms: C_14  and  C_15
REMARK    6  A    between atoms: C_15  and  N_16
REMARK    7  A    between atoms: N_16  and  S_17
REMARK    8  A    between atoms: S_17  and  C_20
REMARK                            x       y       z     vdW  Elec       q    Type
REMARK                         _______ _______ _______ _____ _____    ______ ____
ROOT
ATOM     11  C   UNL     1      -4.636   2.008  24.887  0.00  0.00    +0.135 C 
ATOM     12  C   UNL     1      -5.159   1.705  25.448  0.00  0.00    +0.162 C 
ATOM     13  O   UNL     1      -5.141   0.882  25.394  0.00  0.00    -0.350 OA
ATOM     14  C   UNL     1      -4.607   0.677  24.800  0.00  0.00    +0.166 C 
ATOM     26  C   UNL     1      -4.295   1.372  24.487  0.00  0.00    +0.199 C 
ATOM     27  O   UNL     1      -3.739   1.423  23.880  0.00  0.00    -0.219 OA
ENDROOT
BRANCH  11  10
ATOM     10  N   UNL     1      -4.481   2.807  24.750  0.00  0.00    -0.209 NA
BRANCH  10   9
ATOM      9  C   UNL     1      -4.289   3.304  25.379  0.00  0.00    +0.115 C 
BRANCH   9   8
ATOM      5  C   UNL     1      -2.281   4.744  25.253  0.00  0.00    +0.073 A 
ATOM      6  C   UNL     1      -2.430   4.303  25.935  0.00  0.00    +0.016 A 
ATOM      7  C   UNL     1      -3.099   3.823  25.977  0.00  0.00    -0.002 A 
ATOM      8  C   UNL     1      -3.620   3.783  25.337  0.00  0.00    -0.005 A 
ATOM     28  C   UNL     1      -3.471   4.225  24.657  0.00  0.00    -0.002 A 
ATOM     29  C   UNL     1      -2.801   4.705  24.615  0.00  0.00    +0.016 A 
BRANCH   5   4
ATOM      1  C   UNL     1      -0.244   5.411  24.840  0.00  0.00    +0.097 C 
ATOM      2  C   UNL     1      -0.914   4.931  24.882  0.00  0.00    +0.246 C 
ATOM      3  O   UNL     1      -0.886   4.159  24.595  0.00  0.00    -0.273 OA
ATOM      4  N   UNL     1      -1.611   5.224  25.211  0.00  0.00    -0.179 NA
ENDBRANCH   5   4
ENDBRANCH   9   8
ENDBRANCH  10   9
ENDBRANCH  11  10
BRANCH  14  15
ATOM     15  C   UNL     1      -4.419  -0.091  24.562  0.00  0.00    +0.148 C 
BRANCH  15  16
ATOM     16  N   UNL     1      -4.256  -0.670  25.127  0.00  0.00    -0.075 NA
BRANCH  16  17
ATOM     17  S   UNL     1      -3.794  -1.323  24.926  0.00  0.00    +0.077 S 
ATOM     18  O   UNL     1      -4.273  -1.460  24.269  0.00  0.00    -0.152 OA
ATOM     19  O   UNL     1      -3.314  -1.185  25.584  0.00  0.00    -0.152 OA
BRANCH  17  20
ATOM     20  C   UNL     1      -3.331  -1.976  24.725  0.00  0.00    +0.124 A 
ATOM     21  C   UNL     1      -2.511  -1.900  24.675  0.00  0.00    +0.020 A 
ATOM     22  C   UNL     1      -2.048  -2.554  24.474  0.00  0.00    +0.001 A 
ATOM     23  C   UNL     1      -2.406  -3.282  24.323  0.00  0.00    +0.000 A 
ATOM     24  C   UNL     1      -3.226  -3.357  24.374  0.00  0.00    +0.001 A 
ATOM     25  C   UNL     1      -3.689  -2.704  24.575  0.00  0.00    +0.020 A 
ENDBRANCH  17  20
ENDBRANCH  16  17
ENDBRANCH  15  16
ENDBRANCH  14  15
TORSDOF 8
ENDMDL
