MODEL 1
REMARK VINA RESULT:     -11.1      0.000      0.000
REMARK  Name = 
REMARK  8 active torsions:
REMARK  status: ('A' for Active; 'I' for Inactive)
REMARK    1  A    between atoms: C_2  and  C_4
REMARK    2  A    between atoms: C_6  and  C_7
REMARK    3  A    between atoms: C_7  and  C_8
REMARK    4  A    between atoms: C_11  and  C_13
REMARK    5  A    between atoms: C_22  and  C_23
REMARK    6  A    between atoms: C_23  and  N_24
REMARK    7  A    between atoms: N_24  and  C_25
REMARK    8  A    between atoms: C_25  and  C_26
REMARK                            x       y       z     vdW  Elec       q    Type
REMARK                         _______ _______ _______ _____ _____    ______ ____
ROOT
ATOM      4  C   UNL     1      -3.520   1.571  23.940  0.00  0.00    +0.006 C 
ATOM      5  C   UNL     1      -3.599   2.339  24.229  0.00  0.00    +0.005 C 
ATOM      6  C   UNL     1      -4.198   2.518  24.766  0.00  0.00    +0.027 C 
ATOM     19  C   UNL     1      -4.719   1.929  25.015  0.00  0.00    -0.048 C 
ATOM     20  C   UNL     1      -5.319   2.108  25.552  0.00  0.00    +0.026 C 
ATOM     21  C   UNL     1      -4.640   1.160  24.725  0.00  0.00    -0.033 C 
ATOM     22  C   UNL     1      -4.041   0.981  24.188  0.00  0.00    +0.039 C 
ENDROOT
BRANCH   4   2
ATOM      1  C   UNL     1      -2.197   1.102  23.673  0.00  0.00    +0.000 C 
ATOM      2  C   UNL     1      -2.920   1.392  23.402  0.00  0.00    +0.000 C 
ATOM      3  C   UNL     1      -3.044   1.504  22.595  0.00  0.00    +0.000 C 
ENDBRANCH   4   2
BRANCH   6   7
ATOM      7  C   UNL     1      -4.277   3.287  25.055  0.00  0.00    +0.091 C 
BRANCH   7   8
ATOM      8  C   UNL     1      -3.621   3.683  25.361  0.00  0.00    +0.227 A 
ATOM      9  N   UNL     1      -3.448   3.790  26.160  0.00  0.00    -0.111 NA
ATOM     10  N   UNL     1      -2.742   4.214  26.213  0.00  0.00    -0.106 NA
ATOM     11  C   UNL     1      -2.479   4.370  25.447  0.00  0.00    +0.267 A 
ATOM     12  O   UNL     1      -3.022   4.041  24.920  0.00  0.00    -0.418 OA
BRANCH  11  13
ATOM     13  C   UNL     1      -1.793   4.781  25.243  0.00  0.00    +0.136 A 
ATOM     14  C   UNL     1      -1.752   5.575  25.023  0.00  0.00    +0.123 A 
ATOM     15  N   UNL     1      -0.963   5.755  24.868  0.00  0.00    -0.222 NA
ATOM     16  C   UNL     1      -0.515   5.073  24.991  0.00  0.00    +0.179 A 
ATOM     17  N   UNL     1      -1.029   4.470  25.224  0.00  0.00    -0.303 N 
ATOM     18  C   UNL     1      -0.816   3.695  25.404  0.00  0.00    +0.132 C 
ENDBRANCH  11  13
ENDBRANCH   7   8
ENDBRANCH   6   7
BRANCH  22  23
ATOM     23  C   UNL     1      -3.961   0.213  23.899  0.00  0.00    +0.093 C 
BRANCH  23  24
ATOM     24  N   UNL     1      -4.094  -0.432  24.396  0.00  0.00    -0.213 NA
BRANCH  24  25
ATOM     25  C   UNL     1      -4.304  -1.162  24.077  0.00  0.00    +0.115 C 
BRANCH  25  26
ATOM     26  C   UNL     1      -3.967  -1.855  24.375  0.00  0.00    -0.002 A 
ATOM     27  C   UNL     1      -3.919  -2.527  23.898  0.00  0.00    +0.018 A 
ATOM     28  C   UNL     1      -3.582  -3.220  24.195  0.00  0.00    +0.099 A 
ATOM     29  N   UNL     1      -3.293  -3.239  24.969  0.00  0.00    -0.242 NA
ATOM     30  C   UNL     1      -3.341  -2.567  25.444  0.00  0.00    +0.099 A 
ATOM     31  C   UNL     1      -3.678  -1.875  25.147  0.00  0.00    +0.018 A 
ENDBRANCH  25  26
ENDBRANCH  24  25
ENDBRANCH  23  24
ENDBRANCH  22  23
TORSDOF 8
ENDMDL
MODEL 2
REMARK VINA RESULT:      -9.7      0.740      1.647
REMARK  Name = 
REMARK  8 active torsions:
REMARK  status: ('A' for Active; 'I' for Inactive)
REMARK    1  A    between atoms: C_2  and  C_4
REMARK    2  A    between atoms: C_6  and  C_7
REMARK    3  A    between atoms: C_7  and  C_8
REMARK    4  A    between atoms: C_11  and  C_13
REMARK    5  A    between atoms: C_22  and  C_23
REMARK    6  A    between atoms: C_23  and  N_24
REMARK    7  A    between atoms: N_24  and  C_25
REMARK    8  A    between atoms: C_25  and  C_26
REMARK                            x       y       z     vdW  Elec       q    Type
REMARK                         _______ _______ _______ _____ _____    ______ ____
ROOT
ATOM      4  C   UNL     1      -4.861   1.635  24.713  0.00  0.00    +0.006 C 
ATOM      5  C   UNL     1      -4.623   2.393  24.494  0.00  0.00    +0.005 C 
ATOM      6  C   UNL     1      -4.033   2.493  23.927  0.00  0.00    +0.027 C 
ATOM     19  C   UNL     1      -3.679   1.834  23.578  0.00  0.00    -0.048 C 
ATOM     20  C   UNL     1      -3.089   1.934  23.011  0.00  0.00    +0.026 C 
ATOM     21  C   UNL     1      -3.918   1.075  23.797  0.00  0.00    -0.033 C 
ATOM     22  C   UNL     1      -4.508   0.975  24.364  0.00  0.00    +0.039 C 
ENDROOT
BRANCH   4   2
ATOM      1  C   UNL     1      -5.248   1.425  26.072  0.00  0.00    +0.000 C 
ATOM      2  C   UNL     1      -5.451   1.535  25.280  0.00  0.00    +0.000 C 
ATOM      3  C   UNL     1      -6.244   1.545  25.055  0.00  0.00    +0.000 C 
ENDBRANCH   4   2
BRANCH   6   7
ATOM      7  C   UNL     1      -3.794   3.253  23.708  0.00  0.00    +0.091 C 
BRANCH   7   8
ATOM      8  C   UNL     1      -3.316   3.697  24.213  0.00  0.00    +0.227 A 
ATOM      9  N   UNL     1      -3.578   4.208  24.805  0.00  0.00    -0.111 NA
ATOM     10  N   UNL     1      -2.915   4.535  25.172  0.00  0.00    -0.106 NA
ATOM     11  C   UNL     1      -2.243   4.225  24.807  0.00  0.00    +0.267 A 
ATOM     12  O   UNL     1      -2.490   3.707  24.214  0.00  0.00    -0.418 OA
BRANCH  11  13
ATOM     13  C   UNL     1      -1.461   4.402  25.000  0.00  0.00    +0.136 A 
ATOM     14  C   UNL     1      -1.048   5.082  24.779  0.00  0.00    +0.123 A 
ATOM     15  N   UNL     1      -0.287   5.030  25.090  0.00  0.00    -0.222 NA
ATOM     16  C   UNL     1      -0.227   4.319  25.505  0.00  0.00    +0.179 A 
ATOM     17  N   UNL     1      -0.954   3.931  25.449  0.00  0.00    -0.303 N 
ATOM     18  C   UNL     1      -1.139   3.200  25.783  0.00  0.00    +0.132 C 
ENDBRANCH  11  13
ENDBRANCH   7   8
ENDBRANCH   6   7
BRANCH  22  23
ATOM     23  C   UNL     1      -4.746   0.216  24.583  0.00  0.00    +0.093 C 
BRANCH  23  24
ATOM     24  N   UNL     1      -4.269  -0.434  24.406  0.00  0.00    -0.213 NA
BRANCH  24  25
ATOM     25  C   UNL     1      -4.520  -1.194  24.603  0.00  0.00    +0.115 C 
BRANCH  25  26
ATOM     26  C   UNL     1      -3.987  -1.825  24.572  0.00  0.00    -0.002 A 
ATOM     27  C   UNL     1      -3.428  -1.921  25.172  0.00  0.00    +0.018 A 
ATOM     28  C   UNL     1      -2.896  -2.551  25.142  0.00  0.00    +0.099 A 
ATOM     29  N   UNL     1      -2.923  -3.085  24.512  0.00  0.00    -0.242 NA
ATOM     30  C   UNL     1      -3.483  -2.987  23.914  0.00  0.00    +0.099 A 
ATOM     31  C   UNL     1      -4.015  -2.357  23.944  0.00  0.00    +0.018 A 
ENDBRANCH  25  26
ENDBRANCH  24  25
ENDBRANCH  23  24
ENDBRANCH  22  23
TORSDOF 8
ENDMDL
MODEL 3
REMARK VINA RESULT:      -9.7      2.829      4.528
REMARK  Name = 
REMARK  8 active torsions:
REMARK  status: ('A' for Active; 'I' for Inactive)
REMARK    1  A    between atoms: C_2  and  C_4
REMARK    2  A    between atoms: C_6  and  C_7
REMARK    3  A    between atoms: C_7  and  C_8
REMARK    4  A    between atoms: C_11  and  C_13
REMARK    5  A    between atoms: C_22  and  C_23
REMARK    6  A    between atoms: C_23  and  N_24
REMARK    7  A    between atoms: N_24  and  C_25
REMARK    8  A    between atoms: C_25  and  C_26
REMARK                            x       y       z     vdW  Elec       q    Type
REMARK                         _______ _______ _______ _____ _____    ______ ____
ROOT
ATOM      4  C   UNL     1      -1.351   0.920  24.814  0.00  0.00    +0.006 C 
ATOM      5  C   UNL     1      -1.797   1.572  25.050  0.00  0.00    +0.005 C 
ATOM      6  C   UNL     1      -1.541   2.334  24.871  0.00  0.00    +0.027 C 
ATOM     19  C   UNL     1      -0.837   2.446  24.455  0.00  0.00    -0.048 C 
ATOM     20  C   UNL     1      -0.580   3.209  24.275  0.00  0.00    +0.026 C 
ATOM     21  C   UNL     1      -0.391   1.793  24.218  0.00  0.00    -0.033 C 
ATOM     22  C   UNL     1      -0.647   1.031  24.397  0.00  0.00    +0.039 C 
ENDROOT
BRANCH   4   2
ATOM      1  C   UNL     1      -2.077  -0.258  24.455  0.00  0.00    +0.000 C 
ATOM      2  C   UNL     1      -1.608   0.157  24.993  0.00  0.00    +0.000 C 
ATOM      3  C   UNL     1      -1.397  -0.191  25.710  0.00  0.00    +0.000 C 
ENDBRANCH   4   2
BRANCH   6   7
ATOM      7  C   UNL     1      -1.987   2.987  25.108  0.00  0.00    +0.091 C 
BRANCH   7   8
ATOM      8  C   UNL     1      -2.789   3.030  24.916  0.00  0.00    +0.227 A 
ATOM      9  N   UNL     1      -3.101   3.226  24.178  0.00  0.00    -0.111 NA
ATOM     10  N   UNL     1      -3.924   3.202  24.235  0.00  0.00    -0.106 NA
ATOM     11  C   UNL     1      -4.120   2.992  25.008  0.00  0.00    +0.267 A 
ATOM     12  O   UNL     1      -3.419   2.885  25.430  0.00  0.00    -0.418 OA
BRANCH  11  13
ATOM     13  C   UNL     1      -4.883   2.903  25.308  0.00  0.00    +0.136 A 
ATOM     14  C   UNL     1      -5.306   3.469  25.735  0.00  0.00    +0.123 A 
ATOM     15  N   UNL     1      -6.041   3.149  25.924  0.00  0.00    -0.222 NA
ATOM     16  C   UNL     1      -6.075   2.385  25.614  0.00  0.00    +0.179 A 
ATOM     17  N   UNL     1      -5.359   2.233  25.233  0.00  0.00    -0.303 N 
ATOM     18  C   UNL     1      -5.155   1.534  24.846  0.00  0.00    +0.132 C 
ENDBRANCH  11  13
ENDBRANCH   7   8
ENDBRANCH   6   7
BRANCH  22  23
ATOM     23  C   UNL     1      -0.201   0.379  24.160  0.00  0.00    +0.093 C 
BRANCH  23  24
ATOM     24  N   UNL     1       0.442   0.480  23.654  0.00  0.00    -0.213 NA
BRANCH  24  25
ATOM     25  C   UNL     1       0.890  -0.172  23.422  0.00  0.00    +0.115 C 
BRANCH  25  26
ATOM     26  C   UNL     1       1.528  -0.072  22.907  0.00  0.00    -0.002 A 
ATOM     27  C   UNL     1       2.226   0.275  23.177  0.00  0.00    +0.018 A 
ATOM     28  C   UNL     1       2.863   0.375  22.663  0.00  0.00    +0.099 A 
ATOM     29  N   UNL     1       2.802   0.127  21.877  0.00  0.00    -0.242 NA
ATOM     30  C   UNL     1       2.104  -0.220  21.608  0.00  0.00    +0.099 A 
ATOM     31  C   UNL     1       1.467  -0.320  22.123  0.00  0.00    +0.018 A 
ENDBRANCH  25  26
ENDBRANCH  24  25
ENDBRANCH  23  24
ENDBRANCH  22  23
TORSDOF 8
ENDMDL
MODEL 4
REMARK VINA RESULT:      -9.4      2.359      4.680
REMARK  Name = 
REMARK  8 active torsions:
REMARK  status: ('A' for Active; 'I' for Inactive)
REMARK    1  A    between atoms: C_2  and  C_4
REMARK    2  A    between atoms: C_6  and  C_7
REMARK    3  A    between atoms: C_7  and  C_8
REMARK    4  A    between atoms: C_11  and  C_13
REMARK    5  A    between atoms: C_22  and  C_23
REMARK    6  A    between atoms: C_23  and  N_24
REMARK    7  A    between atoms: N_24  and  C_25
REMARK    8  A    between atoms: C_25  and  C_26
REMARK                            x       y       z     vdW  Elec       q    Type
REMARK                         _______ _______ _______ _____ _____    ______ ____
ROOT
ATOM      4  C   UNL     1      -2.183   3.285  24.738  0.00  0.00    +0.006 C 
ATOM      5  C   UNL     1      -1.544   2.903  24.384  0.00  0.00    +0.005 C 
ATOM      6  C   UNL     1      -1.662   2.431  23.719  0.00  0.00    +0.027 C 
ATOM     19  C   UNL     1      -2.420   2.339  23.407  0.00  0.00    -0.048 C 
ATOM     20  C   UNL     1      -2.538   1.866  22.742  0.00  0.00    +0.026 C 
ATOM     21  C   UNL     1      -3.060   2.721  23.761  0.00  0.00    -0.033 C 
ATOM     22  C   UNL     1      -2.942   3.194  24.426  0.00  0.00    +0.039 C 
ENDROOT
BRANCH   4   2
ATOM      1  C   UNL     1      -1.981   4.575  25.319  0.00  0.00    +0.000 C 
ATOM      2  C   UNL     1      -2.065   3.758  25.403  0.00  0.00    +0.000 C 
ATOM      3  C   UNL     1      -2.031   3.415  26.152  0.00  0.00    +0.000 C 
ENDBRANCH   4   2
BRANCH   6   7
ATOM      7  C   UNL     1      -1.021   2.048  23.365  0.00  0.00    +0.091 C 
BRANCH   7   8
ATOM      8  C   UNL     1      -0.634   1.438  23.762  0.00  0.00    +0.227 A 
ATOM      9  N   UNL     1       0.131   1.468  24.070  0.00  0.00    -0.111 NA
ATOM     10  N   UNL     1       0.294   0.739  24.420  0.00  0.00    -0.106 NA
ATOM     11  C   UNL     1      -0.370   0.258  24.329  0.00  0.00    +0.267 A 
ATOM     12  O   UNL     1      -0.944   0.690  23.922  0.00  0.00    -0.418 OA
BRANCH  11  13
ATOM     13  C   UNL     1      -0.447  -0.519  24.596  0.00  0.00    +0.136 A 
ATOM     14  C   UNL     1      -0.185  -1.195  24.204  0.00  0.00    +0.123 A 
ATOM     15  N   UNL     1      -0.375  -1.849  24.668  0.00  0.00    -0.222 NA
ATOM     16  C   UNL     1      -0.756  -1.578  25.348  0.00  0.00    +0.179 A 
ATOM     17  N   UNL     1      -0.800  -0.755  25.303  0.00  0.00    -0.303 N 
ATOM     18  C   UNL     1      -1.138  -0.257  25.867  0.00  0.00    +0.132 C 
ENDBRANCH  11  13
ENDBRANCH   7   8
ENDBRANCH   6   7
BRANCH  22  23
ATOM     23  C   UNL     1      -3.582   3.576  24.780  0.00  0.00    +0.093 C 
BRANCH  23  24
ATOM     24  N   UNL     1      -4.347   3.285  24.674  0.00  0.00    -0.213 NA
BRANCH  24  25
ATOM     25  C   UNL     1      -4.931   3.449  25.232  0.00  0.00    +0.115 C 
BRANCH  25  26
ATOM     26  C   UNL     1      -5.483   2.870  25.434  0.00  0.00    -0.002 A 
ATOM     27  C   UNL     1      -5.660   2.728  26.228  0.00  0.00    +0.018 A 
ATOM     28  C   UNL     1      -6.212   2.149  26.429  0.00  0.00    +0.099 A 
ATOM     29  N   UNL     1      -6.587   1.711  25.838  0.00  0.00    -0.242 NA
ATOM     30  C   UNL     1      -6.409   1.854  25.045  0.00  0.00    +0.099 A 
ATOM     31  C   UNL     1      -5.857   2.433  24.843  0.00  0.00    +0.018 A 
ENDBRANCH  25  26
ENDBRANCH  24  25
ENDBRANCH  23  24
ENDBRANCH  22  23
TORSDOF 8
ENDMDL
MODEL 5
REMARK VINA RESULT:      -9.3      1.387      5.496
REMARK  Name = 
REMARK  8 active torsions:
REMARK  status: ('A' for Active; 'I' for Inactive)
REMARK    1  A    between atoms: C_2  and  C_4
REMARK    2  A    between atoms: C_6  and  C_7
REMARK    3  A    between atoms: C_7  and  C_8
REMARK    4  A    between atoms: C_11  and  C_13
REMARK    5  A    between atoms: C_22  and  C_23
REMARK    6  A    between atoms: C_23  and  N_24
REMARK    7  A    between atoms: N_24  and  C_25
REMARK    8  A    between atoms: C_25  and  C_26
REMARK                            x       y       z     vdW  Elec       q    Type
REMARK                         _______ _______ _______ _____ _____    ______ ____
ROOT
ATOM      4  C   UNL     1      -4.454   1.955  24.805  0.00  0.00    +0.006 C 
ATOM      5  C   UNL     1      -4.517   1.186  24.512  0.00  0.00    +0.005 C 
ATOM      6  C   UNL     1      -4.020   0.933  23.906  0.00  0.00    +0.027 C 
ATOM     19  C   UNL     1      -3.457   1.448  23.591  0.00  0.00    -0.048 C 
ATOM     20  C   UNL     1      -2.959   1.195  22.985  0.00  0.00    +0.026 C 
ATOM     21  C   UNL     1      -3.394   2.218  23.884  0.00  0.00    -0.033 C 
ATOM     22  C   UNL     1      -3.891   2.471  24.490  0.00  0.00    +0.039 C 
ENDROOT
BRANCH   4   2
ATOM      1  C   UNL     1      -4.722   2.117  26.199  0.00  0.00    +0.000 C 
ATOM      2  C   UNL     1      -4.952   2.208  25.412  0.00  0.00    +0.000 C 
ATOM      3  C   UNL     1      -5.679   2.552  25.231  0.00  0.00    +0.000 C 
ENDBRANCH   4   2
BRANCH   6   7
ATOM      7  C   UNL     1      -4.083   0.164  23.614  0.00  0.00    +0.091 C 
BRANCH   7   8
ATOM      8  C   UNL     1      -3.783  -0.470  24.049  0.00  0.00    +0.227 A 
ATOM      9  N   UNL     1      -4.220  -0.980  24.527  0.00  0.00    -0.111 NA
ATOM     10  N   UNL     1      -3.700  -1.530  24.856  0.00  0.00    -0.106 NA
ATOM     11  C   UNL     1      -2.941  -1.359  24.582  0.00  0.00    +0.267 A 
ATOM     12  O   UNL     1      -2.992  -0.703  24.083  0.00  0.00    -0.418 OA
BRANCH  11  13
ATOM     13  C   UNL     1      -2.252  -1.770  24.773  0.00  0.00    +0.136 A 
ATOM     14  C   UNL     1      -2.005  -2.483  24.439  0.00  0.00    +0.123 A 
ATOM     15  N   UNL     1      -1.290  -2.694  24.791  0.00  0.00    -0.222 NA
ATOM     16  C   UNL     1      -1.093  -2.112  25.341  0.00  0.00    +0.179 A 
ATOM     17  N   UNL     1      -1.688  -1.540  25.330  0.00  0.00    -0.303 N 
ATOM     18  C   UNL     1      -1.715  -0.859  25.794  0.00  0.00    +0.132 C 
ENDBRANCH  11  13
ENDBRANCH   7   8
ENDBRANCH   6   7
BRANCH  22  23
ATOM     23  C   UNL     1      -3.828   3.239  24.783  0.00  0.00    +0.093 C 
BRANCH  23  24
ATOM     24  N   UNL     1      -3.143   3.678  24.647  0.00  0.00    -0.213 NA
BRANCH  24  25
ATOM     25  C   UNL     1      -2.865   4.198  25.223  0.00  0.00    +0.115 C 
BRANCH  25  26
ATOM     26  C   UNL     1      -2.113   4.531  25.150  0.00  0.00    -0.002 A 
ATOM     27  C   UNL     1      -1.443   4.059  25.243  0.00  0.00    +0.018 A 
ATOM     28  C   UNL     1      -0.691   4.392  25.171  0.00  0.00    +0.099 A 
ATOM     29  N   UNL     1      -0.610   5.197  25.006  0.00  0.00    -0.242 NA
ATOM     30  C   UNL     1      -1.281   5.668  24.913  0.00  0.00    +0.099 A 
ATOM     31  C   UNL     1      -2.033   5.335  24.986  0.00  0.00    +0.018 A 
ENDBRANCH  25  26
ENDBRANCH  24  25
ENDBRANCH  23  24
ENDBRANCH  22  23
TORSDOF 8
ENDMDL
MODEL 6
REMARK VINA RESULT:      -9.0      2.108      6.150
REMARK  Name = 
REMARK  8 active torsions:
REMARK  status: ('A' for Active; 'I' for Inactive)
REMARK    1  A    between atoms: C_2  and  C_4
REMARK    2  A    between atoms: C_6  and  C_7
REMARK    3  A    between atoms: C_7  and  C_8
REMARK    4  A    between atoms: C_11  and  C_13
REMARK    5  A    between atoms: C_22  and  C_23
REMARK    6  A    between atoms: C_23  and  N_24
REMARK    7  A    between atoms: N_24  and  C_25
REMARK    8  A    between atoms: C_25  and  C_26
REMARK                            x       y       z     vdW  Elec       q    Type
REMARK                         _______ _______ _______ _____ _____    ______ ____
ROOT
ATOM      4  C   UNL     1      -0.341   0.499  24.423  0.00  0.00    +0.006 C 
ATOM      5  C   UNL     1      -0.477  -0.304  24.555  0.00  0.00    +0.005 C 
ATOM      6  C   UNL     1      -0.778  -0.558  25.279  0.00  0.00    +0.027 C 
ATOM     19  C   UNL     1      -0.942  -0.010  25.873  0.00  0.00    -0.048 C 
ATOM     20  C   UNL     1      -1.243  -0.264  26.598  0.00  0.00    +0.026 C 
ATOM     21  C   UNL     1      -0.806   0.794  25.741  0.00  0.00    -0.033 C 
ATOM     22  C   UNL     1      -0.506   1.048  25.017  0.00  0.00    +0.039 C 
ENDROOT
BRANCH   4   2
ATOM      1  C   UNL     1      -0.555   0.987  23.097  0.00  0.00    +0.000 C 
ATOM      2  C   UNL     1      -0.040   0.753  23.698  0.00  0.00    +0.000 C 
ATOM      3  C   UNL     1       0.775   0.773  23.574  0.00  0.00    +0.000 C 
ENDBRANCH   4   2
BRANCH   6   7
ATOM      7  C   UNL     1      -0.914  -1.361  25.410  0.00  0.00    +0.091 C 
BRANCH   7   8
ATOM      8  C   UNL     1      -1.438  -1.776  24.926  0.00  0.00    +0.227 A 
ATOM      9  N   UNL     1      -1.232  -2.323  24.345  0.00  0.00    -0.111 NA
ATOM     10  N   UNL     1      -1.927  -2.601  23.998  0.00  0.00    -0.106 NA
ATOM     11  C   UNL     1      -2.564  -2.225  24.365  0.00  0.00    +0.267 A 
ATOM     12  O   UNL     1      -2.261  -1.715  24.939  0.00  0.00    -0.418 OA
BRANCH  11  13
ATOM     13  C   UNL     1      -3.361  -2.340  24.189  0.00  0.00    +0.136 A 
ATOM     14  C   UNL     1      -3.778  -3.048  24.267  0.00  0.00    +0.123 A 
ATOM     15  N   UNL     1      -4.556  -2.912  24.032  0.00  0.00    -0.222 NA
ATOM     16  C   UNL     1      -4.622  -2.120  23.807  0.00  0.00    +0.179 A 
ATOM     17  N   UNL     1      -3.882  -1.767  23.905  0.00  0.00    -0.303 N 
ATOM     18  C   UNL     1      -3.697  -0.979  23.746  0.00  0.00    +0.132 C 
ENDBRANCH  11  13
ENDBRANCH   7   8
ENDBRANCH   6   7
BRANCH  22  23
ATOM     23  C   UNL     1      -0.369   1.851  24.885  0.00  0.00    +0.093 C 
BRANCH  23  24
ATOM     24  N   UNL     1      -0.829   2.417  25.270  0.00  0.00    -0.213 NA
BRANCH  24  25
ATOM     25  C   UNL     1      -0.537   3.180  25.380  0.00  0.00    +0.115 C 
BRANCH  25  26
ATOM     26  C   UNL     1      -1.053   3.825  25.368  0.00  0.00    -0.002 A 
ATOM     27  C   UNL     1      -0.817   4.534  25.018  0.00  0.00    +0.018 A 
ATOM     28  C   UNL     1      -1.332   5.178  25.005  0.00  0.00    +0.099 A 
ATOM     29  N   UNL     1      -2.083   5.114  25.343  0.00  0.00    -0.242 NA
ATOM     30  C   UNL     1      -2.317   4.404  25.692  0.00  0.00    +0.099 A 
ATOM     31  C   UNL     1      -1.802   3.760  25.705  0.00  0.00    +0.018 A 
ENDBRANCH  25  26
ENDBRANCH  24  25
ENDBRANCH  23  24
ENDBRANCH  22  23
TORSDOF 8
ENDMDL
MODEL 7
REMARK VINA RESULT:      -8.9      1.071      2.190
REMARK  Name = 
REMARK  8 active torsions:
REMARK  status: ('A' for Active; 'I' for Inactive)
REMARK    1  A    between atoms: C_2  and  C_4
REMARK    2  A    between atoms: C_6  and  C_7
REMARK    3  A    between atoms: C_7  and  C_8
REMARK    4  A    between atoms: C_11  and  C_13
REMARK    5  A    between atoms: C_22  and  C_23
REMARK    6  A    between atoms: C_23  and  N_24
REMARK    7  A    between atoms: N_24  and  C_25
REMARK    8  A    between atoms: C_25  and  C_26
REMARK                            x       y       z     vdW  Elec       q    Type
REMARK                         _______ _______ _______ _____ _____    ______ ____
ROOT
ATOM      4  C   UNL     1      -2.513   1.279  23.928  0.00  0.00    +0.006 C 
ATOM      5  C   UNL     1      -1.831   1.737  24.002  0.00  0.00    +0.005 C 
ATOM      6  C   UNL     1      -1.152   1.413  24.340  0.00  0.00    +0.027 C 
ATOM     19  C   UNL     1      -1.155   0.632  24.604  0.00  0.00    -0.048 C 
ATOM     20  C   UNL     1      -0.475   0.309  24.943  0.00  0.00    +0.026 C 
ATOM     21  C   UNL     1      -1.837   0.174  24.530  0.00  0.00    -0.033 C 
ATOM     22  C   UNL     1      -2.516   0.497  24.193  0.00  0.00    +0.039 C 
ENDROOT
BRANCH   4   2
ATOM      1  C   UNL     1      -3.250   1.676  22.770  0.00  0.00    +0.000 C 
ATOM      2  C   UNL     1      -3.193   1.603  23.590  0.00  0.00    +0.000 C 
ATOM      3  C   UNL     1      -3.814   1.852  24.071  0.00  0.00    +0.000 C 
ENDBRANCH   4   2
BRANCH   6   7
ATOM      7  C   UNL     1      -0.470   1.872  24.414  0.00  0.00    +0.091 C 
BRANCH   7   8
ATOM      8  C   UNL     1      -0.498   2.592  24.814  0.00  0.00    +0.227 A 
ATOM      9  N   UNL     1      -0.188   2.743  25.564  0.00  0.00    -0.111 NA
ATOM     10  N   UNL     1      -0.339   3.533  25.748  0.00  0.00    -0.106 NA
ATOM     11  C   UNL     1      -0.743   3.871  25.113  0.00  0.00    +0.267 A 
ATOM     12  O   UNL     1      -0.841   3.289  24.535  0.00  0.00    -0.418 OA
BRANCH  11  13
ATOM     13  C   UNL     1      -1.002   4.652  25.063  0.00  0.00    +0.136 A 
ATOM     14  C   UNL     1      -0.602   5.274  24.697  0.00  0.00    +0.123 A 
ATOM     15  N   UNL     1      -1.060   5.954  24.778  0.00  0.00    -0.222 NA
ATOM     16  C   UNL     1      -1.744   5.755  25.194  0.00  0.00    +0.179 A 
ATOM     17  N   UNL     1      -1.708   4.949  25.370  0.00  0.00    -0.303 N 
ATOM     18  C   UNL     1      -2.279   4.517  25.780  0.00  0.00    +0.132 C 
ENDBRANCH  11  13
ENDBRANCH   7   8
ENDBRANCH   6   7
BRANCH  22  23
ATOM     23  C   UNL     1      -3.198   0.040  24.118  0.00  0.00    +0.093 C 
BRANCH  23  24
ATOM     24  N   UNL     1      -3.185  -0.758  24.327  0.00  0.00    -0.213 NA
BRANCH  24  25
ATOM     25  C   UNL     1      -3.889  -1.187  24.362  0.00  0.00    +0.115 C 
BRANCH  25  26
ATOM     26  C   UNL     1      -3.872  -2.012  24.330  0.00  0.00    -0.002 A 
ATOM     27  C   UNL     1      -3.489  -2.440  24.923  0.00  0.00    +0.018 A 
ATOM     28  C   UNL     1      -3.472  -3.264  24.891  0.00  0.00    +0.099 A 
ATOM     29  N   UNL     1      -3.838  -3.660  24.266  0.00  0.00    -0.242 NA
ATOM     30  C   UNL     1      -4.219  -3.232  23.673  0.00  0.00    +0.099 A 
ATOM     31  C   UNL     1      -4.237  -2.408  23.705  0.00  0.00    +0.018 A 
ENDBRANCH  25  26
ENDBRANCH  24  25
ENDBRANCH  23  24
ENDBRANCH  22  23
TORSDOF 8
ENDMDL
MODEL 8
REMARK VINA RESULT:      -8.9      2.899      4.954
REMARK  Name = 
REMARK  8 active torsions:
REMARK  status: ('A' for Active; 'I' for Inactive)
REMARK    1  A    between atoms: C_2  and  C_4
REMARK    2  A    between atoms: C_6  and  C_7
REMARK    3  A    between atoms: C_7  and  C_8
REMARK    4  A    between atoms: C_11  and  C_13
REMARK    5  A    between atoms: C_22  and  C_23
REMARK    6  A    between atoms: C_23  and  N_24
REMARK    7  A    between atoms: N_24  and  C_25
REMARK    8  A    between atoms: C_25  and  C_26
REMARK                            x       y       z     vdW  Elec       q    Type
REMARK                         _______ _______ _______ _____ _____    ______ ____
ROOT
ATOM      4  C   UNL     1      -2.762  -0.100  24.773  0.00  0.00    +0.006 C 
ATOM      5  C   UNL     1      -1.959  -0.250  24.887  0.00  0.00    +0.005 C 
ATOM      6  C   UNL     1      -1.434   0.376  24.994  0.00  0.00    +0.027 C 
ATOM     19  C   UNL     1      -1.710   1.153  24.987  0.00  0.00    -0.048 C 
ATOM     20  C   UNL     1      -1.185   1.780  25.094  0.00  0.00    +0.026 C 
ATOM     21  C   UNL     1      -2.514   1.304  24.872  0.00  0.00    -0.033 C 
ATOM     22  C   UNL     1      -3.039   0.678  24.766  0.00  0.00    +0.039 C 
ENDROOT
BRANCH   4   2
ATOM      1  C   UNL     1      -3.526  -0.940  23.905  0.00  0.00    +0.000 C 
ATOM      2  C   UNL     1      -3.288  -0.727  24.666  0.00  0.00    +0.000 C 
ATOM      3  C   UNL     1      -3.575  -1.139  25.320  0.00  0.00    +0.000 C 
ENDBRANCH   4   2
BRANCH   6   7
ATOM      7  C   UNL     1      -0.630   0.226  25.108  0.00  0.00    +0.091 C 
BRANCH   7   8
ATOM      8  C   UNL     1      -0.198  -0.170  24.528  0.00  0.00    +0.227 A 
ATOM      9  N   UNL     1      -0.090  -0.986  24.476  0.00  0.00    -0.111 NA
ATOM     10  N   UNL     1       0.378  -1.140  23.813  0.00  0.00    -0.106 NA
ATOM     11  C   UNL     1       0.559  -0.419  23.456  0.00  0.00    +0.267 A 
ATOM     12  O   UNL     1       0.203   0.181  23.897  0.00  0.00    -0.418 OA
BRANCH  11  13
ATOM     13  C   UNL     1       1.014  -0.315  22.776  0.00  0.00    +0.136 A 
ATOM     14  C   UNL     1       0.806  -0.548  22.013  0.00  0.00    +0.123 A 
ATOM     15  N   UNL     1       1.421  -0.337  21.506  0.00  0.00    -0.222 NA
ATOM     16  C   UNL     1       2.010   0.026  21.955  0.00  0.00    +0.179 A 
ATOM     17  N   UNL     1       1.759   0.039  22.741  0.00  0.00    -0.303 N 
ATOM     18  C   UNL     1       2.178   0.353  23.379  0.00  0.00    +0.132 C 
ENDBRANCH  11  13
ENDBRANCH   7   8
ENDBRANCH   6   7
BRANCH  22  23
ATOM     23  C   UNL     1      -3.842   0.827  24.651  0.00  0.00    +0.093 C 
BRANCH  23  24
ATOM     24  N   UNL     1      -4.153   1.571  24.828  0.00  0.00    -0.213 NA
BRANCH  24  25
ATOM     25  C   UNL     1      -4.957   1.718  24.718  0.00  0.00    +0.115 C 
BRANCH  25  26
ATOM     26  C   UNL     1      -5.327   2.323  25.142  0.00  0.00    -0.002 A 
ATOM     27  C   UNL     1      -5.909   2.140  25.697  0.00  0.00    +0.018 A 
ATOM     28  C   UNL     1      -6.279   2.744  26.120  0.00  0.00    +0.099 A 
ATOM     29  N   UNL     1      -6.068   3.531  25.987  0.00  0.00    -0.242 NA
ATOM     30  C   UNL     1      -5.486   3.712  25.432  0.00  0.00    +0.099 A 
ATOM     31  C   UNL     1      -5.116   3.108  25.009  0.00  0.00    +0.018 A 
ENDBRANCH  25  26
ENDBRANCH  24  25
ENDBRANCH  23  24
ENDBRANCH  22  23
TORSDOF 8
ENDMDL
MODEL 9
REMARK VINA RESULT:      -8.8      3.443      5.129
REMARK  Name = 
REMARK  8 active torsions:
REMARK  status: ('A' for Active; 'I' for Inactive)
REMARK    1  A    between atoms: C_2  and  C_4
REMARK    2  A    between atoms: C_6  and  C_7
REMARK    3  A    between atoms: C_7  and  C_8
REMARK    4  A    between atoms: C_11  and  C_13
REMARK    5  A    between atoms: C_22  and  C_23
REMARK    6  A    between atoms: C_23  and  N_24
REMARK    7  A    between atoms: N_24  and  C_25
REMARK    8  A    between atoms: C_25  and  C_26
REMARK                            x       y       z     vdW  Elec       q    Type
REMARK                         _______ _______ _______ _____ _____    ______ ____
ROOT
ATOM      4  C   UNL     1      -0.851   1.786  24.618  0.00  0.00    +0.006 C 
ATOM      5  C   UNL     1      -0.305   1.187  24.466  0.00  0.00    +0.005 C 
ATOM      6  C   UNL     1      -0.565   0.421  24.311  0.00  0.00    +0.027 C 
ATOM     19  C   UNL     1      -1.372   0.252  24.307  0.00  0.00    -0.048 C 
ATOM     20  C   UNL     1      -1.633  -0.515  24.151  0.00  0.00    +0.026 C 
ATOM     21  C   UNL     1      -1.920   0.851  24.458  0.00  0.00    -0.033 C 
ATOM     22  C   UNL     1      -1.659   1.618  24.613  0.00  0.00    +0.039 C 
ENDROOT
BRANCH   4   2
ATOM      1  C   UNL     1      -0.394   2.774  25.544  0.00  0.00    +0.000 C 
ATOM      2  C   UNL     1      -0.590   2.553  24.773  0.00  0.00    +0.000 C 
ATOM      3  C   UNL     1      -0.526   3.099  24.159  0.00  0.00    +0.000 C 
ENDBRANCH   4   2
BRANCH   6   7
ATOM      7  C   UNL     1      -0.018  -0.178  24.159  0.00  0.00    +0.091 C 
BRANCH   7   8
ATOM      8  C   UNL     1       0.580  -0.061  23.603  0.00  0.00    +0.227 A 
ATOM      9  N   UNL     1       0.512  -0.171  22.788  0.00  0.00    -0.111 NA
ATOM     10  N   UNL     1       1.241   0.010  22.445  0.00  0.00    -0.106 NA
ATOM     11  C   UNL     1       1.759   0.232  23.047  0.00  0.00    +0.267 A 
ATOM     12  O   UNL     1       1.350   0.188  23.763  0.00  0.00    -0.418 OA
BRANCH  11  13
ATOM     13  C   UNL     1       2.546   0.457  22.952  0.00  0.00    +0.136 A 
ATOM     14  C   UNL     1       2.821   1.230  22.857  0.00  0.00    +0.123 A 
ATOM     15  N   UNL     1       3.641   1.200  22.781  0.00  0.00    -0.222 NA
ATOM     16  C   UNL     1       3.874   0.411  22.827  0.00  0.00    +0.179 A 
ATOM     17  N   UNL     1       3.197  -0.049  22.933  0.00  0.00    -0.303 N 
ATOM     18  C   UNL     1       3.175  -0.870  23.007  0.00  0.00    +0.132 C 
ENDBRANCH  11  13
ENDBRANCH   7   8
ENDBRANCH   6   7
BRANCH  22  23
ATOM     23  C   UNL     1      -2.206   2.217  24.765  0.00  0.00    +0.093 C 
BRANCH  23  24
ATOM     24  N   UNL     1      -3.010   2.040  24.812  0.00  0.00    -0.213 NA
BRANCH  24  25
ATOM     25  C   UNL     1      -3.570   2.630  24.683  0.00  0.00    +0.115 C 
BRANCH  25  26
ATOM     26  C   UNL     1      -4.342   2.536  24.962  0.00  0.00    -0.002 A 
ATOM     27  C   UNL     1      -4.839   1.974  24.619  0.00  0.00    +0.018 A 
ATOM     28  C   UNL     1      -5.609   1.880  24.898  0.00  0.00    +0.099 A 
ATOM     29  N   UNL     1      -5.883   2.348  25.521  0.00  0.00    -0.242 NA
ATOM     30  C   UNL     1      -5.386   2.910  25.863  0.00  0.00    +0.099 A 
ATOM     31  C   UNL     1      -4.615   3.004  25.583  0.00  0.00    +0.018 A 
ENDBRANCH  25  26
ENDBRANCH  24  25
ENDBRANCH  23  24
ENDBRANCH  22  23
TORSDOF 8
ENDMDL
