REMARK  Name = 
REMARK  8 active torsions:
REMARK  status: ('A' for Active; 'I' for Inactive)
REMARK    1  A    between atoms: O_2  and  C_3
REMARK    2  A    between atoms: C_3  and  C_4
REMARK    3  A    between atoms: C_4  and  N_5
REMARK    4  A    between atoms: N_8  and  C_9
REMARK    5  A    between atoms: C_9  and  C_10
REMARK    6  A    between atoms: C_14  and  C_15
REMARK    7  A    between atoms: C_15  and  C_16
REMARK    8  A    between atoms: C_23  and  C_24
REMARK                            x       y       z     vdW  Elec       q    Type
REMARK                         _______ _______ _______ _____ _____    ______ ____
ROOT
ATOM     10  C   UNL     1       1.536   5.590   0.000  0.00  0.00    +0.037 C 
ATOM     11  C   UNL     1       1.536   4.765   0.000  0.00  0.00    -0.034 C 
ATOM     12  C   UNL     1       0.821   4.353   0.000  0.00  0.00    -0.048 C 
ATOM     13  C   UNL     1       0.821   3.528   0.000  0.00  0.00    +0.026 C 
ATOM     14  C   UNL     1       0.107   4.765   0.000  0.00  0.00    +0.027 C 
ATOM     22  C   UNL     1       0.107   5.590   0.000  0.00  0.00    +0.005 C 
ATOM     23  C   UNL     1       0.821   6.003   0.000  0.00  0.00    +0.006 C 
ENDROOT
BRANCH  23  24
ATOM     24  C   UNL     1       0.821   6.828   0.000  0.00  0.00    +0.000 C 
ATOM     25  C   UNL     1       1.536   7.240   0.000  0.00  0.00    +0.000 C 
ATOM     26  C   UNL     1       0.107   7.240   0.000  0.00  0.00    +0.000 C 
ENDBRANCH  23  24
BRANCH  10   9
ATOM      9  C   UNL     1       2.250   6.003   0.000  0.00  0.00    +0.076 C 
BRANCH   9   8
ATOM      5  N   UNL     1       4.394   4.765   0.000  0.00  0.00    -0.268 NA
ATOM      6  C   UNL     1       3.679   4.353   0.000  0.00  0.00    +0.090 C 
ATOM      7  C   UNL     1       2.965   4.765   0.000  0.00  0.00    +0.090 C 
ATOM      8  N   UNL     1       2.965   5.590   0.000  0.00  0.00    -0.270 NA
ATOM     27  C   UNL     1       3.679   6.003   0.000  0.00  0.00    +0.090 C 
ATOM     28  C   UNL     1       4.394   5.590   0.000  0.00  0.00    +0.090 C 
BRANCH   5   4
ATOM      4  C   UNL     1       5.108   4.353   0.000  0.00  0.00    +0.105 C 
BRANCH   4   3
ATOM      3  C   UNL     1       5.108   3.528   0.000  0.00  0.00    +0.160 C 
BRANCH   3   2
ATOM      1  C   UNL     1       4.394   2.290   0.000  0.00  0.00    +0.174 C 
ATOM      2  O   UNL     1       4.394   3.115   0.000  0.00  0.00    -0.350 OA
ENDBRANCH   3   2
ENDBRANCH   4   3
ENDBRANCH   5   4
ENDBRANCH   9   8
ENDBRANCH  10   9
BRANCH  14  15
ATOM     15  C   UNL     1      -0.608   4.353   0.000  0.00  0.00    +0.091 C 
BRANCH  15  16
ATOM     16  C   UNL     1      -0.608   3.528   0.000  0.00  0.00    +0.226 A 
ATOM     17  N   UNL     1      -1.275   3.043   0.000  0.00  0.00    -0.112 NA
ATOM     18  N   UNL     1      -1.020   2.258   0.000  0.00  0.00    -0.112 NA
ATOM     19  C   UNL     1      -0.195   2.258   0.000  0.00  0.00    +0.227 A 
ATOM     20  C   UNL     1       0.290   1.591   0.000  0.00  0.00    +0.097 C 
ATOM     21  O   UNL     1       0.060   3.043   0.000  0.00  0.00    -0.423 OA
ENDBRANCH  15  16
ENDBRANCH  14  15
TORSDOF 8
