MODEL 1
REMARK VINA RESULT:     -10.2      0.000      0.000
REMARK  Name = 
REMARK  8 active torsions:
REMARK  status: ('A' for Active; 'I' for Inactive)
REMARK    1  A    between atoms: C_2  and  N_3
REMARK    2  A    between atoms: N_3  and  C_4
REMARK    3  A    between atoms: N_3  and  C_6
REMARK    4  A    between atoms: C_6  and  C_7
REMARK    5  A    between atoms: C_7  and  C_8
REMARK    6  A    between atoms: C_13  and  C_14
REMARK    7  A    between atoms: C_14  and  C_15
REMARK    8  A    between atoms: N_20  and  C_21
REMARK                            x       y       z     vdW  Elec       q    Type
REMARK                         _______ _______ _______ _____ _____    ______ ____
ROOT
ATOM      8  C   UNL     1      -2.956   1.948  24.926  0.00  0.00    +0.022 C 
ATOM      9  C   UNL     1      -3.090   1.138  24.848  0.00  0.00    +0.095 C 
ATOM     10  N   UNL     1      -3.860   0.854  24.757  0.00  0.00    -0.263 N 
ATOM     11  C   UNL     1      -4.495   1.381  24.743  0.00  0.00    +0.095 C 
ATOM     12  C   UNL     1      -4.360   2.192  24.821  0.00  0.00    +0.022 C 
ATOM     13  C   UNL     1      -3.590   2.475  24.912  0.00  0.00    +0.015 C 
ATOM     18  C   UNL     1      -3.994   0.044  24.679  0.00  0.00    +0.327 C 
ATOM     19  O   UNL     1      -4.764  -0.239  24.588  0.00  0.00    -0.250 OA
ATOM     20  N   UNL     1      -3.359  -0.483  24.693  0.00  0.00    -0.162 NA
ENDROOT
BRANCH  20  21
ATOM     21  C   UNL     1      -3.495  -1.293  24.615  0.00  0.00    +0.075 A 
ATOM     22  C   UNL     1      -3.320  -1.802  25.241  0.00  0.00    +0.017 A 
ATOM     23  C   UNL     1      -3.455  -2.611  25.164  0.00  0.00    +0.001 A 
ATOM     24  C   UNL     1      -3.765  -2.914  24.461  0.00  0.00    +0.000 A 
ATOM     25  C   UNL     1      -3.940  -2.405  23.836  0.00  0.00    +0.001 A 
ATOM     26  C   UNL     1      -3.804  -1.595  23.913  0.00  0.00    +0.017 A 
ENDBRANCH  20  21
BRANCH   8   7
ATOM      7  C   UNL     1      -2.186   2.230  25.017  0.00  0.00    +0.019 C 
BRANCH   7   6
ATOM      6  C   UNL     1      -1.548   1.709  24.973  0.00  0.00    +0.072 C 
BRANCH   6   3
ATOM      3  N   UNL     1      -0.785   1.975  25.144  0.00  0.00    -0.273 NA
BRANCH   3   2
ATOM      1  C   UNL     1       0.143   1.473  24.182  0.00  0.00    +0.019 C 
ATOM      2  C   UNL     1      -0.248   2.109  24.533  0.00  0.00    +0.072 C 
ENDBRANCH   3   2
BRANCH   3   4
ATOM      4  C   UNL     1      -0.561   2.107  25.927  0.00  0.00    +0.072 C 
ATOM      5  C   UNL     1       0.123   2.539  26.093  0.00  0.00    +0.019 C 
ENDBRANCH   3   4
ENDBRANCH   6   3
ENDBRANCH   7   6
ENDBRANCH   8   7
BRANCH  13  14
ATOM     14  C   UNL     1      -3.456   3.285  24.990  0.00  0.00    +0.114 C 
BRANCH  14  15
ATOM     15  C   UNL     1      -4.078   3.818  24.890  0.00  0.00    +0.365 C 
ATOM     16  O   UNL     1      -4.213   4.161  24.153  0.00  0.00    -0.246 OA
ATOM     17  O   UNL     1      -4.565   4.006  25.529  0.00  0.00    -0.246 OA
ENDBRANCH  14  15
ENDBRANCH  13  14
TORSDOF 8
ENDMDL
MODEL 2
REMARK VINA RESULT:      -9.9      1.495      2.984
REMARK  Name = 
REMARK  8 active torsions:
REMARK  status: ('A' for Active; 'I' for Inactive)
REMARK    1  A    between atoms: C_2  and  N_3
REMARK    2  A    between atoms: N_3  and  C_4
REMARK    3  A    between atoms: N_3  and  C_6
REMARK    4  A    between atoms: C_6  and  C_7
REMARK    5  A    between atoms: C_7  and  C_8
REMARK    6  A    between atoms: C_13  and  C_14
REMARK    7  A    between atoms: C_14  and  C_15
REMARK    8  A    between atoms: N_20  and  C_21
REMARK                            x       y       z     vdW  Elec       q    Type
REMARK                         _______ _______ _______ _____ _____    ______ ____
ROOT
ATOM      8  C   UNL     1      -2.791   1.956  24.935  0.00  0.00    +0.022 C 
ATOM      9  C   UNL     1      -2.968   1.156  24.841  0.00  0.00    +0.095 C 
ATOM     10  N   UNL     1      -2.364   0.616  24.683  0.00  0.00    -0.263 N 
ATOM     11  C   UNL     1      -1.584   0.877  24.620  0.00  0.00    +0.095 C 
ATOM     12  C   UNL     1      -1.407   1.678  24.714  0.00  0.00    +0.022 C 
ATOM     13  C   UNL     1      -2.011   2.217  24.872  0.00  0.00    +0.015 C 
ATOM     18  C   UNL     1      -2.540  -0.184  24.589  0.00  0.00    +0.327 C 
ATOM     19  O   UNL     1      -1.936  -0.724  24.431  0.00  0.00    -0.250 OA
ATOM     20  N   UNL     1      -3.320  -0.445  24.652  0.00  0.00    -0.162 NA
ENDROOT
BRANCH  20  21
ATOM     21  C   UNL     1      -3.496  -1.246  24.557  0.00  0.00    +0.075 A 
ATOM     22  C   UNL     1      -3.904  -1.502  23.888  0.00  0.00    +0.017 A 
ATOM     23  C   UNL     1      -4.080  -2.302  23.793  0.00  0.00    +0.001 A 
ATOM     24  C   UNL     1      -3.847  -2.847  24.367  0.00  0.00    +0.000 A 
ATOM     25  C   UNL     1      -3.438  -2.591  25.036  0.00  0.00    +0.001 A 
ATOM     26  C   UNL     1      -3.263  -1.791  25.131  0.00  0.00    +0.017 A 
ENDBRANCH  20  21
BRANCH   8   7
ATOM      7  C   UNL     1      -3.396   2.494  25.093  0.00  0.00    +0.019 C 
BRANCH   7   6
ATOM      6  C   UNL     1      -4.181   2.288  24.945  0.00  0.00    +0.072 C 
BRANCH   6   3
ATOM      3  N   UNL     1      -4.794   2.753  25.245  0.00  0.00    -0.273 NA
BRANCH   3   2
ATOM      1  C   UNL     1      -5.979   1.957  25.193  0.00  0.00    +0.019 C 
ATOM      2  C   UNL     1      -5.432   2.396  25.628  0.00  0.00    +0.072 C 
ENDBRANCH   3   2
BRANCH   3   4
ATOM      4  C   UNL     1      -4.768   3.573  25.163  0.00  0.00    +0.072 C 
ATOM      5  C   UNL     1      -5.332   4.043  25.541  0.00  0.00    +0.019 C 
ENDBRANCH   3   4
ENDBRANCH   6   3
ENDBRANCH   7   6
ENDBRANCH   8   7
BRANCH  13  14
ATOM     14  C   UNL     1      -1.835   3.017  24.967  0.00  0.00    +0.114 C 
BRANCH  14  15
ATOM     15  C   UNL     1      -1.049   3.267  24.982  0.00  0.00    +0.365 C 
ATOM     16  O   UNL     1      -0.641   3.301  25.697  0.00  0.00    -0.246 OA
ATOM     17  O   UNL     1      -0.672   3.484  24.280  0.00  0.00    -0.246 OA
ENDBRANCH  14  15
ENDBRANCH  13  14
TORSDOF 8
ENDMDL
MODEL 3
REMARK VINA RESULT:      -9.3      1.385      4.101
REMARK  Name = 
REMARK  8 active torsions:
REMARK  status: ('A' for Active; 'I' for Inactive)
REMARK    1  A    between atoms: C_2  and  N_3
REMARK    2  A    between atoms: N_3  and  C_4
REMARK    3  A    between atoms: N_3  and  C_6
REMARK    4  A    between atoms: C_6  and  C_7
REMARK    5  A    between atoms: C_7  and  C_8
REMARK    6  A    between atoms: C_13  and  C_14
REMARK    7  A    between atoms: C_14  and  C_15
REMARK    8  A    between atoms: N_20  and  C_21
REMARK                            x       y       z     vdW  Elec       q    Type
REMARK                         _______ _______ _______ _____ _____    ______ ____
ROOT
ATOM      8  C   UNL     1      -2.862  -0.490  24.650  0.00  0.00    +0.022 C 
ATOM      9  C   UNL     1      -3.205   0.257  24.729  0.00  0.00    +0.095 C 
ATOM     10  N   UNL     1      -4.027   0.336  24.719  0.00  0.00    -0.263 N 
ATOM     11  C   UNL     1      -4.505  -0.331  24.630  0.00  0.00    +0.095 C 
ATOM     12  C   UNL     1      -4.161  -1.077  24.552  0.00  0.00    +0.022 C 
ATOM     13  C   UNL     1      -3.340  -1.156  24.561  0.00  0.00    +0.015 C 
ATOM     18  C   UNL     1      -4.369   1.082  24.798  0.00  0.00    +0.327 C 
ATOM     19  O   UNL     1      -5.191   1.162  24.788  0.00  0.00    -0.250 OA
ATOM     20  N   UNL     1      -3.891   1.749  24.887  0.00  0.00    -0.162 NA
ENDROOT
BRANCH  20  21
ATOM     21  C   UNL     1      -4.235   2.495  24.965  0.00  0.00    +0.075 A 
ATOM     22  C   UNL     1      -4.172   3.044  24.353  0.00  0.00    +0.017 A 
ATOM     23  C   UNL     1      -4.516   3.790  24.432  0.00  0.00    +0.001 A 
ATOM     24  C   UNL     1      -4.923   3.987  25.122  0.00  0.00    +0.000 A 
ATOM     25  C   UNL     1      -4.986   3.437  25.734  0.00  0.00    +0.001 A 
ATOM     26  C   UNL     1      -4.642   2.691  25.655  0.00  0.00    +0.017 A 
ENDBRANCH  20  21
BRANCH   8   7
ATOM      7  C   UNL     1      -2.041  -0.568  24.660  0.00  0.00    +0.019 C 
BRANCH   7   6
ATOM      6  C   UNL     1      -1.565   0.046  24.381  0.00  0.00    +0.072 C 
BRANCH   6   3
ATOM      3  N   UNL     1      -0.747   0.015  24.490  0.00  0.00    -0.273 NA
BRANCH   3   2
ATOM      1  C   UNL     1       0.345  -0.355  23.647  0.00  0.00    +0.019 C 
ATOM      2  C   UNL     1      -0.303  -0.567  24.111  0.00  0.00    +0.072 C 
ENDBRANCH   3   2
BRANCH   3   4
ATOM      4  C   UNL     1      -0.374   0.567  24.976  0.00  0.00    +0.072 C 
ATOM      5  C   UNL     1      -0.269   1.343  24.715  0.00  0.00    +0.019 C 
ENDBRANCH   3   4
ENDBRANCH   6   3
ENDBRANCH   7   6
ENDBRANCH   8   7
BRANCH  13  14
ATOM     14  C   UNL     1      -2.998  -1.902  24.482  0.00  0.00    +0.114 C 
BRANCH  14  15
ATOM     15  C   UNL     1      -3.453  -2.580  24.602  0.00  0.00    +0.365 C 
ATOM     16  O   UNL     1      -3.859  -2.920  23.970  0.00  0.00    -0.246 OA
ATOM     17  O   UNL     1      -3.500  -2.917  25.353  0.00  0.00    -0.246 OA
ENDBRANCH  14  15
ENDBRANCH  13  14
TORSDOF 8
ENDMDL
MODEL 4
REMARK VINA RESULT:      -9.3      1.170      4.096
REMARK  Name = 
REMARK  8 active torsions:
REMARK  status: ('A' for Active; 'I' for Inactive)
REMARK    1  A    between atoms: C_2  and  N_3
REMARK    2  A    between atoms: N_3  and  C_4
REMARK    3  A    between atoms: N_3  and  C_6
REMARK    4  A    between atoms: C_6  and  C_7
REMARK    5  A    between atoms: C_7  and  C_8
REMARK    6  A    between atoms: C_13  and  C_14
REMARK    7  A    between atoms: C_14  and  C_15
REMARK    8  A    between atoms: N_20  and  C_21
REMARK                            x       y       z     vdW  Elec       q    Type
REMARK                         _______ _______ _______ _____ _____    ______ ____
ROOT
ATOM      8  C   UNL     1      -4.192   0.931  24.909  0.00  0.00    +0.022 C 
ATOM      9  C   UNL     1      -3.415   1.208  24.942  0.00  0.00    +0.095 C 
ATOM     10  N   UNL     1      -3.270   2.016  25.037  0.00  0.00    -0.263 N 
ATOM     11  C   UNL     1      -3.900   2.544  25.098  0.00  0.00    +0.095 C 
ATOM     12  C   UNL     1      -4.677   2.266  25.065  0.00  0.00    +0.022 C 
ATOM     13  C   UNL     1      -4.822   1.460  24.970  0.00  0.00    +0.015 C 
ATOM     18  C   UNL     1      -2.494   2.293  25.070  0.00  0.00    +0.327 C 
ATOM     19  O   UNL     1      -2.348   3.100  25.165  0.00  0.00    -0.250 OA
ATOM     20  N   UNL     1      -1.863   1.764  25.009  0.00  0.00    -0.162 NA
ENDROOT
BRANCH  20  21
ATOM     21  C   UNL     1      -1.087   2.043  25.043  0.00  0.00    +0.075 A 
ATOM     22  C   UNL     1      -0.721   2.156  25.773  0.00  0.00    +0.017 A 
ATOM     23  C   UNL     1       0.054   2.434  25.807  0.00  0.00    +0.001 A 
ATOM     24  C   UNL     1       0.464   2.600  25.111  0.00  0.00    +0.000 A 
ATOM     25  C   UNL     1       0.098   2.487  24.380  0.00  0.00    +0.001 A 
ATOM     26  C   UNL     1      -0.678   2.209  24.347  0.00  0.00    +0.017 A 
ENDBRANCH  20  21
BRANCH   8   7
ATOM      7  C   UNL     1      -4.336   0.125  24.815  0.00  0.00    +0.019 C 
BRANCH   7   6
ATOM      6  C   UNL     1      -3.705  -0.399  24.722  0.00  0.00    +0.072 C 
BRANCH   6   3
ATOM      3  N   UNL     1      -3.850  -1.206  24.617  0.00  0.00    -0.273 NA
BRANCH   3   2
ATOM      1  C   UNL     1      -2.887  -2.030  25.274  0.00  0.00    +0.019 C 
ATOM      2  C   UNL     1      -3.657  -1.740  25.215  0.00  0.00    +0.072 C 
ENDBRANCH   3   2
BRANCH   3   4
ATOM      4  C   UNL     1      -4.188  -1.476  23.915  0.00  0.00    +0.072 C 
ATOM      5  C   UNL     1      -4.320  -2.283  23.805  0.00  0.00    +0.019 C 
ENDBRANCH   3   4
ENDBRANCH   6   3
ENDBRANCH   7   6
ENDBRANCH   8   7
BRANCH  13  14
ATOM     14  C   UNL     1      -5.598   1.182  24.937  0.00  0.00    +0.114 C 
BRANCH  14  15
ATOM     15  C   UNL     1      -6.221   1.667  25.178  0.00  0.00    +0.365 C 
ATOM     16  O   UNL     1      -6.686   2.050  24.616  0.00  0.00    -0.246 OA
ATOM     17  O   UNL     1      -6.377   1.768  25.982  0.00  0.00    -0.246 OA
ENDBRANCH  14  15
ENDBRANCH  13  14
TORSDOF 8
ENDMDL
MODEL 5
REMARK VINA RESULT:      -9.0      1.807      4.723
REMARK  Name = 
REMARK  8 active torsions:
REMARK  status: ('A' for Active; 'I' for Inactive)
REMARK    1  A    between atoms: C_2  and  N_3
REMARK    2  A    between atoms: N_3  and  C_4
REMARK    3  A    between atoms: N_3  and  C_6
REMARK    4  A    between atoms: C_6  and  C_7
REMARK    5  A    between atoms: C_7  and  C_8
REMARK    6  A    between atoms: C_13  and  C_14
REMARK    7  A    between atoms: C_14  and  C_15
REMARK    8  A    between atoms: N_20  and  C_21
REMARK                            x       y       z     vdW  Elec       q    Type
REMARK                         _______ _______ _______ _____ _____    ______ ____
ROOT
ATOM      8  C   UNL     1      -3.568   0.087  24.745  0.00  0.00    +0.022 C 
ATOM      9  C   UNL     1      -2.892   0.534  24.898  0.00  0.00    +0.095 C 
ATOM     10  N   UNL     1      -2.150   0.172  24.899  0.00  0.00    -0.263 N 
ATOM     11  C   UNL     1      -2.084  -0.636  24.747  0.00  0.00    +0.095 C 
ATOM     12  C   UNL     1      -2.761  -1.083  24.593  0.00  0.00    +0.022 C 
ATOM     13  C   UNL     1      -3.502  -0.721  24.592  0.00  0.00    +0.015 C 
ATOM     18  C   UNL     1      -1.474   0.620  25.053  0.00  0.00    +0.327 C 
ATOM     19  O   UNL     1      -0.732   0.258  25.054  0.00  0.00    -0.250 OA
ATOM     20  N   UNL     1      -1.540   1.428  25.206  0.00  0.00    -0.162 NA
ENDROOT
BRANCH  20  21
ATOM     21  C   UNL     1      -0.863   1.874  25.360  0.00  0.00    +0.075 A 
ATOM     22  C   UNL     1      -0.428   2.192  24.734  0.00  0.00    +0.017 A 
ATOM     23  C   UNL     1       0.248   2.638  24.887  0.00  0.00    +0.001 A 
ATOM     24  C   UNL     1       0.490   2.767  25.666  0.00  0.00    +0.000 A 
ATOM     25  C   UNL     1       0.055   2.450  26.291  0.00  0.00    +0.001 A 
ATOM     26  C   UNL     1      -0.621   2.003  26.137  0.00  0.00    +0.017 A 
ENDBRANCH  20  21
BRANCH   8   7
ATOM      7  C   UNL     1      -4.309   0.448  24.744  0.00  0.00    +0.019 C 
BRANCH   7   6
ATOM      6  C   UNL     1      -4.404   1.196  25.081  0.00  0.00    +0.072 C 
BRANCH   6   3
ATOM      3  N   UNL     1      -5.097   1.624  24.949  0.00  0.00    -0.273 NA
BRANCH   3   2
ATOM      1  C   UNL     1      -6.521   1.707  25.011  0.00  0.00    +0.019 C 
ATOM      2  C   UNL     1      -5.817   1.341  25.236  0.00  0.00    +0.072 C 
ENDBRANCH   3   2
BRANCH   3   4
ATOM      4  C   UNL     1      -5.070   2.334  24.529  0.00  0.00    +0.072 C 
ATOM      5  C   UNL     1      -4.817   3.024  24.904  0.00  0.00    +0.019 C 
ENDBRANCH   3   4
ENDBRANCH   6   3
ENDBRANCH   7   6
ENDBRANCH   8   7
BRANCH  13  14
ATOM     14  C   UNL     1      -4.178  -1.169  24.438  0.00  0.00    +0.114 C 
BRANCH  14  15
ATOM     15  C   UNL     1      -4.107  -1.950  24.183  0.00  0.00    +0.365 C 
ATOM     16  O   UNL     1      -4.199  -2.133  23.385  0.00  0.00    -0.246 OA
ATOM     17  O   UNL     1      -3.943  -2.548  24.728  0.00  0.00    -0.246 OA
ENDBRANCH  14  15
ENDBRANCH  13  14
TORSDOF 8
ENDMDL
