MODEL 1
REMARK VINA RESULT:     -10.1      0.000      0.000
REMARK  Name = 
REMARK  6 active torsions:
REMARK  status: ('A' for Active; 'I' for Inactive)
REMARK    1  A    between atoms: S_2  and  N_4
REMARK    2  A    between atoms: S_2  and  C_29
REMARK    3  A    between atoms: N_4  and  C_5
REMARK    4  A    between atoms: C_9  and  N_13
REMARK    5  A    between atoms: C_16  and  C_20
REMARK    6  A    between atoms: C_34  and  C_35
REMARK                            x       y       z     vdW  Elec       q    Type
REMARK                         _______ _______ _______ _____ _____    ______ ____
ROOT
ATOM      5  C   UNL     1      -2.197   1.683  23.960  0.00  0.00    +0.157 C 
ATOM      6  C   UNL     1      -1.790   2.401  23.980  0.00  0.00    +0.164 C 
ATOM      7  O   UNL     1      -0.982   2.236  23.997  0.00  0.00    -0.350 OA
ATOM      8  C   UNL     1      -0.890   1.417  23.989  0.00  0.00    +0.166 C 
ATOM      9  C   UNL     1      -0.331   0.808  23.994  0.00  0.00    +0.154 C 
ATOM     10  C   UNL     1      -0.738   0.091  23.975  0.00  0.00    +0.166 C 
ATOM     11  O   UNL     1      -1.546   0.255  23.957  0.00  0.00    -0.350 OA
ATOM     12  C   UNL     1      -1.640   1.074  23.966  0.00  0.00    +0.164 C 
ENDROOT
BRANCH   9  13
ATOM     13  N   UNL     1       0.487   0.902  24.016  0.00  0.00    -0.200 NA
ATOM     14  C   UNL     1       0.961   0.511  23.465  0.00  0.00    +0.237 A 
ATOM     15  N   UNL     1       1.782   0.604  23.486  0.00  0.00    -0.212 NA
ATOM     16  C   UNL     1       2.256   0.213  22.936  0.00  0.00    +0.086 A 
ATOM     17  C   UNL     1       1.910  -0.271  22.364  0.00  0.00    +0.040 A 
ATOM     18  C   UNL     1       1.091  -0.365  22.343  0.00  0.00    +0.103 A 
ATOM     19  N   UNL     1       0.617   0.026  22.893  0.00  0.00    -0.211 NA
BRANCH  16  20
ATOM     20  C   UNL     1       3.075   0.306  22.957  0.00  0.00    +0.021 A 
ATOM     21  C   UNL     1       3.542  -0.241  23.360  0.00  0.00    +0.042 A 
ATOM     22  C   UNL     1       4.361  -0.148  23.382  0.00  0.00    +0.176 A 
ATOM     23  C   UNL     1       4.713   0.493  23.000  0.00  0.00    +0.176 A 
ATOM     24  O   UNL     1       5.528   0.443  23.115  0.00  0.00    -0.435 OA
ATOM     25  C   UNL     1       5.680  -0.230  23.568  0.00  0.00    +0.429 C 
ATOM     26  O   UNL     1       4.959  -0.594  23.732  0.00  0.00    -0.435 OA
ATOM     27  C   UNL     1       4.246   1.041  22.597  0.00  0.00    +0.040 A 
ATOM     28  C   UNL     1       3.427   0.947  22.576  0.00  0.00    +0.005 A 
ENDBRANCH  16  20
ENDBRANCH   9  13
BRANCH   5   4
ATOM      4  N   UNL     1      -3.016   1.590  23.939  0.00  0.00    -0.074 NA
BRANCH   4   2
ATOM      1  O   UNL     1      -3.311   1.787  25.050  0.00  0.00    -0.152 OA
ATOM      2  S   UNL     1      -3.503   2.132  24.326  0.00  0.00    +0.078 S 
ATOM      3  O   UNL     1      -3.695   2.477  23.601  0.00  0.00    -0.152 OA
BRANCH   2  29
ATOM     29  C   UNL     1      -3.990   2.674  24.713  0.00  0.00    +0.133 A 
ATOM     30  C   UNL     1      -3.725   3.444  24.846  0.00  0.00    +0.021 A 
ATOM     31  C   UNL     1      -4.212   3.986  25.233  0.00  0.00    +0.001 A 
ATOM     32  C   UNL     1      -4.964   3.757  25.487  0.00  0.00    +0.001 A 
ATOM     33  C   UNL     1      -5.228   2.988  25.352  0.00  0.00    +0.012 A 
ATOM     34  C   UNL     1      -4.741   2.446  24.965  0.00  0.00    +0.087 A 
BRANCH  34  35
ATOM     35  C   UNL     1      -5.006   1.676  24.832  0.00  0.00    +0.102 C 
ATOM     36  N   UNL     1      -5.272   0.906  24.699  0.00  0.00    -0.191 NA
ENDBRANCH  34  35
ENDBRANCH   2  29
ENDBRANCH   4   2
ENDBRANCH   5   4
TORSDOF 6
ENDMDL
MODEL 2
REMARK VINA RESULT:      -9.0      1.624      2.249
REMARK  Name = 
REMARK  6 active torsions:
REMARK  status: ('A' for Active; 'I' for Inactive)
REMARK    1  A    between atoms: S_2  and  N_4
REMARK    2  A    between atoms: S_2  and  C_29
REMARK    3  A    between atoms: N_4  and  C_5
REMARK    4  A    between atoms: C_9  and  N_13
REMARK    5  A    between atoms: C_16  and  C_20
REMARK    6  A    between atoms: C_34  and  C_35
REMARK                            x       y       z     vdW  Elec       q    Type
REMARK                         _______ _______ _______ _____ _____    ______ ____
ROOT
ATOM      5  C   UNL     1      -1.736   0.699  24.820  0.00  0.00    +0.157 C 
ATOM      6  C   UNL     1      -1.287   0.309  25.391  0.00  0.00    +0.164 C 
ATOM      7  O   UNL     1      -0.490   0.437  25.222  0.00  0.00    -0.350 OA
ATOM      8  C   UNL     1      -0.446   0.908  24.546  0.00  0.00    +0.166 C 
ATOM      9  C   UNL     1       0.075   1.278  24.023  0.00  0.00    +0.154 C 
ATOM     10  C   UNL     1      -0.374   1.669  23.452  0.00  0.00    +0.166 C 
ATOM     11  O   UNL     1      -1.171   1.540  23.621  0.00  0.00    -0.350 OA
ATOM     12  C   UNL     1      -1.216   1.070  24.297  0.00  0.00    +0.164 C 
ENDROOT
BRANCH   9  13
ATOM     13  N   UNL     1       0.898   1.261  24.065  0.00  0.00    -0.200 NA
ATOM     14  C   UNL     1       1.330   0.825  23.513  0.00  0.00    +0.237 A 
ATOM     15  N   UNL     1       2.154   0.808  23.555  0.00  0.00    -0.212 NA
ATOM     16  C   UNL     1       2.586   0.372  23.003  0.00  0.00    +0.086 A 
ATOM     17  C   UNL     1       2.193  -0.046  22.410  0.00  0.00    +0.040 A 
ATOM     18  C   UNL     1       1.370  -0.028  22.368  0.00  0.00    +0.103 A 
ATOM     19  N   UNL     1       0.938   0.407  22.920  0.00  0.00    -0.211 NA
BRANCH  16  20
ATOM     20  C   UNL     1       3.409   0.354  23.045  0.00  0.00    +0.021 A 
ATOM     21  C   UNL     1       3.788  -0.245  23.466  0.00  0.00    +0.042 A 
ATOM     22  C   UNL     1       4.612  -0.263  23.508  0.00  0.00    +0.176 A 
ATOM     23  C   UNL     1       5.056   0.320  23.129  0.00  0.00    +0.176 A 
ATOM     24  O   UNL     1       5.854   0.161  23.266  0.00  0.00    -0.435 OA
ATOM     25  C   UNL     1       5.903  -0.519  23.729  0.00  0.00    +0.429 C 
ATOM     26  O   UNL     1       5.135  -0.780  23.879  0.00  0.00    -0.435 OA
ATOM     27  C   UNL     1       4.677   0.920  22.707  0.00  0.00    +0.040 A 
ATOM     28  C   UNL     1       3.854   0.937  22.666  0.00  0.00    +0.005 A 
ENDBRANCH  16  20
ENDBRANCH   9  13
BRANCH   5   4
ATOM      4  N   UNL     1      -2.559   0.717  24.778  0.00  0.00    -0.074 NA
BRANCH   4   2
ATOM      1  O   UNL     1      -2.922  -0.185  25.423  0.00  0.00    -0.152 OA
ATOM      2  S   UNL     1      -2.979   0.023  24.627  0.00  0.00    +0.078 S 
ATOM      3  O   UNL     1      -3.036   0.231  23.831  0.00  0.00    -0.152 OA
BRANCH   2  29
ATOM     29  C   UNL     1      -3.399  -0.671  24.476  0.00  0.00    +0.133 A 
ATOM     30  C   UNL     1      -2.994  -1.376  24.339  0.00  0.00    +0.021 A 
ATOM     31  C   UNL     1      -3.414  -2.070  24.189  0.00  0.00    +0.001 A 
ATOM     32  C   UNL     1      -4.239  -2.059  24.175  0.00  0.00    +0.001 A 
ATOM     33  C   UNL     1      -4.643  -1.353  24.312  0.00  0.00    +0.012 A 
ATOM     34  C   UNL     1      -4.223  -0.659  24.463  0.00  0.00    +0.087 A 
BRANCH  34  35
ATOM     35  C   UNL     1      -4.629   0.047  24.600  0.00  0.00    +0.102 C 
ATOM     36  N   UNL     1      -5.034   0.752  24.736  0.00  0.00    -0.191 NA
ENDBRANCH  34  35
ENDBRANCH   2  29
ENDBRANCH   4   2
ENDBRANCH   5   4
TORSDOF 6
ENDMDL
MODEL 3
REMARK VINA RESULT:      -8.3      1.372      2.114
REMARK  Name = 
REMARK  6 active torsions:
REMARK  status: ('A' for Active; 'I' for Inactive)
REMARK    1  A    between atoms: S_2  and  N_4
REMARK    2  A    between atoms: S_2  and  C_29
REMARK    3  A    between atoms: N_4  and  C_5
REMARK    4  A    between atoms: C_9  and  N_13
REMARK    5  A    between atoms: C_16  and  C_20
REMARK    6  A    between atoms: C_34  and  C_35
REMARK                            x       y       z     vdW  Elec       q    Type
REMARK                         _______ _______ _______ _____ _____    ______ ____
ROOT
ATOM      5  C   UNL     1      -2.868   3.259  24.820  0.00  0.00    +0.157 C 
ATOM      6  C   UNL     1      -2.795   3.309  24.000  0.00  0.00    +0.164 C 
ATOM      7  O   UNL     1      -2.026   3.090  23.798  0.00  0.00    -0.350 OA
ATOM      8  C   UNL     1      -1.624   2.904  24.494  0.00  0.00    +0.166 C 
ATOM      9  C   UNL     1      -0.898   2.654  24.800  0.00  0.00    +0.154 C 
ATOM     10  C   UNL     1      -0.972   2.604  25.620  0.00  0.00    +0.166 C 
ATOM     11  O   UNL     1      -1.741   2.823  25.821  0.00  0.00    -0.350 OA
ATOM     12  C   UNL     1      -2.144   3.009  25.126  0.00  0.00    +0.164 C 
ENDROOT
BRANCH   9  13
ATOM     13  N   UNL     1      -0.221   2.484  24.362  0.00  0.00    -0.200 NA
ATOM     14  C   UNL     1       0.001   1.699  24.233  0.00  0.00    +0.237 A 
ATOM     15  N   UNL     1       0.679   1.529  23.795  0.00  0.00    -0.212 NA
ATOM     16  C   UNL     1       0.901   0.744  23.666  0.00  0.00    +0.086 A 
ATOM     17  C   UNL     1       0.444   0.131  23.975  0.00  0.00    +0.040 A 
ATOM     18  C   UNL     1      -0.234   0.301  24.413  0.00  0.00    +0.103 A 
ATOM     19  N   UNL     1      -0.455   1.085  24.542  0.00  0.00    -0.211 NA
BRANCH  16  20
ATOM     20  C   UNL     1       1.578   0.574  23.228  0.00  0.00    +0.021 A 
ATOM     21  C   UNL     1       2.290   0.950  23.407  0.00  0.00    +0.042 A 
ATOM     22  C   UNL     1       2.968   0.780  22.969  0.00  0.00    +0.176 A 
ATOM     23  C   UNL     1       2.934   0.233  22.352  0.00  0.00    +0.176 A 
ATOM     24  O   UNL     1       3.686   0.177  22.019  0.00  0.00    -0.435 OA
ATOM     25  C   UNL     1       4.186   0.688  22.430  0.00  0.00    +0.429 C 
ATOM     26  O   UNL     1       3.742   1.060  23.017  0.00  0.00    -0.435 OA
ATOM     27  C   UNL     1       2.221  -0.143  22.172  0.00  0.00    +0.040 A 
ATOM     28  C   UNL     1       1.544   0.028  22.611  0.00  0.00    +0.005 A 
ENDBRANCH  16  20
ENDBRANCH   9  13
BRANCH   5   4
ATOM      4  N   UNL     1      -3.546   3.429  25.258  0.00  0.00    -0.074 NA
BRANCH   4   2
ATOM      1  O   UNL     1      -4.338   3.207  24.430  0.00  0.00    -0.152 OA
ATOM      2  S   UNL     1      -4.208   2.940  25.200  0.00  0.00    +0.078 S 
ATOM      3  O   UNL     1      -4.078   2.673  25.970  0.00  0.00    -0.152 OA
BRANCH   2  29
ATOM     29  C   UNL     1      -4.870   2.451  25.142  0.00  0.00    +0.133 A 
ATOM     30  C   UNL     1      -4.785   1.672  24.883  0.00  0.00    +0.021 A 
ATOM     31  C   UNL     1      -5.447   1.183  24.825  0.00  0.00    +0.001 A 
ATOM     32  C   UNL     1      -6.193   1.473  25.027  0.00  0.00    +0.001 A 
ATOM     33  C   UNL     1      -6.277   2.251  25.286  0.00  0.00    +0.012 A 
ATOM     34  C   UNL     1      -5.615   2.741  25.343  0.00  0.00    +0.087 A 
BRANCH  34  35
ATOM     35  C   UNL     1      -5.699   3.519  25.603  0.00  0.00    +0.102 C 
ATOM     36  N   UNL     1      -5.785   4.298  25.863  0.00  0.00    -0.191 NA
ENDBRANCH  34  35
ENDBRANCH   2  29
ENDBRANCH   4   2
ENDBRANCH   5   4
TORSDOF 6
ENDMDL
MODEL 4
REMARK VINA RESULT:      -7.8     15.162     17.347
REMARK  Name = 
REMARK  6 active torsions:
REMARK  status: ('A' for Active; 'I' for Inactive)
REMARK    1  A    between atoms: S_2  and  N_4
REMARK    2  A    between atoms: S_2  and  C_29
REMARK    3  A    between atoms: N_4  and  C_5
REMARK    4  A    between atoms: C_9  and  N_13
REMARK    5  A    between atoms: C_16  and  C_20
REMARK    6  A    between atoms: C_34  and  C_35
REMARK                            x       y       z     vdW  Elec       q    Type
REMARK                         _______ _______ _______ _____ _____    ______ ____
ROOT
ATOM      5  C   UNL     1      -5.249  -9.725  12.285  0.00  0.00    +0.157 C 
ATOM      6  C   UNL     1      -5.978  -9.396  12.078  0.00  0.00    +0.164 C 
ATOM      7  O   UNL     1      -6.499  -9.517  12.706  0.00  0.00    -0.350 OA
ATOM      8  C   UNL     1      -6.094  -9.920  13.300  0.00  0.00    +0.166 C 
ATOM      9  C   UNL     1      -6.166 -10.243  14.056  0.00  0.00    +0.154 C 
ATOM     10  C   UNL     1      -5.438 -10.572  14.263  0.00  0.00    +0.166 C 
ATOM     11  O   UNL     1      -4.916 -10.451  13.635  0.00  0.00    -0.350 OA
ATOM     12  C   UNL     1      -5.321 -10.048  13.041  0.00  0.00    +0.164 C 
ENDROOT
BRANCH   9  13
ATOM     13  N   UNL     1      -6.846 -10.239  14.522  0.00  0.00    -0.200 NA
ATOM     14  C   UNL     1      -6.806  -9.990  15.308  0.00  0.00    +0.237 A 
ATOM     15  N   UNL     1      -7.487  -9.986  15.775  0.00  0.00    -0.212 NA
ATOM     16  C   UNL     1      -7.447  -9.737  16.560  0.00  0.00    +0.086 A 
ATOM     17  C   UNL     1      -6.726  -9.493  16.879  0.00  0.00    +0.040 A 
ATOM     18  C   UNL     1      -6.046  -9.497  16.413  0.00  0.00    +0.103 A 
ATOM     19  N   UNL     1      -6.086  -9.746  15.627  0.00  0.00    -0.211 NA
BRANCH  16  20
ATOM     20  C   UNL     1      -8.127  -9.733  17.026  0.00  0.00    +0.021 A 
ATOM     21  C   UNL     1      -8.687  -9.135  16.934  0.00  0.00    +0.042 A 
ATOM     22  C   UNL     1      -9.367  -9.130  17.401  0.00  0.00    +0.176 A 
ATOM     23  C   UNL     1      -9.488  -9.725  17.959  0.00  0.00    +0.176 A 
ATOM     24  O   UNL     1     -10.206  -9.578  18.337  0.00  0.00    -0.435 OA
ATOM     25  C   UNL     1     -10.529  -8.892  18.013  0.00  0.00    +0.429 C 
ATOM     26  O   UNL     1     -10.011  -8.616  17.434  0.00  0.00    -0.435 OA
ATOM     27  C   UNL     1      -8.928 -10.325  18.051  0.00  0.00    +0.040 A 
ATOM     28  C   UNL     1      -8.248 -10.328  17.585  0.00  0.00    +0.005 A 
ENDBRANCH  16  20
ENDBRANCH   9  13
BRANCH   5   4
ATOM      4  N   UNL     1      -4.569  -9.729  11.819  0.00  0.00    -0.074 NA
BRANCH   4   2
ATOM      1  O   UNL     1      -4.633  -8.783  11.138  0.00  0.00    -0.152 OA
ATOM      2  S   UNL     1      -4.625  -9.597  11.006  0.00  0.00    +0.078 S 
ATOM      3  O   UNL     1      -4.618 -10.412  10.874  0.00  0.00    -0.152 OA
BRANCH   2  29
ATOM     29  C   UNL     1      -4.682  -9.466  10.194  0.00  0.00    +0.133 A 
ATOM     30  C   UNL     1      -5.419  -9.483   9.824  0.00  0.00    +0.021 A 
ATOM     31  C   UNL     1      -5.475  -9.352   9.011  0.00  0.00    +0.001 A 
ATOM     32  C   UNL     1      -4.794  -9.203   8.569  0.00  0.00    +0.001 A 
ATOM     33  C   UNL     1      -4.057  -9.187   8.940  0.00  0.00    +0.012 A 
ATOM     34  C   UNL     1      -4.001  -9.318   9.752  0.00  0.00    +0.087 A 
BRANCH  34  35
ATOM     35  C   UNL     1      -3.264  -9.301  10.123  0.00  0.00    +0.102 C 
ATOM     36  N   UNL     1      -2.526  -9.284  10.491  0.00  0.00    -0.191 NA
ENDBRANCH  34  35
ENDBRANCH   2  29
ENDBRANCH   4   2
ENDBRANCH   5   4
TORSDOF 6
ENDMDL
MODEL 5
REMARK VINA RESULT:      -7.6      1.752      7.273
REMARK  Name = 
REMARK  6 active torsions:
REMARK  status: ('A' for Active; 'I' for Inactive)
REMARK    1  A    between atoms: S_2  and  N_4
REMARK    2  A    between atoms: S_2  and  C_29
REMARK    3  A    between atoms: N_4  and  C_5
REMARK    4  A    between atoms: C_9  and  N_13
REMARK    5  A    between atoms: C_16  and  C_20
REMARK    6  A    between atoms: C_34  and  C_35
REMARK                            x       y       z     vdW  Elec       q    Type
REMARK                         _______ _______ _______ _____ _____    ______ ____
ROOT
ATOM      5  C   UNL     1       1.001   0.179  23.332  0.00  0.00    +0.157 C 
ATOM      6  C   UNL     1       0.979   1.003  23.308  0.00  0.00    +0.164 C 
ATOM      7  O   UNL     1       0.286   1.251  23.680  0.00  0.00    -0.350 OA
ATOM      8  C   UNL     1      -0.121   0.580  23.934  0.00  0.00    +0.166 C 
ATOM      9  C   UNL     1      -0.801   0.319  24.321  0.00  0.00    +0.154 C 
ATOM     10  C   UNL     1      -0.779  -0.505  24.345  0.00  0.00    +0.166 C 
ATOM     11  O   UNL     1      -0.086  -0.753  23.973  0.00  0.00    -0.350 OA
ATOM     12  C   UNL     1       0.321  -0.083  23.719  0.00  0.00    +0.164 C 
ENDROOT
BRANCH   9  13
ATOM     13  N   UNL     1      -1.397   0.798  24.630  0.00  0.00    -0.200 NA
ATOM     14  C   UNL     1      -2.184   0.661  24.423  0.00  0.00    +0.237 A 
ATOM     15  N   UNL     1      -2.782   1.140  24.732  0.00  0.00    -0.212 NA
ATOM     16  C   UNL     1      -3.569   1.003  24.526  0.00  0.00    +0.086 A 
ATOM     17  C   UNL     1      -3.758   0.387  24.011  0.00  0.00    +0.040 A 
ATOM     18  C   UNL     1      -3.162  -0.092  23.703  0.00  0.00    +0.103 A 
ATOM     19  N   UNL     1      -2.375   0.045  23.909  0.00  0.00    -0.211 NA
BRANCH  16  20
ATOM     20  C   UNL     1      -4.165   1.482  24.834  0.00  0.00    +0.021 A 
ATOM     21  C   UNL     1      -4.090   2.302  24.808  0.00  0.00    +0.042 A 
ATOM     22  C   UNL     1      -4.686   2.782  25.116  0.00  0.00    +0.176 A 
ATOM     23  C   UNL     1      -5.358   2.440  25.451  0.00  0.00    +0.176 A 
ATOM     24  O   UNL     1      -5.852   3.048  25.709  0.00  0.00    -0.435 OA
ATOM     25  C   UNL     1      -5.486   3.765  25.534  0.00  0.00    +0.429 C 
ATOM     26  O   UNL     1      -4.766   3.601  25.168  0.00  0.00    -0.435 OA
ATOM     27  C   UNL     1      -5.434   1.618  25.477  0.00  0.00    +0.040 A 
ATOM     28  C   UNL     1      -4.837   1.140  25.169  0.00  0.00    +0.005 A 
ENDBRANCH  16  20
ENDBRANCH   9  13
BRANCH   5   4
ATOM      4  N   UNL     1       1.597  -0.300  23.024  0.00  0.00    -0.074 NA
BRANCH   4   2
ATOM      1  O   UNL     1       2.436   0.004  23.775  0.00  0.00    -0.152 OA
ATOM      2  S   UNL     1       2.366  -0.008  22.954  0.00  0.00    +0.078 S 
ATOM      3  O   UNL     1       2.295  -0.020  22.132  0.00  0.00    -0.152 OA
BRANCH   2  29
ATOM     29  C   UNL     1       3.134   0.284  22.883  0.00  0.00    +0.133 A 
ATOM     30  C   UNL     1       3.260   1.046  22.593  0.00  0.00    +0.021 A 
ATOM     31  C   UNL     1       4.029   1.338  22.522  0.00  0.00    +0.001 A 
ATOM     32  C   UNL     1       4.671   0.868  22.743  0.00  0.00    +0.001 A 
ATOM     33  C   UNL     1       4.543   0.106  23.033  0.00  0.00    +0.012 A 
ATOM     34  C   UNL     1       3.775  -0.186  23.103  0.00  0.00    +0.087 A 
BRANCH  34  35
ATOM     35  C   UNL     1       3.649  -0.947  23.394  0.00  0.00    +0.102 C 
ATOM     36  N   UNL     1       3.524  -1.709  23.684  0.00  0.00    -0.191 NA
ENDBRANCH  34  35
ENDBRANCH   2  29
ENDBRANCH   4   2
ENDBRANCH   5   4
TORSDOF 6
ENDMDL
MODEL 6
REMARK VINA RESULT:      -7.1     14.970     16.743
REMARK  Name = 
REMARK  6 active torsions:
REMARK  status: ('A' for Active; 'I' for Inactive)
REMARK    1  A    between atoms: S_2  and  N_4
REMARK    2  A    between atoms: S_2  and  C_29
REMARK    3  A    between atoms: N_4  and  C_5
REMARK    4  A    between atoms: C_9  and  N_13
REMARK    5  A    between atoms: C_16  and  C_20
REMARK    6  A    between atoms: C_34  and  C_35
REMARK                            x       y       z     vdW  Elec       q    Type
REMARK                         _______ _______ _______ _____ _____    ______ ____
ROOT
ATOM      5  C   UNL     1      -5.364  -9.697  12.112  0.00  0.00    +0.157 C 
ATOM      6  C   UNL     1      -6.102  -9.366  12.275  0.00  0.00    +0.164 C 
ATOM      7  O   UNL     1      -6.268  -9.493  13.073  0.00  0.00    -0.350 OA
ATOM      8  C   UNL     1      -5.633  -9.903  13.403  0.00  0.00    +0.166 C 
ATOM      9  C   UNL     1      -5.344 -10.235  14.102  0.00  0.00    +0.154 C 
ATOM     10  C   UNL     1      -4.606 -10.566  13.939  0.00  0.00    +0.166 C 
ATOM     11  O   UNL     1      -4.440 -10.439  13.141  0.00  0.00    -0.350 OA
ATOM     12  C   UNL     1      -5.074 -10.030  12.810  0.00  0.00    +0.164 C 
ENDROOT
BRANCH   9  13
ATOM     13  N   UNL     1      -5.725 -10.235  14.833  0.00  0.00    -0.200 NA
ATOM     14  C   UNL     1      -5.289 -10.338  15.525  0.00  0.00    +0.237 A 
ATOM     15  N   UNL     1      -5.670 -10.338  16.257  0.00  0.00    -0.212 NA
ATOM     16  C   UNL     1      -5.234 -10.442  16.950  0.00  0.00    +0.086 A 
ATOM     17  C   UNL     1      -4.416 -10.545  16.910  0.00  0.00    +0.040 A 
ATOM     18  C   UNL     1      -4.035 -10.545  16.179  0.00  0.00    +0.103 A 
ATOM     19  N   UNL     1      -4.471 -10.442  15.487  0.00  0.00    -0.211 NA
BRANCH  16  20
ATOM     20  C   UNL     1      -5.615 -10.442  17.681  0.00  0.00    +0.021 A 
ATOM     21  C   UNL     1      -5.194 -10.624  18.366  0.00  0.00    +0.042 A 
ATOM     22  C   UNL     1      -5.575 -10.625  19.097  0.00  0.00    +0.176 A 
ATOM     23  C   UNL     1      -6.378 -10.442  19.144  0.00  0.00    +0.176 A 
ATOM     24  O   UNL     1      -6.605 -10.486  19.935  0.00  0.00    -0.435 OA
ATOM     25  C   UNL     1      -5.942 -10.696  20.379  0.00  0.00    +0.429 C 
ATOM     26  O   UNL     1      -5.306 -10.781  19.861  0.00  0.00    -0.435 OA
ATOM     27  C   UNL     1      -6.800 -10.259  18.458  0.00  0.00    +0.040 A 
ATOM     28  C   UNL     1      -6.418 -10.259  17.727  0.00  0.00    +0.005 A 
ENDBRANCH  16  20
ENDBRANCH   9  13
BRANCH   5   4
ATOM      4  N   UNL     1      -4.983  -9.697  11.381  0.00  0.00    -0.074 NA
BRANCH   4   2
ATOM      1  O   UNL     1      -5.735 -10.154  10.615  0.00  0.00    -0.152 OA
ATOM      2  S   UNL     1      -5.375  -9.418  10.711  0.00  0.00    +0.078 S 
ATOM      3  O   UNL     1      -5.015  -8.682  10.808  0.00  0.00    -0.152 OA
BRANCH   2  29
ATOM     29  C   UNL     1      -5.768  -9.138  10.042  0.00  0.00    +0.133 A 
ATOM     30  C   UNL     1      -6.469  -8.710  10.124  0.00  0.00    +0.021 A 
ATOM     31  C   UNL     1      -6.861  -8.430   9.454  0.00  0.00    +0.001 A 
ATOM     32  C   UNL     1      -6.552  -8.578   8.703  0.00  0.00    +0.001 A 
ATOM     33  C   UNL     1      -5.852  -9.006   8.622  0.00  0.00    +0.012 A 
ATOM     34  C   UNL     1      -5.459  -9.286   9.292  0.00  0.00    +0.087 A 
BRANCH  34  35
ATOM     35  C   UNL     1      -4.759  -9.714   9.210  0.00  0.00    +0.102 C 
ATOM     36  N   UNL     1      -4.059 -10.142   9.129  0.00  0.00    -0.191 NA
ENDBRANCH  34  35
ENDBRANCH   2  29
ENDBRANCH   4   2
ENDBRANCH   5   4
TORSDOF 6
ENDMDL
MODEL 7
REMARK VINA RESULT:      -6.3     15.784     17.744
REMARK  Name = 
REMARK  6 active torsions:
REMARK  status: ('A' for Active; 'I' for Inactive)
REMARK    1  A    between atoms: S_2  and  N_4
REMARK    2  A    between atoms: S_2  and  C_29
REMARK    3  A    between atoms: N_4  and  C_5
REMARK    4  A    between atoms: C_9  and  N_13
REMARK    5  A    between atoms: C_16  and  C_20
REMARK    6  A    between atoms: C_34  and  C_35
REMARK                            x       y       z     vdW  Elec       q    Type
REMARK                         _______ _______ _______ _____ _____    ______ ____
ROOT
ATOM      5  C   UNL     1      -6.272  -9.733  12.187  0.00  0.00    +0.157 C 
ATOM      6  C   UNL     1      -5.743  -9.679  12.818  0.00  0.00    +0.164 C 
ATOM      7  O   UNL     1      -6.175  -9.739  13.519  0.00  0.00    -0.350 OA
ATOM      8  C   UNL     1      -6.970  -9.830  13.320  0.00  0.00    +0.166 C 
ATOM      9  C   UNL     1      -7.729  -9.924  13.631  0.00  0.00    +0.154 C 
ATOM     10  C   UNL     1      -8.258  -9.978  13.000  0.00  0.00    +0.166 C 
ATOM     11  O   UNL     1      -7.826  -9.917  12.300  0.00  0.00    -0.350 OA
ATOM     12  C   UNL     1      -7.031  -9.826  12.497  0.00  0.00    +0.164 C 
ENDROOT
BRANCH   9  13
ATOM     13  N   UNL     1      -7.924  -9.957  14.432  0.00  0.00    -0.200 NA
ATOM     14  C   UNL     1      -8.635  -9.633  14.697  0.00  0.00    +0.237 A 
ATOM     15  N   UNL     1      -8.831  -9.667  15.498  0.00  0.00    -0.212 NA
ATOM     16  C   UNL     1      -9.542  -9.343  15.763  0.00  0.00    +0.086 A 
ATOM     17  C   UNL     1     -10.057  -8.985  15.227  0.00  0.00    +0.040 A 
ATOM     18  C   UNL     1      -9.862  -8.951  14.427  0.00  0.00    +0.103 A 
ATOM     19  N   UNL     1      -9.151  -9.276  14.162  0.00  0.00    -0.211 NA
BRANCH  16  20
ATOM     20  C   UNL     1      -9.737  -9.376  16.563  0.00  0.00    +0.021 A 
ATOM     21  C   UNL     1      -9.714 -10.097  16.964  0.00  0.00    +0.042 A 
ATOM     22  C   UNL     1      -9.909 -10.131  17.765  0.00  0.00    +0.176 A 
ATOM     23  C   UNL     1     -10.128  -9.443  18.165  0.00  0.00    +0.176 A 
ATOM     24  O   UNL     1     -10.290  -9.645  18.948  0.00  0.00    -0.435 OA
ATOM     25  C   UNL     1     -10.172 -10.456  19.032  0.00  0.00    +0.429 C 
ATOM     26  O   UNL     1      -9.937 -10.756  18.301  0.00  0.00    -0.435 OA
ATOM     27  C   UNL     1     -10.151  -8.722  17.765  0.00  0.00    +0.040 A 
ATOM     28  C   UNL     1      -9.955  -8.689  16.964  0.00  0.00    +0.005 A 
ENDBRANCH  16  20
ENDBRANCH   9  13
BRANCH   5   4
ATOM      4  N   UNL     1      -6.077  -9.699  11.387  0.00  0.00    -0.074 NA
BRANCH   4   2
ATOM      1  O   UNL     1      -5.272 -10.476  11.056  0.00  0.00    -0.152 OA
ATOM      2  S   UNL     1      -5.285  -9.657  11.157  0.00  0.00    +0.078 S 
ATOM      3  O   UNL     1      -5.299  -8.839  11.258  0.00  0.00    -0.152 OA
BRANCH   2  29
ATOM     29  C   UNL     1      -4.494  -9.616  10.927  0.00  0.00    +0.133 A 
ATOM     30  C   UNL     1      -3.899  -9.836  11.454  0.00  0.00    +0.021 A 
ATOM     31  C   UNL     1      -3.108  -9.795  11.224  0.00  0.00    +0.001 A 
ATOM     32  C   UNL     1      -2.912  -9.532  10.466  0.00  0.00    +0.001 A 
ATOM     33  C   UNL     1      -3.507  -9.312   9.940  0.00  0.00    +0.012 A 
ATOM     34  C   UNL     1      -4.298  -9.354  10.170  0.00  0.00    +0.087 A 
BRANCH  34  35
ATOM     35  C   UNL     1      -4.893  -9.133   9.642  0.00  0.00    +0.102 C 
ATOM     36  N   UNL     1      -5.487  -8.912   9.114  0.00  0.00    -0.191 NA
ENDBRANCH  34  35
ENDBRANCH   2  29
ENDBRANCH   4   2
ENDBRANCH   5   4
TORSDOF 6
ENDMDL
MODEL 8
REMARK VINA RESULT:      -6.3     15.500     17.258
REMARK  Name = 
REMARK  6 active torsions:
REMARK  status: ('A' for Active; 'I' for Inactive)
REMARK    1  A    between atoms: S_2  and  N_4
REMARK    2  A    between atoms: S_2  and  C_29
REMARK    3  A    between atoms: N_4  and  C_5
REMARK    4  A    between atoms: C_9  and  N_13
REMARK    5  A    between atoms: C_16  and  C_20
REMARK    6  A    between atoms: C_34  and  C_35
REMARK                            x       y       z     vdW  Elec       q    Type
REMARK                         _______ _______ _______ _____ _____    ______ ____
ROOT
ATOM      5  C   UNL     1      -7.202  -9.850  12.082  0.00  0.00    +0.157 C 
ATOM      6  C   UNL     1      -6.461 -10.097  12.346  0.00  0.00    +0.164 C 
ATOM      7  O   UNL     1      -6.526 -10.291  13.146  0.00  0.00    -0.350 OA
ATOM      8  C   UNL     1      -7.308 -10.163  13.375  0.00  0.00    +0.166 C 
ATOM      9  C   UNL     1      -7.832 -10.204  14.012  0.00  0.00    +0.154 C 
ATOM     10  C   UNL     1      -8.573  -9.957  13.747  0.00  0.00    +0.166 C 
ATOM     11  O   UNL     1      -8.508  -9.763  12.948  0.00  0.00    -0.350 OA
ATOM     12  C   UNL     1      -7.726  -9.891  12.718  0.00  0.00    +0.164 C 
ENDROOT
BRANCH   9  13
ATOM     13  N   UNL     1      -7.647 -10.449  14.777  0.00  0.00    -0.200 NA
ATOM     14  C   UNL     1      -7.906 -10.009  15.425  0.00  0.00    +0.237 A 
ATOM     15  N   UNL     1      -7.721 -10.254  16.191  0.00  0.00    -0.212 NA
ATOM     16  C   UNL     1      -7.980  -9.814  16.839  0.00  0.00    +0.086 A 
ATOM     17  C   UNL     1      -8.424  -9.128  16.720  0.00  0.00    +0.040 A 
ATOM     18  C   UNL     1      -8.609  -8.884  15.955  0.00  0.00    +0.103 A 
ATOM     19  N   UNL     1      -8.350  -9.324  15.307  0.00  0.00    -0.211 NA
BRANCH  16  20
ATOM     20  C   UNL     1      -7.795 -10.059  17.604  0.00  0.00    +0.021 A 
ATOM     21  C   UNL     1      -7.007 -10.150  17.829  0.00  0.00    +0.042 A 
ATOM     22  C   UNL     1      -6.821 -10.395  18.594  0.00  0.00    +0.176 A 
ATOM     23  C   UNL     1      -7.425 -10.549  19.135  0.00  0.00    +0.176 A 
ATOM     24  O   UNL     1      -7.077 -10.781  19.846  0.00  0.00    -0.435 OA
ATOM     25  C   UNL     1      -6.259 -10.771  19.745  0.00  0.00    +0.429 C 
ATOM     26  O   UNL     1      -6.101 -10.532  18.971  0.00  0.00    -0.435 OA
ATOM     27  C   UNL     1      -8.214 -10.458  18.911  0.00  0.00    +0.040 A 
ATOM     28  C   UNL     1      -8.398 -10.213  18.145  0.00  0.00    +0.005 A 
ENDBRANCH  16  20
ENDBRANCH   9  13
BRANCH   5   4
ATOM      4  N   UNL     1      -7.387  -9.605  11.317  0.00  0.00    -0.074 NA
BRANCH   4   2
ATOM      1  O   UNL     1      -6.883 -10.148  10.415  0.00  0.00    -0.152 OA
ATOM      2  S   UNL     1      -6.783  -9.418  10.786  0.00  0.00    +0.078 S 
ATOM      3  O   UNL     1      -6.684  -8.688  11.157  0.00  0.00    -0.152 OA
BRANCH   2  29
ATOM     29  C   UNL     1      -6.180  -9.231  10.256  0.00  0.00    +0.133 A 
ATOM     30  C   UNL     1      -5.404  -9.462  10.416  0.00  0.00    +0.021 A 
ATOM     31  C   UNL     1      -4.800  -9.275   9.886  0.00  0.00    +0.001 A 
ATOM     32  C   UNL     1      -4.973  -8.857   9.195  0.00  0.00    +0.001 A 
ATOM     33  C   UNL     1      -5.749  -8.627   9.036  0.00  0.00    +0.012 A 
ATOM     34  C   UNL     1      -6.352  -8.814   9.566  0.00  0.00    +0.087 A 
BRANCH  34  35
ATOM     35  C   UNL     1      -7.128  -8.583   9.405  0.00  0.00    +0.102 C 
ATOM     36  N   UNL     1      -7.903  -8.353   9.244  0.00  0.00    -0.191 NA
ENDBRANCH  34  35
ENDBRANCH   2  29
ENDBRANCH   4   2
ENDBRANCH   5   4
TORSDOF 6
ENDMDL
