REMARK  Name = 
REMARK  4 active torsions:
REMARK  status: ('A' for Active; 'I' for Inactive)
REMARK    1  A    between atoms: C_5  and  C_6
REMARK    2  A    between atoms: C_10  and  C_12
REMARK    3  A    between atoms: N_19  and  C_20
REMARK    4  A    between atoms: C_20  and  C_21
REMARK                            x       y       z     vdW  Elec       q    Type
REMARK                         _______ _______ _______ _____ _____    ______ ____
ROOT
ATOM      1  O   UNL     1      -0.784  -2.484   0.000  0.00  0.00    -0.267 OA
ATOM      2  C   UNL     1      -0.655  -1.669   0.000  0.00  0.00    +0.261 A 
ATOM      3  C   UNL     1      -1.296  -1.150   0.000  0.00  0.00    +0.061 A 
ATOM      4  C   UNL     1      -1.167  -0.335   0.000  0.00  0.00    +0.006 A 
ATOM      5  C   UNL     1      -0.397  -0.039   0.000  0.00  0.00    +0.012 A 
ATOM     14  C   UNL     1       0.244  -0.558   0.000  0.00  0.00    +0.041 A 
ATOM     15  C   UNL     1       1.163  -0.557   0.000  0.00  0.00    +0.054 C 
ATOM     16  C   UNL     1       1.713  -0.121   0.000  0.00  0.00    +0.011 C 
ATOM     17  C   UNL     1       1.582  -0.925   0.000  0.00  0.00    +0.039 C 
ATOM     18  C   UNL     1       1.629  -1.912   0.000  0.00  0.00    +0.074 C 
ATOM     19  N   UNL     1       0.813  -2.091   0.000  0.00  0.00    -0.268 NA
ATOM     26  C   UNL     1       1.225  -1.510   0.000  0.00  0.00    +0.078 C 
ATOM     27  C   UNL     1       0.622  -0.936   0.000  0.00  0.00    +0.110 C 
ATOM     28  N   UNL     1       0.115  -1.373   0.000  0.00  0.00    -0.299 N 
ENDROOT
BRANCH   5   6
ATOM      6  C   UNL     1      -0.268   0.776   0.000  0.00  0.00    +0.002 A 
ATOM      7  C   UNL     1       0.502   1.072   0.000  0.00  0.00    +0.000 A 
ATOM      8  C   UNL     1       0.631   1.887   0.000  0.00  0.00    +0.001 A 
ATOM      9  C   UNL     1      -0.010   2.406   0.000  0.00  0.00    +0.010 A 
ATOM     10  C   UNL     1      -0.780   2.110   0.000  0.00  0.00    +0.068 A 
ATOM     11  C   UNL     1      -0.909   1.295   0.000  0.00  0.00    +0.010 A 
BRANCH  10  12
ATOM     12  C   UNL     1      -1.421   2.629   0.000  0.00  0.00    +0.100 C 
ATOM     13  N   UNL     1      -2.063   3.148   0.000  0.00  0.00    -0.191 NA
ENDBRANCH  10  12
ENDBRANCH   5   6
BRANCH  19  20
ATOM     20  C   UNL     1       0.125  -2.547   0.000  0.00  0.00    +0.106 C 
BRANCH  20  21
ATOM     21  C   UNL     1       0.176  -3.370   0.000  0.00  0.00    +0.023 A 
ATOM     22  C   UNL     1       0.872  -3.813   0.000  0.00  0.00    +0.004 A 
ATOM     23  C   UNL     1       0.665  -4.612   0.000  0.00  0.00    +0.007 A 
ATOM     24  C   UNL     1      -0.158  -4.663   0.000  0.00  0.00    +0.035 A 
ATOM     25  S   UNL     1      -0.461  -3.896   0.000  0.00  0.00    -0.089 S 
ENDBRANCH  20  21
ENDBRANCH  19  20
TORSDOF 4
