MODEL 1
REMARK VINA RESULT:     -10.2      0.000      0.000
REMARK  Name = 
REMARK  7 active torsions:
REMARK  status: ('A' for Active; 'I' for Inactive)
REMARK    1  A    between atoms: C_2  and  C_4
REMARK    2  A    between atoms: C_7  and  N_8
REMARK    3  A    between atoms: N_11  and  C_12
REMARK    4  A    between atoms: C_16  and  O_20
REMARK    5  A    between atoms: O_20  and  C_21
REMARK    6  A    between atoms: N_23  and  C_24
REMARK    7  A    between atoms: C_26  and  C_30
REMARK                            x       y       z     vdW  Elec       q    Type
REMARK                         _______ _______ _______ _____ _____    ______ ____
ROOT
ATOM     12  C   UNL     1       0.184   0.035  23.329  0.00  0.00    +0.156 C 
ATOM     13  C   UNL     1       0.081  -0.554  23.897  0.00  0.00    +0.166 C 
ATOM     14  O   UNL     1      -0.597  -0.373  24.331  0.00  0.00    -0.348 OA
ATOM     15  C   UNL     1      -0.913   0.327  24.032  0.00  0.00    +0.186 C 
ATOM     16  C   UNL     1      -1.526   0.872  24.114  0.00  0.00    +0.229 C 
ATOM     17  C   UNL     1      -1.424   1.461  23.546  0.00  0.00    +0.188 C 
ATOM     18  O   UNL     1      -0.746   1.280  23.112  0.00  0.00    -0.348 OA
ATOM     19  C   UNL     1      -0.430   0.579  23.412  0.00  0.00    +0.168 C 
ENDROOT
BRANCH  12  11
ATOM      8  N   UNL     1       2.189   0.124  22.472  0.00  0.00    -0.161 NA
ATOM      9  C   UNL     1       1.580   0.086  23.026  0.00  0.00    +0.344 C 
ATOM     10  O   UNL     1       1.755   0.063  23.832  0.00  0.00    -0.249 OA
ATOM     11  N   UNL     1       0.794   0.072  22.775  0.00  0.00    -0.184 NA
BRANCH   8   7
ATOM      4  C   UNL     1       4.547   0.165  23.226  0.00  0.00    -0.022 A 
ATOM      5  C   UNL     1       4.118  -0.541  23.248  0.00  0.00    -0.003 A 
ATOM      6  C   UNL     1       3.333  -0.554  22.997  0.00  0.00    +0.016 A 
ATOM      7  C   UNL     1       2.975   0.138  22.723  0.00  0.00    +0.075 A 
ATOM     34  C   UNL     1       3.403   0.842  22.701  0.00  0.00    +0.016 A 
ATOM     35  C   UNL     1       4.189   0.856  22.952  0.00  0.00    -0.003 A 
BRANCH   4   2
ATOM      1  C   UNL     1       5.531   0.545  24.189  0.00  0.00    +0.005 C 
ATOM      2  C   UNL     1       5.332   0.177  23.477  0.00  0.00    +0.022 C 
ATOM      3  C   UNL     1       5.919  -0.177  23.017  0.00  0.00    +0.005 C 
ENDBRANCH   4   2
ENDBRANCH   8   7
ENDBRANCH  12  11
BRANCH  16  20
ATOM     20  O   UNL     1      -2.136   0.835  24.669  0.00  0.00    -0.432 OA
BRANCH  20  21
ATOM     21  C   UNL     1      -2.799   1.319  24.587  0.00  0.00    +0.425 C 
ATOM     22  O   UNL     1      -3.124   1.450  23.840  0.00  0.00    -0.224 OA
ATOM     23  N   UNL     1      -3.137   1.673  25.251  0.00  0.00    -0.142 NA
BRANCH  23  24
ATOM     24  C   UNL     1      -3.799   2.158  25.169  0.00  0.00    +0.077 A 
ATOM     25  C   UNL     1      -4.556   1.837  25.234  0.00  0.00    +0.021 A 
ATOM     26  C   UNL     1      -5.218   2.321  25.152  0.00  0.00    +0.073 A 
ATOM     27  C   UNL     1      -5.124   3.128  25.005  0.00  0.00    +0.004 A 
ATOM     28  C   UNL     1      -4.367   3.449  24.941  0.00  0.00    +0.001 A 
ATOM     29  C   UNL     1      -3.705   2.964  25.023  0.00  0.00    +0.017 A 
BRANCH  26  30
ATOM     30  C   UNL     1      -5.976   1.999  25.216  0.00  0.00    +0.419 C 
ATOM     31  F   UNL     1      -6.732   1.678  25.281  0.00  0.00    -0.166 F 
ATOM     32  F   UNL     1      -6.040   1.987  24.394  0.00  0.00    -0.166 F 
ATOM     33  F   UNL     1      -5.911   2.011  26.038  0.00  0.00    -0.166 F 
ENDBRANCH  26  30
ENDBRANCH  23  24
ENDBRANCH  20  21
ENDBRANCH  16  20
TORSDOF 7
ENDMDL
MODEL 2
REMARK VINA RESULT:      -9.8      3.626      7.948
REMARK  Name = 
REMARK  7 active torsions:
REMARK  status: ('A' for Active; 'I' for Inactive)
REMARK    1  A    between atoms: C_2  and  C_4
REMARK    2  A    between atoms: C_7  and  N_8
REMARK    3  A    between atoms: N_11  and  C_12
REMARK    4  A    between atoms: C_16  and  O_20
REMARK    5  A    between atoms: O_20  and  C_21
REMARK    6  A    between atoms: N_23  and  C_24
REMARK    7  A    between atoms: C_26  and  C_30
REMARK                            x       y       z     vdW  Elec       q    Type
REMARK                         _______ _______ _______ _____ _____    ______ ____
ROOT
ATOM     12  C   UNL     1      -0.677   0.632  24.129  0.00  0.00    +0.156 C 
ATOM     13  C   UNL     1      -0.471   1.336  24.506  0.00  0.00    +0.166 C 
ATOM     14  O   UNL     1       0.288   1.544  24.258  0.00  0.00    -0.348 OA
ATOM     15  C   UNL     1       0.550   0.970  23.729  0.00  0.00    +0.186 C 
ATOM     16  C   UNL     1       1.181   0.742  23.248  0.00  0.00    +0.229 C 
ATOM     17  C   UNL     1       0.975   0.038  22.871  0.00  0.00    +0.188 C 
ATOM     18  O   UNL     1       0.216  -0.170  23.119  0.00  0.00    -0.348 OA
ATOM     19  C   UNL     1      -0.046   0.406  23.649  0.00  0.00    +0.168 C 
ENDROOT
BRANCH  12  11
ATOM      8  N   UNL     1      -2.799   0.236  24.454  0.00  0.00    -0.161 NA
ATOM      9  C   UNL     1      -2.087   0.642  24.366  0.00  0.00    +0.344 C 
ATOM     10  O   UNL     1      -2.070   1.465  24.427  0.00  0.00    -0.249 OA
ATOM     11  N   UNL     1      -1.390   0.226  24.217  0.00  0.00    -0.184 NA
BRANCH   8   7
ATOM      4  C   UNL     1      -4.890   1.484  24.901  0.00  0.00    -0.022 A 
ATOM      5  C   UNL     1      -4.636   0.902  25.429  0.00  0.00    -0.003 A 
ATOM      6  C   UNL     1      -3.939   0.486  25.279  0.00  0.00    +0.016 A 
ATOM      7  C   UNL     1      -3.496   0.652  24.603  0.00  0.00    +0.075 A 
ATOM     34  C   UNL     1      -3.750   1.233  24.076  0.00  0.00    +0.016 A 
ATOM     35  C   UNL     1      -4.447   1.650  24.225  0.00  0.00    -0.003 A 
BRANCH   4   2
ATOM      1  C   UNL     1      -5.552   2.672  25.339  0.00  0.00    +0.005 C 
ATOM      2  C   UNL     1      -5.587   1.899  25.051  0.00  0.00    +0.022 C 
ATOM      3  C   UNL     1      -6.318   1.543  24.912  0.00  0.00    +0.005 C 
ENDBRANCH   4   2
ENDBRANCH   8   7
ENDBRANCH  12  11
BRANCH  16  20
ATOM     20  O   UNL     1       1.894   1.149  23.160  0.00  0.00    -0.432 OA
BRANCH  20  21
ATOM     21  C   UNL     1       2.597   0.730  23.051  0.00  0.00    +0.425 C 
ATOM     22  O   UNL     1       2.579  -0.029  22.731  0.00  0.00    -0.224 OA
ATOM     23  N   UNL     1       3.317   1.071  23.263  0.00  0.00    -0.142 NA
BRANCH  23  24
ATOM     24  C   UNL     1       4.020   0.653  23.154  0.00  0.00    +0.077 A 
ATOM     25  C   UNL     1       4.378   0.275  23.793  0.00  0.00    +0.021 A 
ATOM     26  C   UNL     1       5.080  -0.143  23.684  0.00  0.00    +0.073 A 
ATOM     27  C   UNL     1       5.426  -0.183  22.936  0.00  0.00    +0.004 A 
ATOM     28  C   UNL     1       5.067   0.196  22.296  0.00  0.00    +0.001 A 
ATOM     29  C   UNL     1       4.365   0.614  22.406  0.00  0.00    +0.017 A 
BRANCH  26  30
ATOM     30  C   UNL     1       5.438  -0.522  24.324  0.00  0.00    +0.419 C 
ATOM     31  F   UNL     1       5.796  -0.900  24.963  0.00  0.00    -0.166 F 
ATOM     32  F   UNL     1       5.792   0.189  24.548  0.00  0.00    -0.166 F 
ATOM     33  F   UNL     1       5.086  -1.233  24.101  0.00  0.00    -0.166 F 
ENDBRANCH  26  30
ENDBRANCH  23  24
ENDBRANCH  20  21
ENDBRANCH  16  20
TORSDOF 7
ENDMDL
MODEL 3
REMARK VINA RESULT:      -9.7      2.002      2.357
REMARK  Name = 
REMARK  7 active torsions:
REMARK  status: ('A' for Active; 'I' for Inactive)
REMARK    1  A    between atoms: C_2  and  C_4
REMARK    2  A    between atoms: C_7  and  N_8
REMARK    3  A    between atoms: N_11  and  C_12
REMARK    4  A    between atoms: C_16  and  O_20
REMARK    5  A    between atoms: O_20  and  C_21
REMARK    6  A    between atoms: N_23  and  C_24
REMARK    7  A    between atoms: C_26  and  C_30
REMARK                            x       y       z     vdW  Elec       q    Type
REMARK                         _______ _______ _______ _____ _____    ______ ____
ROOT
ATOM     12  C   UNL     1       0.104   0.101  23.428  0.00  0.00    +0.156 C 
ATOM     13  C   UNL     1       0.037  -0.234  24.179  0.00  0.00    +0.166 C 
ATOM     14  O   UNL     1      -0.635   0.081  24.538  0.00  0.00    -0.348 OA
ATOM     15  C   UNL     1      -0.983   0.610  24.011  0.00  0.00    +0.186 C 
ATOM     16  C   UNL     1      -1.613   1.132  23.905  0.00  0.00    +0.229 C 
ATOM     17  C   UNL     1      -1.546   1.467  23.155  0.00  0.00    +0.188 C 
ATOM     18  O   UNL     1      -0.874   1.152  22.795  0.00  0.00    -0.348 OA
ATOM     19  C   UNL     1      -0.526   0.622  23.324  0.00  0.00    +0.168 C 
ENDROOT
BRANCH  12  11
ATOM      8  N   UNL     1       2.085  -0.127  22.539  0.00  0.00    -0.161 NA
ATOM      9  C   UNL     1       1.491   0.032  23.088  0.00  0.00    +0.344 C 
ATOM     10  O   UNL     1       1.689   0.282  23.850  0.00  0.00    -0.249 OA
ATOM     11  N   UNL     1       0.698  -0.059  22.878  0.00  0.00    -0.184 NA
BRANCH   8   7
ATOM      4  C   UNL     1       4.463   0.144  23.170  0.00  0.00    -0.022 A 
ATOM      5  C   UNL     1       4.078  -0.574  23.308  0.00  0.00    -0.003 A 
ATOM      6  C   UNL     1       3.286  -0.663  23.097  0.00  0.00    +0.016 A 
ATOM      7  C   UNL     1       2.878  -0.037  22.749  0.00  0.00    +0.075 A 
ATOM     34  C   UNL     1       3.262   0.680  22.612  0.00  0.00    +0.016 A 
ATOM     35  C   UNL     1       4.055   0.770  22.822  0.00  0.00    -0.003 A 
BRANCH   4   2
ATOM      1  C   UNL     1       5.472   0.805  23.935  0.00  0.00    +0.005 C 
ATOM      2  C   UNL     1       5.255   0.233  23.381  0.00  0.00    +0.022 C 
ATOM      3  C   UNL     1       5.831  -0.248  23.038  0.00  0.00    +0.005 C 
ENDBRANCH   4   2
ENDBRANCH   8   7
ENDBRANCH  12  11
BRANCH  16  20
ATOM     20  O   UNL     1      -2.207   1.291  24.456  0.00  0.00    -0.432 OA
BRANCH  20  21
ATOM     21  C   UNL     1      -2.401   2.072  24.639  0.00  0.00    +0.425 C 
ATOM     22  O   UNL     1      -2.920   2.493  24.155  0.00  0.00    -0.224 OA
ATOM     23  N   UNL     1      -2.077   2.432  25.307  0.00  0.00    -0.142 NA
BRANCH  23  24
ATOM     24  C   UNL     1      -2.271   3.212  25.491  0.00  0.00    +0.077 A 
ATOM     25  C   UNL     1      -1.780   3.828  25.247  0.00  0.00    +0.021 A 
ATOM     26  C   UNL     1      -1.974   4.608  25.431  0.00  0.00    +0.073 A 
ATOM     27  C   UNL     1      -2.660   4.773  25.859  0.00  0.00    +0.004 A 
ATOM     28  C   UNL     1      -3.152   4.157  26.103  0.00  0.00    +0.001 A 
ATOM     29  C   UNL     1      -2.957   3.377  25.918  0.00  0.00    +0.017 A 
BRANCH  26  30
ATOM     30  C   UNL     1      -1.482   5.224  25.187  0.00  0.00    +0.419 C 
ATOM     31  F   UNL     1      -0.991   5.840  24.943  0.00  0.00    -0.166 F 
ATOM     32  F   UNL     1      -2.123   5.588  24.815  0.00  0.00    -0.166 F 
ATOM     33  F   UNL     1      -0.842   4.861  25.559  0.00  0.00    -0.166 F 
ENDBRANCH  26  30
ENDBRANCH  23  24
ENDBRANCH  20  21
ENDBRANCH  16  20
TORSDOF 7
ENDMDL
MODEL 4
REMARK VINA RESULT:      -8.9      4.462      6.141
REMARK  Name = 
REMARK  7 active torsions:
REMARK  status: ('A' for Active; 'I' for Inactive)
REMARK    1  A    between atoms: C_2  and  C_4
REMARK    2  A    between atoms: C_7  and  N_8
REMARK    3  A    between atoms: N_11  and  C_12
REMARK    4  A    between atoms: C_16  and  O_20
REMARK    5  A    between atoms: O_20  and  C_21
REMARK    6  A    between atoms: N_23  and  C_24
REMARK    7  A    between atoms: C_26  and  C_30
REMARK                            x       y       z     vdW  Elec       q    Type
REMARK                         _______ _______ _______ _____ _____    ______ ____
ROOT
ATOM     12  C   UNL     1      -4.871   1.756  24.621  0.00  0.00    +0.156 C 
ATOM     13  C   UNL     1      -4.622   2.096  23.912  0.00  0.00    +0.166 C 
ATOM     14  O   UNL     1      -4.383   2.869  24.071  0.00  0.00    -0.348 OA
ATOM     15  C   UNL     1      -4.485   3.008  24.877  0.00  0.00    +0.186 C 
ATOM     16  C   UNL     1      -4.401   3.570  25.474  0.00  0.00    +0.229 C 
ATOM     17  C   UNL     1      -4.651   3.231  26.183  0.00  0.00    +0.188 C 
ATOM     18  O   UNL     1      -4.889   2.457  26.024  0.00  0.00    -0.348 OA
ATOM     19  C   UNL     1      -4.787   2.319  25.217  0.00  0.00    +0.168 C 
ENDROOT
BRANCH  12  11
ATOM      8  N   UNL     1      -4.928  -0.423  24.734  0.00  0.00    -0.161 NA
ATOM      9  C   UNL     1      -4.644   0.345  24.638  0.00  0.00    +0.344 C 
ATOM     10  O   UNL     1      -3.847   0.472  24.465  0.00  0.00    -0.249 OA
ATOM     11  N   UNL     1      -5.156   0.987  24.716  0.00  0.00    -0.184 NA
BRANCH   8   7
ATOM      4  C   UNL     1      -3.391  -2.350  24.501  0.00  0.00    -0.022 A 
ATOM      5  C   UNL     1      -3.404  -1.914  25.202  0.00  0.00    -0.003 A 
ATOM      6  C   UNL     1      -3.916  -1.272  25.279  0.00  0.00    +0.016 A 
ATOM      7  C   UNL     1      -4.415  -1.065  24.656  0.00  0.00    +0.075 A 
ATOM     34  C   UNL     1      -4.402  -1.500  23.955  0.00  0.00    +0.016 A 
ATOM     35  C   UNL     1      -3.890  -2.143  23.878  0.00  0.00    -0.003 A 
BRANCH   4   2
ATOM      1  C   UNL     1      -2.063  -2.869  24.412  0.00  0.00    +0.005 C 
ATOM      2  C   UNL     1      -2.879  -2.992  24.424  0.00  0.00    +0.022 C 
ATOM      3  C   UNL     1      -3.182  -3.756  24.358  0.00  0.00    +0.005 C 
ENDBRANCH   4   2
ENDBRANCH   8   7
ENDBRANCH  12  11
BRANCH  16  20
ATOM     20  O   UNL     1      -4.117   4.339  25.379  0.00  0.00    -0.432 OA
BRANCH  20  21
ATOM     21  C   UNL     1      -3.310   4.494  25.459  0.00  0.00    +0.425 C 
ATOM     22  O   UNL     1      -2.985   4.610  26.208  0.00  0.00    -0.224 OA
ATOM     23  N   UNL     1      -2.829   4.533  24.791  0.00  0.00    -0.142 NA
BRANCH  23  24
ATOM     24  C   UNL     1      -2.022   4.688  24.870  0.00  0.00    +0.077 A 
ATOM     25  C   UNL     1      -1.481   4.066  24.871  0.00  0.00    +0.021 A 
ATOM     26  C   UNL     1      -0.675   4.221  24.951  0.00  0.00    +0.073 A 
ATOM     27  C   UNL     1      -0.410   4.998  25.030  0.00  0.00    +0.004 A 
ATOM     28  C   UNL     1      -0.952   5.621  25.030  0.00  0.00    +0.001 A 
ATOM     29  C   UNL     1      -1.758   5.465  24.950  0.00  0.00    +0.017 A 
BRANCH  26  30
ATOM     30  C   UNL     1      -0.133   3.598  24.951  0.00  0.00    +0.419 C 
ATOM     31  F   UNL     1       0.408   2.977  24.951  0.00  0.00    -0.166 F 
ATOM     32  F   UNL     1      -0.115   3.613  24.126  0.00  0.00    -0.166 F 
ATOM     33  F   UNL     1      -0.151   3.583  25.775  0.00  0.00    -0.166 F 
ENDBRANCH  26  30
ENDBRANCH  23  24
ENDBRANCH  20  21
ENDBRANCH  16  20
TORSDOF 7
ENDMDL
