MODEL 1
REMARK VINA RESULT:     -10.9      0.000      0.000
REMARK  Name = 
REMARK  8 active torsions:
REMARK  status: ('A' for Active; 'I' for Inactive)
REMARK    1  A    between atoms: O_2  and  C_3
REMARK    2  A    between atoms: C_3  and  C_4
REMARK    3  A    between atoms: N_6  and  C_7
REMARK    4  A    between atoms: C_14  and  C_15
REMARK    5  A    between atoms: C_15  and  C_17
REMARK    6  A    between atoms: N_19  and  C_20
REMARK    7  A    between atoms: C_20  and  C_21
REMARK    8  A    between atoms: C_24  and  O_25
REMARK                            x       y       z     vdW  Elec       q    Type
REMARK                         _______ _______ _______ _____ _____    ______ ____
ROOT
ATOM      7  C   UNL     1      -0.843  -0.783  24.693  0.00  0.00    +0.095 C 
ATOM      8  C   UNL     1      -0.430  -0.747  23.980  0.00  0.00    +0.022 C 
ATOM      9  C   UNL     1      -0.070  -0.041  23.748  0.00  0.00    +0.002 C 
ATOM     10  C   UNL     1      -0.124   0.627  24.227  0.00  0.00    +0.002 C 
ATOM     11  C   UNL     1       0.289   0.663  23.514  0.00  0.00    +0.000 C 
ATOM     12  C   UNL     1       0.235   1.333  23.995  0.00  0.00    +0.000 C 
ATOM     13  C   UNL     1       0.181   2.001  24.475  0.00  0.00    +0.003 C 
ATOM     14  C   UNL     1      -0.233   1.964  25.188  0.00  0.00    +0.039 C 
ATOM     29  C   UNL     1      -0.592   1.259  25.421  0.00  0.00    +0.152 C 
ATOM     30  O   UNL     1      -1.005   1.223  26.133  0.00  0.00    -0.223 OA
ATOM     31  C   UNL     1      -0.538   0.590  24.940  0.00  0.00    +0.032 C 
ATOM     32  C   UNL     1      -0.898  -0.114  25.173  0.00  0.00    +0.022 C 
ATOM     33  C   UNL     1      -1.311  -0.151  25.885  0.00  0.00    +0.002 C 
ENDROOT
BRANCH   7   6
ATOM      4  C   UNL     1      -1.789  -1.827  24.454  0.00  0.00    +0.272 C 
ATOM      5  O   UNL     1      -2.015  -1.462  23.750  0.00  0.00    -0.271 OA
ATOM      6  N   UNL     1      -1.203  -1.488  24.926  0.00  0.00    -0.205 NA
BRANCH   4   3
ATOM      3  C   UNL     1      -2.149  -2.532  24.687  0.00  0.00    +0.229 C 
BRANCH   3   2
ATOM      1  C   UNL     1      -3.409  -3.196  24.804  0.00  0.00    +0.175 C 
ATOM      2  O   UNL     1      -2.874  -2.753  24.360  0.00  0.00    -0.342 OA
ENDBRANCH   3   2
ENDBRANCH   4   3
ENDBRANCH   7   6
BRANCH  14  15
ATOM     15  C   UNL     1      -0.287   2.632  25.668  0.00  0.00    +0.081 C 
ATOM     16  C   UNL     1       0.115   2.658  26.387  0.00  0.00    +0.010 C 
BRANCH  15  17
ATOM     17  C   UNL     1      -0.745   3.276  25.429  0.00  0.00    +0.241 C 
ATOM     18  O   UNL     1      -0.398   3.897  25.012  0.00  0.00    -0.273 OA
ATOM     19  N   UNL     1      -1.551   3.298  25.607  0.00  0.00    -0.201 NA
BRANCH  19  20
ATOM     20  C   UNL     1      -2.008   3.941  25.367  0.00  0.00    +0.141 C 
BRANCH  20  21
ATOM     21  C   UNL     1      -2.831   3.884  25.369  0.00  0.00    -0.000 A 
ATOM     22  C   UNL     1      -3.248   3.959  26.078  0.00  0.00    +0.001 A 
ATOM     23  C   UNL     1      -4.071   3.902  26.080  0.00  0.00    +0.037 A 
ATOM     24  C   UNL     1      -4.477   3.771  25.375  0.00  0.00    +0.139 A 
ATOM     27  C   UNL     1      -4.061   3.696  24.667  0.00  0.00    +0.037 A 
ATOM     28  C   UNL     1      -3.237   3.753  24.664  0.00  0.00    +0.001 A 
BRANCH  24  25
ATOM     25  O   UNL     1      -5.301   3.714  25.377  0.00  0.00    -0.471 OA
ATOM     26  C   UNL     1      -5.666   3.044  25.690  0.00  0.00    +0.252 C 
ENDBRANCH  24  25
ENDBRANCH  20  21
ENDBRANCH  19  20
ENDBRANCH  15  17
ENDBRANCH  14  15
TORSDOF 8
ENDMDL
MODEL 2
REMARK VINA RESULT:     -10.3      1.885      4.693
REMARK  Name = 
REMARK  8 active torsions:
REMARK  status: ('A' for Active; 'I' for Inactive)
REMARK    1  A    between atoms: O_2  and  C_3
REMARK    2  A    between atoms: C_3  and  C_4
REMARK    3  A    between atoms: N_6  and  C_7
REMARK    4  A    between atoms: C_14  and  C_15
REMARK    5  A    between atoms: C_15  and  C_17
REMARK    6  A    between atoms: N_19  and  C_20
REMARK    7  A    between atoms: C_20  and  C_21
REMARK    8  A    between atoms: C_24  and  O_25
REMARK                            x       y       z     vdW  Elec       q    Type
REMARK                         _______ _______ _______ _____ _____    ______ ____
ROOT
ATOM      7  C   UNL     1      -0.700   2.877  24.370  0.00  0.00    +0.095 C 
ATOM      8  C   UNL     1      -0.622   3.333  25.054  0.00  0.00    +0.022 C 
ATOM      9  C   UNL     1      -1.290   3.519  25.502  0.00  0.00    +0.002 C 
ATOM     10  C   UNL     1      -2.033   3.250  25.268  0.00  0.00    +0.002 C 
ATOM     11  C   UNL     1      -1.956   3.705  25.952  0.00  0.00    +0.000 C 
ATOM     12  C   UNL     1      -2.700   3.436  25.717  0.00  0.00    +0.000 C 
ATOM     13  C   UNL     1      -3.443   3.168  25.482  0.00  0.00    +0.003 C 
ATOM     14  C   UNL     1      -3.521   2.712  24.799  0.00  0.00    +0.039 C 
ATOM     29  C   UNL     1      -2.854   2.526  24.349  0.00  0.00    +0.152 C 
ATOM     30  O   UNL     1      -2.932   2.071  23.666  0.00  0.00    -0.223 OA
ATOM     31  C   UNL     1      -2.110   2.795  24.584  0.00  0.00    +0.032 C 
ATOM     32  C   UNL     1      -1.444   2.608  24.135  0.00  0.00    +0.022 C 
ATOM     33  C   UNL     1      -1.521   2.154  23.452  0.00  0.00    +0.002 C 
ENDROOT
BRANCH   7   6
ATOM      4  C   UNL     1       0.571   2.234  24.250  0.00  0.00    +0.272 C 
ATOM      5  O   UNL     1       0.508   1.965  25.027  0.00  0.00    -0.271 OA
ATOM      6  N   UNL     1      -0.034   2.691  23.921  0.00  0.00    -0.205 NA
BRANCH   4   3
ATOM      3  C   UNL     1       1.237   2.047  23.800  0.00  0.00    +0.229 C 
BRANCH   3   2
ATOM      1  C   UNL     1       2.113   1.039  23.293  0.00  0.00    +0.175 C 
ATOM      2  O   UNL     1       1.585   1.302  23.869  0.00  0.00    -0.342 OA
ENDBRANCH   3   2
ENDBRANCH   4   3
ENDBRANCH   7   6
BRANCH  14  15
ATOM     15  C   UNL     1      -4.264   2.443  24.563  0.00  0.00    +0.081 C 
ATOM     16  C   UNL     1      -4.674   2.834  23.965  0.00  0.00    +0.010 C 
BRANCH  15  17
ATOM     17  C   UNL     1      -4.597   1.782  24.928  0.00  0.00    +0.241 C 
ATOM     18  O   UNL     1      -5.173   1.878  25.511  0.00  0.00    -0.273 OA
ATOM     19  N   UNL     1      -4.354   1.024  24.709  0.00  0.00    -0.201 NA
BRANCH  19  20
ATOM     20  C   UNL     1      -4.687   0.363  25.074  0.00  0.00    +0.141 C 
BRANCH  20  21
ATOM     21  C   UNL     1      -4.339  -0.379  24.980  0.00  0.00    -0.000 A 
ATOM     22  C   UNL     1      -4.457  -0.804  24.282  0.00  0.00    +0.001 A 
ATOM     23  C   UNL     1      -4.109  -1.545  24.187  0.00  0.00    +0.037 A 
ATOM     24  C   UNL     1      -3.643  -1.862  24.788  0.00  0.00    +0.139 A 
ATOM     27  C   UNL     1      -3.524  -1.437  25.486  0.00  0.00    +0.037 A 
ATOM     28  C   UNL     1      -3.873  -0.695  25.581  0.00  0.00    +0.001 A 
BRANCH  24  25
ATOM     25  O   UNL     1      -3.294  -2.604  24.693  0.00  0.00    -0.471 OA
ATOM     26  C   UNL     1      -2.516  -2.662  24.426  0.00  0.00    +0.252 C 
ENDBRANCH  24  25
ENDBRANCH  20  21
ENDBRANCH  19  20
ENDBRANCH  15  17
ENDBRANCH  14  15
TORSDOF 8
ENDMDL
MODEL 3
REMARK VINA RESULT:     -10.2      1.959      3.836
REMARK  Name = 
REMARK  8 active torsions:
REMARK  status: ('A' for Active; 'I' for Inactive)
REMARK    1  A    between atoms: O_2  and  C_3
REMARK    2  A    between atoms: C_3  and  C_4
REMARK    3  A    between atoms: N_6  and  C_7
REMARK    4  A    between atoms: C_14  and  C_15
REMARK    5  A    between atoms: C_15  and  C_17
REMARK    6  A    between atoms: N_19  and  C_20
REMARK    7  A    between atoms: C_20  and  C_21
REMARK    8  A    between atoms: C_24  and  O_25
REMARK                            x       y       z     vdW  Elec       q    Type
REMARK                         _______ _______ _______ _____ _____    ______ ____
ROOT
ATOM      7  C   UNL     1      -4.203  -0.317  24.380  0.00  0.00    +0.095 C 
ATOM      8  C   UNL     1      -4.798  -0.291  24.951  0.00  0.00    +0.022 C 
ATOM      9  C   UNL     1      -5.095   0.437  25.204  0.00  0.00    +0.002 C 
ATOM     10  C   UNL     1      -4.798   1.137  24.886  0.00  0.00    +0.002 C 
ATOM     11  C   UNL     1      -5.393   1.163  25.457  0.00  0.00    +0.000 C 
ATOM     12  C   UNL     1      -5.095   1.864  25.139  0.00  0.00    +0.000 C 
ATOM     13  C   UNL     1      -4.798   2.564  24.821  0.00  0.00    +0.003 C 
ATOM     14  C   UNL     1      -4.203   2.538  24.250  0.00  0.00    +0.039 C 
ATOM     29  C   UNL     1      -3.905   1.812  23.997  0.00  0.00    +0.152 C 
ATOM     30  O   UNL     1      -3.311   1.786  23.426  0.00  0.00    -0.223 OA
ATOM     31  C   UNL     1      -4.203   1.111  24.315  0.00  0.00    +0.032 C 
ATOM     32  C   UNL     1      -3.905   0.385  24.062  0.00  0.00    +0.022 C 
ATOM     33  C   UNL     1      -3.311   0.359  23.491  0.00  0.00    +0.002 C 
ENDROOT
BRANCH   7   6
ATOM      4  C   UNL     1      -3.676  -1.610  24.681  0.00  0.00    +0.272 C 
ATOM      5  O   UNL     1      -3.746  -1.451  25.488  0.00  0.00    -0.271 OA
ATOM      6  N   UNL     1      -3.905  -1.043  24.127  0.00  0.00    -0.205 NA
BRANCH   4   3
ATOM      3  C   UNL     1      -3.378  -2.337  24.428  0.00  0.00    +0.229 C 
BRANCH   3   2
ATOM      1  C   UNL     1      -2.172  -3.092  24.300  0.00  0.00    +0.175 C 
ATOM      2  O   UNL     1      -2.683  -2.635  24.759  0.00  0.00    -0.342 OA
ENDBRANCH   3   2
ENDBRANCH   4   3
ENDBRANCH   7   6
BRANCH  14  15
ATOM     15  C   UNL     1      -3.906   3.239  23.931  0.00  0.00    +0.081 C 
ATOM     16  C   UNL     1      -4.097   3.455  23.160  0.00  0.00    +0.010 C 
BRANCH  15  17
ATOM     17  C   UNL     1      -3.415   3.723  24.387  0.00  0.00    +0.241 C 
ATOM     18  O   UNL     1      -3.714   4.416  24.720  0.00  0.00    -0.273 OA
ATOM     19  N   UNL     1      -2.626   3.512  24.509  0.00  0.00    -0.201 NA
BRANCH  19  20
ATOM     20  C   UNL     1      -2.137   3.996  24.963  0.00  0.00    +0.141 C 
BRANCH  20  21
ATOM     21  C   UNL     1      -1.445   3.689  25.291  0.00  0.00    -0.000 A 
ATOM     22  C   UNL     1      -0.738   3.718  24.865  0.00  0.00    +0.001 A 
ATOM     23  C   UNL     1      -0.047   3.411  25.193  0.00  0.00    +0.037 A 
ATOM     24  C   UNL     1      -0.061   3.076  25.946  0.00  0.00    +0.139 A 
ATOM     27  C   UNL     1      -0.766   3.046  26.372  0.00  0.00    +0.037 A 
ATOM     28  C   UNL     1      -1.459   3.353  26.044  0.00  0.00    +0.001 A 
BRANCH  24  25
ATOM     25  O   UNL     1       0.632   2.769  26.274  0.00  0.00    -0.471 OA
ATOM     26  C   UNL     1       0.607   2.385  27.004  0.00  0.00    +0.252 C 
ENDBRANCH  24  25
ENDBRANCH  20  21
ENDBRANCH  19  20
ENDBRANCH  15  17
ENDBRANCH  14  15
TORSDOF 8
ENDMDL
MODEL 4
REMARK VINA RESULT:     -10.1      1.153      4.961
REMARK  Name = 
REMARK  8 active torsions:
REMARK  status: ('A' for Active; 'I' for Inactive)
REMARK    1  A    between atoms: O_2  and  C_3
REMARK    2  A    between atoms: C_3  and  C_4
REMARK    3  A    between atoms: N_6  and  C_7
REMARK    4  A    between atoms: C_14  and  C_15
REMARK    5  A    between atoms: C_15  and  C_17
REMARK    6  A    between atoms: N_19  and  C_20
REMARK    7  A    between atoms: C_20  and  C_21
REMARK    8  A    between atoms: C_24  and  O_25
REMARK                            x       y       z     vdW  Elec       q    Type
REMARK                         _______ _______ _______ _____ _____    ______ ____
ROOT
ATOM      7  C   UNL     1      -2.731   3.454  25.042  0.00  0.00    +0.095 C 
ATOM      8  C   UNL     1      -2.270   3.768  25.650  0.00  0.00    +0.022 C 
ATOM      9  C   UNL     1      -1.538   3.431  25.827  0.00  0.00    +0.002 C 
ATOM     10  C   UNL     1      -1.266   2.782  25.398  0.00  0.00    +0.002 C 
ATOM     11  C   UNL     1      -0.805   3.096  26.006  0.00  0.00    +0.000 C 
ATOM     12  C   UNL     1      -0.534   2.446  25.575  0.00  0.00    +0.000 C 
ATOM     13  C   UNL     1      -0.263   1.797  25.146  0.00  0.00    +0.003 C 
ATOM     14  C   UNL     1      -0.724   1.483  24.538  0.00  0.00    +0.039 C 
ATOM     29  C   UNL     1      -1.456   1.818  24.359  0.00  0.00    +0.152 C 
ATOM     30  O   UNL     1      -1.916   1.504  23.752  0.00  0.00    -0.223 OA
ATOM     31  C   UNL     1      -1.727   2.468  24.790  0.00  0.00    +0.032 C 
ATOM     32  C   UNL     1      -2.459   2.803  24.611  0.00  0.00    +0.022 C 
ATOM     33  C   UNL     1      -2.920   2.490  24.004  0.00  0.00    +0.002 C 
ENDROOT
BRANCH   7   6
ATOM      4  C   UNL     1      -4.043   3.848  25.448  0.00  0.00    +0.272 C 
ATOM      5  O   UNL     1      -3.890   3.571  26.210  0.00  0.00    -0.271 OA
ATOM      6  N   UNL     1      -3.463   3.789  24.863  0.00  0.00    -0.205 NA
BRANCH   4   3
ATOM      3  C   UNL     1      -4.775   4.183  25.269  0.00  0.00    +0.229 C 
BRANCH   3   2
ATOM      1  C   UNL     1      -6.171   4.322  25.542  0.00  0.00    +0.175 C 
ATOM      2  O   UNL     1      -5.442   3.974  25.709  0.00  0.00    -0.342 OA
ENDBRANCH   3   2
ENDBRANCH   4   3
ENDBRANCH   7   6
BRANCH  14  15
ATOM     15  C   UNL     1      -0.453   0.833  24.107  0.00  0.00    +0.081 C 
ATOM     16  C   UNL     1      -0.197   0.931  23.330  0.00  0.00    +0.010 C 
BRANCH  15  17
ATOM     17  C   UNL     1      -0.438   0.085  24.456  0.00  0.00    +0.241 C 
ATOM     18  O   UNL     1       0.242  -0.178  24.842  0.00  0.00    -0.273 OA
ATOM     19  N   UNL     1      -1.105  -0.401  24.418  0.00  0.00    -0.201 NA
BRANCH  19  20
ATOM     20  C   UNL     1      -1.090  -1.148  24.767  0.00  0.00    +0.141 C 
BRANCH  20  21
ATOM     21  C   UNL     1      -1.759  -1.630  24.735  0.00  0.00    -0.000 A 
ATOM     22  C   UNL     1      -2.417  -1.453  25.203  0.00  0.00    +0.001 A 
ATOM     23  C   UNL     1      -3.086  -1.935  25.171  0.00  0.00    +0.037 A 
ATOM     24  C   UNL     1      -3.098  -2.592  24.674  0.00  0.00    +0.139 A 
ATOM     27  C   UNL     1      -2.442  -2.769  24.207  0.00  0.00    +0.037 A 
ATOM     28  C   UNL     1      -1.772  -2.287  24.238  0.00  0.00    +0.001 A 
BRANCH  24  25
ATOM     25  O   UNL     1      -3.768  -3.074  24.643  0.00  0.00    -0.471 OA
ATOM     26  C   UNL     1      -4.290  -3.013  24.007  0.00  0.00    +0.252 C 
ENDBRANCH  24  25
ENDBRANCH  20  21
ENDBRANCH  19  20
ENDBRANCH  15  17
ENDBRANCH  14  15
TORSDOF 8
ENDMDL
MODEL 5
REMARK VINA RESULT:      -9.7      1.932      3.611
REMARK  Name = 
REMARK  8 active torsions:
REMARK  status: ('A' for Active; 'I' for Inactive)
REMARK    1  A    between atoms: O_2  and  C_3
REMARK    2  A    between atoms: C_3  and  C_4
REMARK    3  A    between atoms: N_6  and  C_7
REMARK    4  A    between atoms: C_14  and  C_15
REMARK    5  A    between atoms: C_15  and  C_17
REMARK    6  A    between atoms: N_19  and  C_20
REMARK    7  A    between atoms: C_20  and  C_21
REMARK    8  A    between atoms: C_24  and  O_25
REMARK                            x       y       z     vdW  Elec       q    Type
REMARK                         _______ _______ _______ _____ _____    ______ ____
ROOT
ATOM      7  C   UNL     1      -0.223  -0.787  24.204  0.00  0.00    +0.095 C 
ATOM      8  C   UNL     1      -0.231  -1.554  23.898  0.00  0.00    +0.022 C 
ATOM      9  C   UNL     1      -0.898  -2.030  23.996  0.00  0.00    +0.002 C 
ATOM     10  C   UNL     1      -1.556  -1.740  24.399  0.00  0.00    +0.002 C 
ATOM     11  C   UNL     1      -1.564  -2.507  24.094  0.00  0.00    +0.000 C 
ATOM     12  C   UNL     1      -2.223  -2.216  24.497  0.00  0.00    +0.000 C 
ATOM     13  C   UNL     1      -2.882  -1.926  24.899  0.00  0.00    +0.003 C 
ATOM     14  C   UNL     1      -2.874  -1.160  25.204  0.00  0.00    +0.039 C 
ATOM     29  C   UNL     1      -2.208  -0.683  25.107  0.00  0.00    +0.152 C 
ATOM     30  O   UNL     1      -2.201   0.082  25.412  0.00  0.00    -0.223 OA
ATOM     31  C   UNL     1      -1.549  -0.974  24.704  0.00  0.00    +0.032 C 
ATOM     32  C   UNL     1      -0.883  -0.497  24.607  0.00  0.00    +0.022 C 
ATOM     33  C   UNL     1      -0.875   0.269  24.911  0.00  0.00    +0.002 C 
ENDROOT
BRANCH   7   6
ATOM      4  C   UNL     1       0.791  -0.236  23.361  0.00  0.00    +0.272 C 
ATOM      5  O   UNL     1       0.473  -0.638  22.715  0.00  0.00    -0.271 OA
ATOM      6  N   UNL     1       0.443  -0.311  24.106  0.00  0.00    -0.205 NA
BRANCH   4   3
ATOM      3  C   UNL     1       1.457   0.241  23.264  0.00  0.00    +0.229 C 
BRANCH   3   2
ATOM      1  C   UNL     1       2.727   0.448  22.644  0.00  0.00    +0.175 C 
ATOM      2  O   UNL     1       1.983   0.093  22.645  0.00  0.00    -0.342 OA
ENDBRANCH   3   2
ENDBRANCH   4   3
ENDBRANCH   7   6
BRANCH  14  15
ATOM     15  C   UNL     1      -3.533  -0.869  25.607  0.00  0.00    +0.081 C 
ATOM     16  C   UNL     1      -3.583  -0.947  26.426  0.00  0.00    +0.010 C 
BRANCH  15  17
ATOM     17  C   UNL     1      -4.142  -0.501  25.189  0.00  0.00    +0.241 C 
ATOM     18  O   UNL     1      -4.543  -0.911  24.596  0.00  0.00    -0.273 OA
ATOM     19  N   UNL     1      -4.350   0.279  25.364  0.00  0.00    -0.201 NA
BRANCH  19  20
ATOM     20  C   UNL     1      -4.958   0.647  24.947  0.00  0.00    +0.141 C 
BRANCH  20  21
ATOM     21  C   UNL     1      -5.121   1.446  25.074  0.00  0.00    -0.000 A 
ATOM     22  C   UNL     1      -5.689   1.667  25.630  0.00  0.00    +0.001 A 
ATOM     23  C   UNL     1      -5.851   2.466  25.758  0.00  0.00    +0.037 A 
ATOM     24  C   UNL     1      -5.446   3.042  25.331  0.00  0.00    +0.139 A 
ATOM     27  C   UNL     1      -4.878   2.821  24.775  0.00  0.00    +0.037 A 
ATOM     28  C   UNL     1      -4.716   2.022  24.647  0.00  0.00    +0.001 A 
BRANCH  24  25
ATOM     25  O   UNL     1      -5.609   3.841  25.459  0.00  0.00    -0.471 OA
ATOM     26  C   UNL     1      -4.990   4.376  25.563  0.00  0.00    +0.252 C 
ENDBRANCH  24  25
ENDBRANCH  20  21
ENDBRANCH  19  20
ENDBRANCH  15  17
ENDBRANCH  14  15
TORSDOF 8
ENDMDL
MODEL 6
REMARK VINA RESULT:      -9.7      1.909      3.541
REMARK  Name = 
REMARK  8 active torsions:
REMARK  status: ('A' for Active; 'I' for Inactive)
REMARK    1  A    between atoms: O_2  and  C_3
REMARK    2  A    between atoms: C_3  and  C_4
REMARK    3  A    between atoms: N_6  and  C_7
REMARK    4  A    between atoms: C_14  and  C_15
REMARK    5  A    between atoms: C_15  and  C_17
REMARK    6  A    between atoms: N_19  and  C_20
REMARK    7  A    between atoms: C_20  and  C_21
REMARK    8  A    between atoms: C_24  and  O_25
REMARK                            x       y       z     vdW  Elec       q    Type
REMARK                         _______ _______ _______ _____ _____    ______ ____
ROOT
ATOM      7  C   UNL     1      -1.991  -0.734  24.346  0.00  0.00    +0.095 C 
ATOM      8  C   UNL     1      -2.113  -1.247  24.980  0.00  0.00    +0.022 C 
ATOM      9  C   UNL     1      -2.780  -1.160  25.459  0.00  0.00    +0.002 C 
ATOM     10  C   UNL     1      -3.323  -0.560  25.304  0.00  0.00    +0.002 C 
ATOM     11  C   UNL     1      -3.445  -1.074  25.938  0.00  0.00    +0.000 C 
ATOM     12  C   UNL     1      -3.990  -0.472  25.782  0.00  0.00    +0.000 C 
ATOM     13  C   UNL     1      -4.533   0.128  25.628  0.00  0.00    +0.003 C 
ATOM     14  C   UNL     1      -4.411   0.642  24.994  0.00  0.00    +0.039 C 
ATOM     29  C   UNL     1      -3.745   0.555  24.515  0.00  0.00    +0.152 C 
ATOM     30  O   UNL     1      -3.623   1.068  23.882  0.00  0.00    -0.223 OA
ATOM     31  C   UNL     1      -3.201  -0.046  24.670  0.00  0.00    +0.032 C 
ATOM     32  C   UNL     1      -2.535  -0.132  24.191  0.00  0.00    +0.022 C 
ATOM     33  C   UNL     1      -2.413   0.381  23.558  0.00  0.00    +0.002 C 
ENDROOT
BRANCH   7   6
ATOM      4  C   UNL     1      -0.570  -0.754  24.195  0.00  0.00    +0.272 C 
ATOM      5  O   UNL     1      -0.482  -0.602  25.001  0.00  0.00    -0.271 OA
ATOM      6  N   UNL     1      -1.325  -0.820  23.867  0.00  0.00    -0.205 NA
BRANCH   4   3
ATOM      3  C   UNL     1       0.096  -0.840  23.716  0.00  0.00    +0.229 C 
BRANCH   3   2
ATOM      1  C   UNL     1       1.218  -0.237  23.068  0.00  0.00    +0.175 C 
ATOM      2  O   UNL     1       0.650  -0.229  23.666  0.00  0.00    -0.342 OA
ENDBRANCH   3   2
ENDBRANCH   4   3
ENDBRANCH   7   6
BRANCH  14  15
ATOM     15  C   UNL     1      -4.954   1.242  24.838  0.00  0.00    +0.081 C 
ATOM     16  C   UNL     1      -5.520   1.144  24.247  0.00  0.00    +0.010 C 
BRANCH  15  17
ATOM     17  C   UNL     1      -4.931   1.942  25.276  0.00  0.00    +0.241 C 
ATOM     18  O   UNL     1      -5.447   2.049  25.911  0.00  0.00    -0.273 OA
ATOM     19  N   UNL     1      -4.392   2.535  25.078  0.00  0.00    -0.201 NA
BRANCH  19  20
ATOM     20  C   UNL     1      -4.369   3.234  25.515  0.00  0.00    +0.141 C 
BRANCH  20  21
ATOM     21  C   UNL     1      -3.701   3.716  25.486  0.00  0.00    -0.000 A 
ATOM     22  C   UNL     1      -3.210   3.781  26.146  0.00  0.00    +0.001 A 
ATOM     23  C   UNL     1      -2.541   4.263  26.117  0.00  0.00    +0.037 A 
ATOM     24  C   UNL     1      -2.363   4.680  25.429  0.00  0.00    +0.139 A 
ATOM     27  C   UNL     1      -2.853   4.616  24.769  0.00  0.00    +0.037 A 
ATOM     28  C   UNL     1      -3.523   4.133  24.798  0.00  0.00    +0.001 A 
BRANCH  24  25
ATOM     25  O   UNL     1      -1.694   5.162  25.400  0.00  0.00    -0.471 OA
ATOM     26  C   UNL     1      -1.005   4.889  25.039  0.00  0.00    +0.252 C 
ENDBRANCH  24  25
ENDBRANCH  20  21
ENDBRANCH  19  20
ENDBRANCH  15  17
ENDBRANCH  14  15
TORSDOF 8
ENDMDL
MODEL 7
REMARK VINA RESULT:      -9.2      1.987      5.917
REMARK  Name = 
REMARK  8 active torsions:
REMARK  status: ('A' for Active; 'I' for Inactive)
REMARK    1  A    between atoms: O_2  and  C_3
REMARK    2  A    between atoms: C_3  and  C_4
REMARK    3  A    between atoms: N_6  and  C_7
REMARK    4  A    between atoms: C_14  and  C_15
REMARK    5  A    between atoms: C_15  and  C_17
REMARK    6  A    between atoms: N_19  and  C_20
REMARK    7  A    between atoms: C_20  and  C_21
REMARK    8  A    between atoms: C_24  and  O_25
REMARK                            x       y       z     vdW  Elec       q    Type
REMARK                         _______ _______ _______ _____ _____    ______ ____
ROOT
ATOM      7  C   UNL     1      -3.669   3.665  24.866  0.00  0.00    +0.095 C 
ATOM      8  C   UNL     1      -4.291   3.902  25.352  0.00  0.00    +0.022 C 
ATOM      9  C   UNL     1      -4.854   3.352  25.599  0.00  0.00    +0.002 C 
ATOM     10  C   UNL     1      -4.795   2.565  25.360  0.00  0.00    +0.002 C 
ATOM     11  C   UNL     1      -5.418   2.803  25.847  0.00  0.00    +0.000 C 
ATOM     12  C   UNL     1      -5.358   2.015  25.607  0.00  0.00    +0.000 C 
ATOM     13  C   UNL     1      -5.299   1.228  25.368  0.00  0.00    +0.003 C 
ATOM     14  C   UNL     1      -4.676   0.990  24.882  0.00  0.00    +0.039 C 
ATOM     29  C   UNL     1      -4.113   1.540  24.634  0.00  0.00    +0.152 C 
ATOM     30  O   UNL     1      -3.491   1.302  24.148  0.00  0.00    -0.223 OA
ATOM     31  C   UNL     1      -4.173   2.328  24.874  0.00  0.00    +0.032 C 
ATOM     32  C   UNL     1      -3.609   2.877  24.626  0.00  0.00    +0.022 C 
ATOM     33  C   UNL     1      -2.987   2.640  24.140  0.00  0.00    +0.002 C 
ENDROOT
BRANCH   7   6
ATOM      4  C   UNL     1      -2.616   4.581  25.172  0.00  0.00    +0.272 C 
ATOM      5  O   UNL     1      -2.690   4.398  25.973  0.00  0.00    -0.271 OA
ATOM      6  N   UNL     1      -3.106   4.214  24.618  0.00  0.00    -0.205 NA
BRANCH   4   3
ATOM      3  C   UNL     1      -2.052   5.130  24.925  0.00  0.00    +0.229 C 
BRANCH   3   2
ATOM      1  C   UNL     1      -0.645   5.349  24.814  0.00  0.00    +0.175 C 
ATOM      2  O   UNL     1      -1.300   5.130  25.264  0.00  0.00    -0.342 OA
ENDBRANCH   3   2
ENDBRANCH   4   3
ENDBRANCH   7   6
BRANCH  14  15
ATOM     15  C   UNL     1      -4.616   0.203  24.643  0.00  0.00    +0.081 C 
ATOM     16  C   UNL     1      -4.937  -0.034  23.922  0.00  0.00    +0.010 C 
BRANCH  15  17
ATOM     17  C   UNL     1      -4.235  -0.347  25.126  0.00  0.00    +0.241 C 
ATOM     18  O   UNL     1      -4.558  -0.548  25.858  0.00  0.00    -0.273 OA
ATOM     19  N   UNL     1      -3.529  -0.695  24.877  0.00  0.00    -0.201 NA
BRANCH  19  20
ATOM     20  C   UNL     1      -3.148  -1.245  25.360  0.00  0.00    +0.141 C 
BRANCH  20  21
ATOM     21  C   UNL     1      -2.340  -1.383  25.267  0.00  0.00    -0.000 A 
ATOM     22  C   UNL     1      -1.794  -0.950  25.709  0.00  0.00    +0.001 A 
ATOM     23  C   UNL     1      -0.986  -1.088  25.616  0.00  0.00    +0.037 A 
ATOM     24  C   UNL     1      -0.724  -1.660  25.083  0.00  0.00    +0.139 A 
ATOM     27  C   UNL     1      -1.269  -2.093  24.641  0.00  0.00    +0.037 A 
ATOM     28  C   UNL     1      -2.078  -1.955  24.734  0.00  0.00    +0.001 A 
BRANCH  24  25
ATOM     25  O   UNL     1       0.084  -1.798  24.990  0.00  0.00    -0.471 OA
ATOM     26  C   UNL     1       0.526  -1.329  24.476  0.00  0.00    +0.252 C 
ENDBRANCH  24  25
ENDBRANCH  20  21
ENDBRANCH  19  20
ENDBRANCH  15  17
ENDBRANCH  14  15
TORSDOF 8
ENDMDL
MODEL 8
REMARK VINA RESULT:      -9.2      2.049      3.648
REMARK  Name = 
REMARK  8 active torsions:
REMARK  status: ('A' for Active; 'I' for Inactive)
REMARK    1  A    between atoms: O_2  and  C_3
REMARK    2  A    between atoms: C_3  and  C_4
REMARK    3  A    between atoms: N_6  and  C_7
REMARK    4  A    between atoms: C_14  and  C_15
REMARK    5  A    between atoms: C_15  and  C_17
REMARK    6  A    between atoms: N_19  and  C_20
REMARK    7  A    between atoms: C_20  and  C_21
REMARK    8  A    between atoms: C_24  and  O_25
REMARK                            x       y       z     vdW  Elec       q    Type
REMARK                         _______ _______ _______ _____ _____    ______ ____
ROOT
ATOM      7  C   UNL     1       0.860   0.575  23.607  0.00  0.00    +0.095 C 
ATOM      8  C   UNL     1       0.897   1.354  23.873  0.00  0.00    +0.022 C 
ATOM      9  C   UNL     1       0.289   1.660  24.340  0.00  0.00    +0.002 C 
ATOM     10  C   UNL     1      -0.356   1.187  24.539  0.00  0.00    +0.002 C 
ATOM     11  C   UNL     1      -0.318   1.967  24.806  0.00  0.00    +0.000 C 
ATOM     12  C   UNL     1      -0.964   1.493  25.006  0.00  0.00    +0.000 C 
ATOM     13  C   UNL     1      -1.609   1.019  25.206  0.00  0.00    +0.003 C 
ATOM     14  C   UNL     1      -1.646   0.240  24.939  0.00  0.00    +0.039 C 
ATOM     29  C   UNL     1      -1.039  -0.067  24.473  0.00  0.00    +0.152 C 
ATOM     30  O   UNL     1      -1.076  -0.846  24.207  0.00  0.00    -0.223 OA
ATOM     31  C   UNL     1      -0.393   0.407  24.273  0.00  0.00    +0.032 C 
ATOM     32  C   UNL     1       0.214   0.100  23.807  0.00  0.00    +0.022 C 
ATOM     33  C   UNL     1       0.177  -0.679  23.540  0.00  0.00    +0.002 C 
ENDROOT
BRANCH   7   6
ATOM      4  C   UNL     1       2.187   0.668  23.086  0.00  0.00    +0.272 C 
ATOM      5  O   UNL     1       2.299   1.374  23.498  0.00  0.00    -0.271 OA
ATOM      6  N   UNL     1       1.467   0.268  23.140  0.00  0.00    -0.205 NA
BRANCH   4   3
ATOM      3  C   UNL     1       2.795   0.361  22.619  0.00  0.00    +0.229 C 
BRANCH   3   2
ATOM      1  C   UNL     1       4.200   0.363  22.363  0.00  0.00    +0.175 C 
ATOM      2  O   UNL     1       3.508   0.771  22.551  0.00  0.00    -0.342 OA
ENDBRANCH   3   2
ENDBRANCH   4   3
ENDBRANCH   7   6
BRANCH  14  15
ATOM     15  C   UNL     1      -2.291  -0.235  25.139  0.00  0.00    +0.081 C 
ATOM     16  C   UNL     1      -2.205  -0.835  25.696  0.00  0.00    +0.010 C 
BRANCH  15  17
ATOM     17  C   UNL     1      -3.023  -0.107  24.779  0.00  0.00    +0.241 C 
ATOM     18  O   UNL     1      -3.246  -0.558  24.125  0.00  0.00    -0.273 OA
ATOM     19  N   UNL     1      -3.532   0.472  25.074  0.00  0.00    -0.201 NA
BRANCH  19  20
ATOM     20  C   UNL     1      -4.264   0.599  24.715  0.00  0.00    +0.141 C 
BRANCH  20  21
ATOM     21  C   UNL     1      -4.701   1.274  24.899  0.00  0.00    -0.000 A 
ATOM     22  C   UNL     1      -4.576   1.974  24.479  0.00  0.00    +0.001 A 
ATOM     23  C   UNL     1      -5.013   2.648  24.663  0.00  0.00    +0.037 A 
ATOM     24  C   UNL     1      -5.574   2.625  25.266  0.00  0.00    +0.139 A 
ATOM     27  C   UNL     1      -5.699   1.926  25.687  0.00  0.00    +0.037 A 
ATOM     28  C   UNL     1      -5.262   1.250  25.502  0.00  0.00    +0.001 A 
BRANCH  24  25
ATOM     25  O   UNL     1      -6.011   3.300  25.450  0.00  0.00    -0.471 OA
ATOM     26  C   UNL     1      -5.625   4.015  25.592  0.00  0.00    +0.252 C 
ENDBRANCH  24  25
ENDBRANCH  20  21
ENDBRANCH  19  20
ENDBRANCH  15  17
ENDBRANCH  14  15
TORSDOF 8
ENDMDL
MODEL 9
REMARK VINA RESULT:      -9.1      2.517      5.819
REMARK  Name = 
REMARK  8 active torsions:
REMARK  status: ('A' for Active; 'I' for Inactive)
REMARK    1  A    between atoms: O_2  and  C_3
REMARK    2  A    between atoms: C_3  and  C_4
REMARK    3  A    between atoms: N_6  and  C_7
REMARK    4  A    between atoms: C_14  and  C_15
REMARK    5  A    between atoms: C_15  and  C_17
REMARK    6  A    between atoms: N_19  and  C_20
REMARK    7  A    between atoms: C_20  and  C_21
REMARK    8  A    between atoms: C_24  and  O_25
REMARK                            x       y       z     vdW  Elec       q    Type
REMARK                         _______ _______ _______ _____ _____    ______ ____
ROOT
ATOM      7  C   UNL     1      -2.524   2.579  24.504  0.00  0.00    +0.095 C 
ATOM      8  C   UNL     1      -2.042   3.202  24.750  0.00  0.00    +0.022 C 
ATOM      9  C   UNL     1      -1.222   3.106  24.769  0.00  0.00    +0.002 C 
ATOM     10  C   UNL     1      -0.885   2.388  24.541  0.00  0.00    +0.002 C 
ATOM     11  C   UNL     1      -0.403   3.011  24.787  0.00  0.00    +0.000 C 
ATOM     12  C   UNL     1      -0.066   2.292  24.560  0.00  0.00    +0.000 C 
ATOM     13  C   UNL     1       0.271   1.575  24.332  0.00  0.00    +0.003 C 
ATOM     14  C   UNL     1      -0.212   0.953  24.086  0.00  0.00    +0.039 C 
ATOM     29  C   UNL     1      -1.031   1.047  24.067  0.00  0.00    +0.152 C 
ATOM     30  O   UNL     1      -1.512   0.426  23.821  0.00  0.00    -0.223 OA
ATOM     31  C   UNL     1      -1.368   1.766  24.295  0.00  0.00    +0.032 C 
ATOM     32  C   UNL     1      -2.187   1.861  24.276  0.00  0.00    +0.022 C 
ATOM     33  C   UNL     1      -2.669   1.239  24.030  0.00  0.00    +0.002 C 
ENDROOT
BRANCH   7   6
ATOM      4  C   UNL     1      -3.722   3.107  25.078  0.00  0.00    +0.272 C 
ATOM      5  O   UNL     1      -3.281   3.444  25.688  0.00  0.00    -0.271 OA
ATOM      6  N   UNL     1      -3.343   2.674  24.485  0.00  0.00    -0.205 NA
BRANCH   4   3
ATOM      3  C   UNL     1      -4.541   3.202  25.059  0.00  0.00    +0.229 C 
BRANCH   3   2
ATOM      1  C   UNL     1      -5.796   3.009  25.714  0.00  0.00    +0.175 C 
ATOM      2  O   UNL     1      -4.980   3.126  25.754  0.00  0.00    -0.342 OA
ENDBRANCH   3   2
ENDBRANCH   4   3
ENDBRANCH   7   6
BRANCH  14  15
ATOM     15  C   UNL     1       0.125   0.235  23.858  0.00  0.00    +0.081 C 
ATOM     16  C   UNL     1      -0.042  -0.452  24.282  0.00  0.00    +0.010 C 
BRANCH  15  17
ATOM     17  C   UNL     1       0.629   0.204  23.205  0.00  0.00    +0.241 C 
ATOM     18  O   UNL     1       0.315   0.189  22.442  0.00  0.00    -0.273 OA
ATOM     19  N   UNL     1       1.447   0.189  23.316  0.00  0.00    -0.201 NA
BRANCH  19  20
ATOM     20  C   UNL     1       1.950   0.159  22.663  0.00  0.00    +0.141 C 
BRANCH  20  21
ATOM     21  C   UNL     1       2.767   0.196  22.771  0.00  0.00    -0.000 A 
ATOM     22  C   UNL     1       3.168   0.906  22.640  0.00  0.00    +0.001 A 
ATOM     23  C   UNL     1       3.985   0.943  22.749  0.00  0.00    +0.037 A 
ATOM     24  C   UNL     1       4.401   0.273  22.988  0.00  0.00    +0.139 A 
ATOM     27  C   UNL     1       4.000  -0.436  23.119  0.00  0.00    +0.037 A 
ATOM     28  C   UNL     1       3.183  -0.474  23.011  0.00  0.00    +0.001 A 
BRANCH  24  25
ATOM     25  O   UNL     1       5.218   0.311  23.096  0.00  0.00    -0.471 OA
ATOM     26  C   UNL     1       5.541   0.181  23.844  0.00  0.00    +0.252 C 
ENDBRANCH  24  25
ENDBRANCH  20  21
ENDBRANCH  19  20
ENDBRANCH  15  17
ENDBRANCH  14  15
TORSDOF 8
ENDMDL
MODEL 10
REMARK VINA RESULT:      -9.0      2.018      5.539
REMARK  Name = 
REMARK  8 active torsions:
REMARK  status: ('A' for Active; 'I' for Inactive)
REMARK    1  A    between atoms: O_2  and  C_3
REMARK    2  A    between atoms: C_3  and  C_4
REMARK    3  A    between atoms: N_6  and  C_7
REMARK    4  A    between atoms: C_14  and  C_15
REMARK    5  A    between atoms: C_15  and  C_17
REMARK    6  A    between atoms: N_19  and  C_20
REMARK    7  A    between atoms: C_20  and  C_21
REMARK    8  A    between atoms: C_24  and  O_25
REMARK                            x       y       z     vdW  Elec       q    Type
REMARK                         _______ _______ _______ _____ _____    ______ ____
ROOT
ATOM      7  C   UNL     1      -4.063   1.743  24.794  0.00  0.00    +0.095 C 
ATOM      8  C   UNL     1      -4.634   1.162  24.666  0.00  0.00    +0.022 C 
ATOM      9  C   UNL     1      -4.414   0.367  24.636  0.00  0.00    +0.002 C 
ATOM     10  C   UNL     1      -3.624   0.154  24.733  0.00  0.00    +0.002 C 
ATOM     11  C   UNL     1      -4.196  -0.428  24.606  0.00  0.00    +0.000 C 
ATOM     12  C   UNL     1      -3.404  -0.641  24.703  0.00  0.00    +0.000 C 
ATOM     13  C   UNL     1      -2.614  -0.855  24.800  0.00  0.00    +0.003 C 
ATOM     14  C   UNL     1      -2.042  -0.274  24.928  0.00  0.00    +0.039 C 
ATOM     29  C   UNL     1      -2.261   0.521  24.958  0.00  0.00    +0.152 C 
ATOM     30  O   UNL     1      -1.690   1.101  25.086  0.00  0.00    -0.223 OA
ATOM     31  C   UNL     1      -3.052   0.735  24.861  0.00  0.00    +0.032 C 
ATOM     32  C   UNL     1      -3.271   1.529  24.891  0.00  0.00    +0.022 C 
ATOM     33  C   UNL     1      -2.700   2.110  25.019  0.00  0.00    +0.002 C 
ENDROOT
BRANCH   7   6
ATOM      4  C   UNL     1      -4.916   2.773  25.298  0.00  0.00    +0.272 C 
ATOM      5  O   UNL     1      -5.330   2.213  25.740  0.00  0.00    -0.271 OA
ATOM      6  N   UNL     1      -4.281   2.538  24.824  0.00  0.00    -0.205 NA
BRANCH   4   3
ATOM      3  C   UNL     1      -5.134   3.568  25.328  0.00  0.00    +0.229 C 
BRANCH   3   2
ATOM      1  C   UNL     1      -6.075   4.576  25.703  0.00  0.00    +0.175 C 
ATOM      2  O   UNL     1      -5.826   3.790  25.720  0.00  0.00    -0.342 OA
ENDBRANCH   3   2
ENDBRANCH   4   3
ENDBRANCH   7   6
BRANCH  14  15
ATOM     15  C   UNL     1      -1.251  -0.487  25.025  0.00  0.00    +0.081 C 
ATOM     16  C   UNL     1      -0.902  -0.447  25.770  0.00  0.00    +0.010 C 
BRANCH  15  17
ATOM     17  C   UNL     1      -0.810  -0.740  24.375  0.00  0.00    +0.241 C 
ATOM     18  O   UNL     1      -0.984  -1.460  24.013  0.00  0.00    -0.273 OA
ATOM     19  N   UNL     1      -0.193  -0.272  24.087  0.00  0.00    -0.201 NA
BRANCH  19  20
ATOM     20  C   UNL     1       0.248  -0.525  23.438  0.00  0.00    +0.141 C 
BRANCH  20  21
ATOM     21  C   UNL     1       0.947  -0.135  23.238  0.00  0.00    -0.000 A 
ATOM     22  C   UNL     1       1.467  -0.475  22.695  0.00  0.00    +0.001 A 
ATOM     23  C   UNL     1       2.166  -0.086  22.495  0.00  0.00    +0.037 A 
ATOM     24  C   UNL     1       2.345   0.642  22.837  0.00  0.00    +0.139 A 
ATOM     27  C   UNL     1       1.826   0.982  23.380  0.00  0.00    +0.037 A 
ATOM     28  C   UNL     1       1.126   0.592  23.581  0.00  0.00    +0.001 A 
BRANCH  24  25
ATOM     25  O   UNL     1       3.045   1.032  22.637  0.00  0.00    -0.471 OA
ATOM     26  C   UNL     1       3.773   0.687  22.813  0.00  0.00    +0.252 C 
ENDBRANCH  24  25
ENDBRANCH  20  21
ENDBRANCH  19  20
ENDBRANCH  15  17
ENDBRANCH  14  15
TORSDOF 8
ENDMDL
