REMARK  Name = 
REMARK  8 active torsions:
REMARK  status: ('A' for Active; 'I' for Inactive)
REMARK    1  A    between atoms: C_2  and  N_3
REMARK    2  A    between atoms: N_6  and  C_7
REMARK    3  A    between atoms: C_10  and  C_13
REMARK    4  A    between atoms: C_13  and  C_15
REMARK    5  A    between atoms: N_21  and  C_22
REMARK    6  A    between atoms: C_22  and  C_23
REMARK    7  A    between atoms: C_23  and  O_24
REMARK    8  A    between atoms: O_24  and  C_25
REMARK                            x       y       z     vdW  Elec       q    Type
REMARK                         _______ _______ _______ _____ _____    ______ ____
ROOT
ATOM     13  C   UNL     1       0.715   1.238   0.000  0.00  0.00    +0.195 C 
ATOM     14  O   UNL     1       0.715   0.412   0.000  0.00  0.00    -0.216 OA
ENDROOT
BRANCH  13  15
ATOM     15  C   UNL     1       1.429   1.650   0.000  0.00  0.00    +0.139 C 
ATOM     16  C   UNL     1       1.429   2.475   0.000  0.00  0.00    +0.165 C 
ATOM     17  O   UNL     1       2.143   2.888   0.000  0.00  0.00    -0.343 OA
ATOM     18  C   UNL     1       2.858   2.475   0.000  0.00  0.00    +0.227 C 
ATOM     19  C   UNL     1       2.858   1.650   0.000  0.00  0.00    +0.256 C 
ATOM     20  O   UNL     1       3.572   1.238   0.000  0.00  0.00    -0.272 OA
ATOM     21  N   UNL     1       2.143   1.238   0.000  0.00  0.00    -0.271 N 
BRANCH  21  22
ATOM     22  C   UNL     1       2.143   0.412   0.000  0.00  0.00    +0.126 C 
BRANCH  22  23
ATOM     23  C   UNL     1       2.858   0.000   0.000  0.00  0.00    +0.164 C 
BRANCH  23  24
ATOM     24  O   UNL     1       3.572   0.412   0.000  0.00  0.00    -0.352 OA
BRANCH  24  25
ATOM     25  C   UNL     1       4.287   0.000   0.000  0.00  0.00    +0.142 C 
ATOM     26  C   UNL     1       5.001   0.412   0.000  0.00  0.00    +0.035 C 
ENDBRANCH  24  25
ENDBRANCH  23  24
ENDBRANCH  22  23
ENDBRANCH  21  22
ENDBRANCH  13  15
BRANCH  13  10
ATOM      7  C   UNL     1      -1.429   2.475   0.000  0.00  0.00    +0.075 A 
ATOM      8  C   UNL     1      -0.715   2.888   0.000  0.00  0.00    +0.016 A 
ATOM      9  C   UNL     1       0.000   2.475   0.000  0.00  0.00    -0.000 A 
ATOM     10  C   UNL     1       0.000   1.650   0.000  0.00  0.00    +0.010 A 
ATOM     11  C   UNL     1      -0.715   1.238   0.000  0.00  0.00    -0.000 A 
ATOM     12  C   UNL     1      -1.429   1.650   0.000  0.00  0.00    +0.016 A 
BRANCH   7   6
ATOM      3  N   UNL     1      -3.572   2.888   0.000  0.00  0.00    -0.187 NA
ATOM      4  C   UNL     1      -2.858   2.475   0.000  0.00  0.00    +0.343 C 
ATOM      5  O   UNL     1      -2.858   1.650   0.000  0.00  0.00    -0.249 OA
ATOM      6  N   UNL     1      -2.143   2.888   0.000  0.00  0.00    -0.161 NA
BRANCH   3   2
ATOM      1  C   UNL     1      -5.001   2.888   0.000  0.00  0.00    +0.025 C 
ATOM      2  C   UNL     1      -4.287   2.475   0.000  0.00  0.00    +0.117 C 
ENDBRANCH   3   2
ENDBRANCH   7   6
ENDBRANCH  13  10
TORSDOF 8
