MODEL 1
REMARK VINA RESULT:     -10.2      0.000      0.000
REMARK  Name = 
REMARK  7 active torsions:
REMARK  status: ('A' for Active; 'I' for Inactive)
REMARK    1  A    between atoms: C_8  and  N_9
REMARK    2  A    between atoms: C_10  and  C_12
REMARK    3  A    between atoms: C_15  and  O_16
REMARK    4  A    between atoms: O_16  and  C_17
REMARK    5  A    between atoms: C_17  and  C_18
REMARK    6  A    between atoms: C_18  and  N_19
REMARK    7  A    between atoms: N_29  and  C_30
REMARK                            x       y       z     vdW  Elec       q    Type
REMARK                         _______ _______ _______ _____ _____    ______ ____
ROOT
ATOM      9  N   UNL     1      -1.585  -0.518  24.071  0.00  0.00    -0.199 NA
ATOM     10  C   UNL     1      -0.955  -0.114  24.417  0.00  0.00    +0.265 C 
ATOM     11  O   UNL     1      -1.023   0.171  25.188  0.00  0.00    -0.268 OA
ENDROOT
BRANCH   9   8
ATOM      1  O   UNL     1      -1.807  -1.947  24.603  0.00  0.00    -0.221 OA
ATOM      2  C   UNL     1      -2.402  -1.403  24.781  0.00  0.00    +0.174 C 
ATOM      3  C   UNL     1      -3.036  -1.695  25.219  0.00  0.00    +0.037 C 
ATOM      4  C   UNL     1      -3.708  -1.295  25.482  0.00  0.00    +0.024 C 
ATOM      5  C   UNL     1      -3.911  -0.503  25.371  0.00  0.00    +0.095 C 
ATOM      6  N   UNL     1      -3.493   0.084  24.970  0.00  0.00    -0.261 N 
ATOM      7  C   UNL     1      -2.768   0.024  24.580  0.00  0.00    +0.119 C 
ATOM      8  C   UNL     1      -2.282  -0.638  24.496  0.00  0.00    +0.146 C 
ATOM     27  C   UNL     1      -3.847   0.830  24.956  0.00  0.00    +0.328 C 
ATOM     28  O   UNL     1      -3.474   1.456  24.569  0.00  0.00    -0.250 OA
ATOM     29  N   UNL     1      -4.572   0.949  25.329  0.00  0.00    -0.162 NA
BRANCH  29  30
ATOM     30  C   UNL     1      -4.925   1.694  25.315  0.00  0.00    +0.075 A 
ATOM     31  C   UNL     1      -4.549   2.335  25.675  0.00  0.00    +0.017 A 
ATOM     32  C   UNL     1      -4.903   3.081  25.660  0.00  0.00    +0.001 A 
ATOM     33  C   UNL     1      -5.630   3.186  25.287  0.00  0.00    +0.000 A 
ATOM     34  C   UNL     1      -6.006   2.545  24.927  0.00  0.00    +0.001 A 
ATOM     35  C   UNL     1      -5.653   1.799  24.941  0.00  0.00    +0.017 A 
ENDBRANCH  29  30
ENDBRANCH   9   8
BRANCH  10  12
ATOM     12  C   UNL     1      -0.258   0.006  23.992  0.00  0.00    +0.055 A 
ATOM     13  C   UNL     1       0.124  -0.634  23.639  0.00  0.00    +0.008 A 
ATOM     14  C   UNL     1       0.821  -0.514  23.214  0.00  0.00    +0.037 A 
ATOM     15  C   UNL     1       1.136   0.245  23.143  0.00  0.00    +0.139 A 
ATOM     25  C   UNL     1       0.753   0.884  23.497  0.00  0.00    +0.037 A 
ATOM     26  C   UNL     1       0.056   0.764  23.921  0.00  0.00    +0.008 A 
BRANCH  15  16
ATOM     16  O   UNL     1       1.833   0.364  22.718  0.00  0.00    -0.474 OA
BRANCH  16  17
ATOM     17  C   UNL     1       2.562   0.197  23.066  0.00  0.00    +0.223 C 
BRANCH  17  18
ATOM     18  C   UNL     1       3.258   0.307  22.638  0.00  0.00    +0.120 C 
BRANCH  18  19
ATOM     19  N   UNL     1       3.990   0.178  22.999  0.00  0.00    -0.265 NA
ATOM     20  C   UNL     1       4.529   0.797  23.071  0.00  0.00    +0.105 C 
ATOM     21  C   UNL     1       5.259   0.668  23.432  0.00  0.00    +0.159 C 
ATOM     22  O   UNL     1       5.451  -0.081  23.720  0.00  0.00    -0.351 OA
ATOM     23  C   UNL     1       4.911  -0.701  23.648  0.00  0.00    +0.159 C 
ATOM     24  C   UNL     1       4.180  -0.571  23.287  0.00  0.00    +0.105 C 
ENDBRANCH  18  19
ENDBRANCH  17  18
ENDBRANCH  16  17
ENDBRANCH  15  16
ENDBRANCH  10  12
TORSDOF 7
ENDMDL
MODEL 2
REMARK VINA RESULT:      -9.5      1.881      2.713
REMARK  Name = 
REMARK  7 active torsions:
REMARK  status: ('A' for Active; 'I' for Inactive)
REMARK    1  A    between atoms: C_8  and  N_9
REMARK    2  A    between atoms: C_10  and  C_12
REMARK    3  A    between atoms: C_15  and  O_16
REMARK    4  A    between atoms: O_16  and  C_17
REMARK    5  A    between atoms: C_17  and  C_18
REMARK    6  A    between atoms: C_18  and  N_19
REMARK    7  A    between atoms: N_29  and  C_30
REMARK                            x       y       z     vdW  Elec       q    Type
REMARK                         _______ _______ _______ _____ _____    ______ ____
ROOT
ATOM      9  N   UNL     1      -1.059   2.778  24.356  0.00  0.00    -0.199 NA
ATOM     10  C   UNL     1      -0.798   2.071  24.691  0.00  0.00    +0.265 C 
ATOM     11  O   UNL     1      -1.091   1.830  25.423  0.00  0.00    -0.268 OA
ENDROOT
BRANCH   9   8
ATOM      1  O   UNL     1      -0.538   4.123  24.897  0.00  0.00    -0.221 OA
ATOM      2  C   UNL     1      -1.334   3.963  25.043  0.00  0.00    +0.174 C 
ATOM      3  C   UNL     1      -1.746   4.544  25.459  0.00  0.00    +0.037 C 
ATOM      4  C   UNL     1      -2.538   4.549  25.688  0.00  0.00    +0.024 C 
ATOM      5  C   UNL     1      -3.115   3.974  25.557  0.00  0.00    +0.095 C 
ATOM      6  N   UNL     1      -3.041   3.252  25.165  0.00  0.00    -0.261 N 
ATOM      7  C   UNL     1      -2.374   2.926  24.807  0.00  0.00    +0.119 C 
ATOM      8  C   UNL     1      -1.613   3.243  24.753  0.00  0.00    +0.146 C 
ATOM     27  C   UNL     1      -3.728   2.794  25.126  0.00  0.00    +0.328 C 
ATOM     28  O   UNL     1      -3.714   2.062  24.746  0.00  0.00    -0.250 OA
ATOM     29  N   UNL     1      -4.427   3.069  25.467  0.00  0.00    -0.162 NA
BRANCH  29  30
ATOM     30  C   UNL     1      -5.111   2.612  25.427  0.00  0.00    +0.075 A 
ATOM     31  C   UNL     1      -5.445   2.431  24.694  0.00  0.00    +0.017 A 
ATOM     32  C   UNL     1      -6.131   1.973  24.655  0.00  0.00    +0.001 A 
ATOM     33  C   UNL     1      -6.482   1.696  25.347  0.00  0.00    +0.000 A 
ATOM     34  C   UNL     1      -6.149   1.877  26.080  0.00  0.00    +0.001 A 
ATOM     35  C   UNL     1      -5.463   2.335  26.120  0.00  0.00    +0.017 A 
ENDBRANCH  29  30
ENDBRANCH   9   8
BRANCH  10  12
ATOM     12  C   UNL     1      -0.244   1.606  24.294  0.00  0.00    +0.055 A 
ATOM     13  C   UNL     1       0.551   1.823  24.293  0.00  0.00    +0.008 A 
ATOM     14  C   UNL     1       1.105   1.358  23.896  0.00  0.00    +0.037 A 
ATOM     15  C   UNL     1       0.864   0.676  23.500  0.00  0.00    +0.139 A 
ATOM     25  C   UNL     1       0.068   0.460  23.502  0.00  0.00    +0.037 A 
ATOM     26  C   UNL     1      -0.486   0.925  23.899  0.00  0.00    +0.008 A 
BRANCH  15  16
ATOM     16  O   UNL     1       1.418   0.211  23.103  0.00  0.00    -0.474 OA
BRANCH  16  17
ATOM     17  C   UNL     1       2.218   0.405  23.137  0.00  0.00    +0.223 C 
BRANCH  17  18
ATOM     18  C   UNL     1       2.772  -0.061  22.741  0.00  0.00    +0.120 C 
BRANCH  18  19
ATOM     19  N   UNL     1       3.571  -0.018  22.947  0.00  0.00    -0.265 NA
ATOM     20  C   UNL     1       4.012   0.650  22.749  0.00  0.00    +0.105 C 
ATOM     21  C   UNL     1       4.809   0.693  22.955  0.00  0.00    +0.159 C 
ATOM     22  O   UNL     1       5.166   0.068  23.358  0.00  0.00    -0.351 OA
ATOM     23  C   UNL     1       4.724  -0.600  23.556  0.00  0.00    +0.159 C 
ATOM     24  C   UNL     1       3.926  -0.643  23.350  0.00  0.00    +0.105 C 
ENDBRANCH  18  19
ENDBRANCH  17  18
ENDBRANCH  16  17
ENDBRANCH  15  16
ENDBRANCH  10  12
TORSDOF 7
ENDMDL
MODEL 3
REMARK VINA RESULT:      -8.3      1.362      2.757
REMARK  Name = 
REMARK  7 active torsions:
REMARK  status: ('A' for Active; 'I' for Inactive)
REMARK    1  A    between atoms: C_8  and  N_9
REMARK    2  A    between atoms: C_10  and  C_12
REMARK    3  A    between atoms: C_15  and  O_16
REMARK    4  A    between atoms: O_16  and  C_17
REMARK    5  A    between atoms: C_17  and  C_18
REMARK    6  A    between atoms: C_18  and  N_19
REMARK    7  A    between atoms: N_29  and  C_30
REMARK                            x       y       z     vdW  Elec       q    Type
REMARK                         _______ _______ _______ _____ _____    ______ ____
ROOT
ATOM      9  N   UNL     1      -0.856   1.309  23.630  0.00  0.00    -0.199 NA
ATOM     10  C   UNL     1      -0.246   0.899  24.006  0.00  0.00    +0.265 C 
ATOM     11  O   UNL     1      -0.403   0.466  24.691  0.00  0.00    -0.268 OA
ENDROOT
BRANCH   9   8
ATOM      1  O   UNL     1      -1.446   2.666  24.057  0.00  0.00    -0.221 OA
ATOM      2  C   UNL     1      -1.937   2.011  24.167  0.00  0.00    +0.174 C 
ATOM      3  C   UNL     1      -2.679   2.170  24.491  0.00  0.00    +0.037 C 
ATOM      4  C   UNL     1      -3.287   1.642  24.666  0.00  0.00    +0.024 C 
ATOM      5  C   UNL     1      -3.305   0.824  24.561  0.00  0.00    +0.095 C 
ATOM      6  N   UNL     1      -2.717   0.332  24.254  0.00  0.00    -0.261 N 
ATOM      7  C   UNL     1      -1.968   0.537  23.977  0.00  0.00    +0.119 C 
ATOM      8  C   UNL     1      -1.621   1.285  23.939  0.00  0.00    +0.146 C 
ATOM     27  C   UNL     1      -2.905  -0.471  24.220  0.00  0.00    +0.328 C 
ATOM     28  O   UNL     1      -2.355  -1.010  23.923  0.00  0.00    -0.250 OA
ATOM     29  N   UNL     1      -3.640  -0.735  24.484  0.00  0.00    -0.162 NA
BRANCH  29  30
ATOM     30  C   UNL     1      -3.827  -1.537  24.449  0.00  0.00    +0.075 A 
ATOM     31  C   UNL     1      -3.536  -2.053  25.025  0.00  0.00    +0.017 A 
ATOM     32  C   UNL     1      -3.723  -2.856  24.991  0.00  0.00    +0.001 A 
ATOM     33  C   UNL     1      -4.199  -3.144  24.382  0.00  0.00    +0.000 A 
ATOM     34  C   UNL     1      -4.489  -2.628  23.806  0.00  0.00    +0.001 A 
ATOM     35  C   UNL     1      -4.302  -1.825  23.841  0.00  0.00    +0.017 A 
ENDBRANCH  29  30
ENDBRANCH   9   8
BRANCH  10  12
ATOM     12  C   UNL     1       0.519   0.923  23.698  0.00  0.00    +0.055 A 
ATOM     13  C   UNL     1       0.770   0.339  23.173  0.00  0.00    +0.008 A 
ATOM     14  C   UNL     1       1.535   0.362  22.865  0.00  0.00    +0.037 A 
ATOM     15  C   UNL     1       2.048   0.970  23.082  0.00  0.00    +0.139 A 
ATOM     25  C   UNL     1       1.797   1.554  23.607  0.00  0.00    +0.037 A 
ATOM     26  C   UNL     1       1.032   1.530  23.915  0.00  0.00    +0.008 A 
BRANCH  15  16
ATOM     16  O   UNL     1       2.813   0.994  22.773  0.00  0.00    -0.474 OA
BRANCH  16  17
ATOM     17  C   UNL     1       3.362   0.417  22.988  0.00  0.00    +0.223 C 
BRANCH  17  18
ATOM     18  C   UNL     1       4.165   0.538  22.843  0.00  0.00    +0.120 C 
BRANCH  18  19
ATOM     19  N   UNL     1       4.730   0.165  23.316  0.00  0.00    -0.265 NA
ATOM     20  C   UNL     1       5.347   0.604  23.645  0.00  0.00    +0.105 C 
ATOM     21  C   UNL     1       5.911   0.232  24.117  0.00  0.00    +0.159 C 
ATOM     22  O   UNL     1       5.860  -0.579  24.261  0.00  0.00    -0.351 OA
ATOM     23  C   UNL     1       5.243  -1.018  23.933  0.00  0.00    +0.159 C 
ATOM     24  C   UNL     1       4.678  -0.645  23.460  0.00  0.00    +0.105 C 
ENDBRANCH  18  19
ENDBRANCH  17  18
ENDBRANCH  16  17
ENDBRANCH  15  16
ENDBRANCH  10  12
TORSDOF 7
ENDMDL
MODEL 4
REMARK VINA RESULT:      -7.3     14.082     15.263
REMARK  Name = 
REMARK  7 active torsions:
REMARK  status: ('A' for Active; 'I' for Inactive)
REMARK    1  A    between atoms: C_8  and  N_9
REMARK    2  A    between atoms: C_10  and  C_12
REMARK    3  A    between atoms: C_15  and  O_16
REMARK    4  A    between atoms: O_16  and  C_17
REMARK    5  A    between atoms: C_17  and  C_18
REMARK    6  A    between atoms: C_18  and  N_19
REMARK    7  A    between atoms: N_29  and  C_30
REMARK                            x       y       z     vdW  Elec       q    Type
REMARK                         _______ _______ _______ _____ _____    ______ ____
ROOT
ATOM      9  N   UNL     1      -5.492  -9.880  15.666  0.00  0.00    -0.199 NA
ATOM     10  C   UNL     1      -5.765 -10.322  15.025  0.00  0.00    +0.265 C 
ATOM     11  O   UNL     1      -6.446 -10.781  15.102  0.00  0.00    -0.268 OA
ENDROOT
BRANCH   9   8
ATOM      1  O   UNL     1      -4.721 -10.479  16.857  0.00  0.00    -0.221 OA
ATOM      2  C   UNL     1      -5.487 -10.218  17.021  0.00  0.00    +0.174 C 
ATOM      3  C   UNL     1      -5.739 -10.312  17.801  0.00  0.00    +0.037 C 
ATOM      4  C   UNL     1      -6.465 -10.109  18.135  0.00  0.00    +0.024 C 
ATOM      5  C   UNL     1      -7.119  -9.762  17.772  0.00  0.00    +0.095 C 
ATOM      6  N   UNL     1      -7.208  -9.531  16.985  0.00  0.00    -0.261 N 
ATOM      7  C   UNL     1      -6.666  -9.592  16.367  0.00  0.00    +0.119 C 
ATOM      8  C   UNL     1      -5.899  -9.898  16.383  0.00  0.00    +0.146 C 
ATOM     27  C   UNL     1      -7.937  -9.196  16.791  0.00  0.00    +0.328 C 
ATOM     28  O   UNL     1      -8.083  -8.947  16.018  0.00  0.00    -0.250 OA
ATOM     29  N   UNL     1      -8.519  -9.110  17.369  0.00  0.00    -0.162 NA
BRANCH  29  30
ATOM     30  C   UNL     1      -9.247  -8.775  17.174  0.00  0.00    +0.075 A 
ATOM     31  C   UNL     1      -9.877  -9.260  16.953  0.00  0.00    +0.017 A 
ATOM     32  C   UNL     1     -10.606  -8.924  16.758  0.00  0.00    +0.001 A 
ATOM     33  C   UNL     1     -10.704  -8.106  16.784  0.00  0.00    +0.000 A 
ATOM     34  C   UNL     1     -10.074  -7.622  17.006  0.00  0.00    +0.001 A 
ATOM     35  C   UNL     1      -9.345  -7.957  17.201  0.00  0.00    +0.017 A 
ENDBRANCH  29  30
ENDBRANCH   9   8
BRANCH  10  12
ATOM     12  C   UNL     1      -5.358 -10.305  14.308  0.00  0.00    +0.055 A 
ATOM     13  C   UNL     1      -4.554 -10.487  14.286  0.00  0.00    +0.008 A 
ATOM     14  C   UNL     1      -4.147 -10.470  13.569  0.00  0.00    +0.037 A 
ATOM     15  C   UNL     1      -4.543 -10.270  12.873  0.00  0.00    +0.139 A 
ATOM     25  C   UNL     1      -5.347 -10.087  12.896  0.00  0.00    +0.037 A 
ATOM     26  C   UNL     1      -5.755 -10.105  13.613  0.00  0.00    +0.008 A 
BRANCH  15  16
ATOM     16  O   UNL     1      -4.136 -10.252  12.156  0.00  0.00    -0.474 OA
BRANCH  16  17
ATOM     17  C   UNL     1      -4.409  -9.780  11.538  0.00  0.00    +0.223 C 
BRANCH  17  18
ATOM     18  C   UNL     1      -3.901  -9.572  10.923  0.00  0.00    +0.120 C 
BRANCH  18  19
ATOM     19  N   UNL     1      -4.207  -9.397  10.176  0.00  0.00    -0.265 NA
ATOM     20  C   UNL     1      -4.551  -8.661  10.032  0.00  0.00    +0.105 C 
ATOM     21  C   UNL     1      -4.856  -8.487   9.287  0.00  0.00    +0.159 C 
ATOM     22  O   UNL     1      -4.819  -9.049   8.683  0.00  0.00    -0.351 OA
ATOM     23  C   UNL     1      -4.475  -9.785   8.827  0.00  0.00    +0.159 C 
ATOM     24  C   UNL     1      -4.169  -9.960   9.574  0.00  0.00    +0.105 C 
ENDBRANCH  18  19
ENDBRANCH  17  18
ENDBRANCH  16  17
ENDBRANCH  15  16
ENDBRANCH  10  12
TORSDOF 7
ENDMDL
MODEL 5
REMARK VINA RESULT:      -7.0     16.000     17.590
REMARK  Name = 
REMARK  7 active torsions:
REMARK  status: ('A' for Active; 'I' for Inactive)
REMARK    1  A    between atoms: C_8  and  N_9
REMARK    2  A    between atoms: C_10  and  C_12
REMARK    3  A    between atoms: C_15  and  O_16
REMARK    4  A    between atoms: O_16  and  C_17
REMARK    5  A    between atoms: C_17  and  C_18
REMARK    6  A    between atoms: C_18  and  N_19
REMARK    7  A    between atoms: N_29  and  C_30
REMARK                            x       y       z     vdW  Elec       q    Type
REMARK                         _______ _______ _______ _____ _____    ______ ____
ROOT
ATOM      9  N   UNL     1      -4.989  -9.967  11.188  0.00  0.00    -0.199 NA
ATOM     10  C   UNL     1      -5.266  -9.191  11.168  0.00  0.00    +0.265 C 
ATOM     11  O   UNL     1      -5.016  -8.650  11.739  0.00  0.00    -0.268 OA
ENDROOT
BRANCH   9   8
ATOM      1  O   UNL     1      -3.580 -10.362  10.706  0.00  0.00    -0.221 OA
ATOM      2  C   UNL     1      -3.708 -10.414  11.520  0.00  0.00    +0.174 C 
ATOM      3  C   UNL     1      -3.065 -10.671  11.968  0.00  0.00    +0.037 C 
ATOM      4  C   UNL     1      -3.017 -10.780  12.784  0.00  0.00    +0.024 C 
ATOM      5  C   UNL     1      -3.601 -10.659  13.354  0.00  0.00    +0.095 C 
ATOM      6  N   UNL     1      -4.376 -10.400  13.248  0.00  0.00    -0.261 N 
ATOM      7  C   UNL     1      -4.760 -10.197  12.547  0.00  0.00    +0.119 C 
ATOM      8  C   UNL     1      -4.462 -10.203  11.777  0.00  0.00    +0.146 C 
ATOM     27  C   UNL     1      -4.828 -10.334  13.936  0.00  0.00    +0.328 C 
ATOM     28  O   UNL     1      -5.612 -10.079  13.891  0.00  0.00    -0.250 OA
ATOM     29  N   UNL     1      -4.497 -10.524  14.667  0.00  0.00    -0.162 NA
BRANCH  29  30
ATOM     30  C   UNL     1      -4.950 -10.459  15.353  0.00  0.00    +0.075 A 
ATOM     31  C   UNL     1      -5.710 -10.780  15.378  0.00  0.00    +0.017 A 
ATOM     32  C   UNL     1      -6.162 -10.714  16.066  0.00  0.00    +0.001 A 
ATOM     33  C   UNL     1      -5.856 -10.328  16.727  0.00  0.00    +0.000 A 
ATOM     34  C   UNL     1      -5.096 -10.007  16.702  0.00  0.00    +0.001 A 
ATOM     35  C   UNL     1      -4.643 -10.073  16.015  0.00  0.00    +0.017 A 
ENDBRANCH  29  30
ENDBRANCH   9   8
BRANCH  10  12
ATOM     12  C   UNL     1      -5.793  -8.955  10.579  0.00  0.00    +0.055 A 
ATOM     13  C   UNL     1      -6.583  -9.188  10.615  0.00  0.00    +0.008 A 
ATOM     14  C   UNL     1      -7.109  -8.953  10.025  0.00  0.00    +0.037 A 
ATOM     15  C   UNL     1      -6.846  -8.483   9.400  0.00  0.00    +0.139 A 
ATOM     25  C   UNL     1      -6.056  -8.249   9.365  0.00  0.00    +0.037 A 
ATOM     26  C   UNL     1      -5.529  -8.485   9.955  0.00  0.00    +0.008 A 
BRANCH  15  16
ATOM     16  O   UNL     1      -7.373  -8.247   8.811  0.00  0.00    -0.474 OA
BRANCH  16  17
ATOM     17  C   UNL     1      -7.837  -7.574   8.918  0.00  0.00    +0.223 C 
BRANCH  17  18
ATOM     18  C   UNL     1      -8.388  -7.357   8.343  0.00  0.00    +0.120 C 
BRANCH  18  19
ATOM     19  N   UNL     1      -8.904  -6.728   8.483  0.00  0.00    -0.265 NA
ATOM     20  C   UNL     1      -8.695  -5.964   8.252  0.00  0.00    +0.105 C 
ATOM     21  C   UNL     1      -9.210  -5.335   8.391  0.00  0.00    +0.159 C 
ATOM     22  O   UNL     1      -9.935  -5.470   8.761  0.00  0.00    -0.351 OA
ATOM     23  C   UNL     1     -10.144  -6.234   8.992  0.00  0.00    +0.159 C 
ATOM     24  C   UNL     1      -9.628  -6.863   8.853  0.00  0.00    +0.105 C 
ENDBRANCH  18  19
ENDBRANCH  17  18
ENDBRANCH  16  17
ENDBRANCH  15  16
ENDBRANCH  10  12
TORSDOF 7
ENDMDL
MODEL 6
REMARK VINA RESULT:      -6.6     14.955     17.125
REMARK  Name = 
REMARK  7 active torsions:
REMARK  status: ('A' for Active; 'I' for Inactive)
REMARK    1  A    between atoms: C_8  and  N_9
REMARK    2  A    between atoms: C_10  and  C_12
REMARK    3  A    between atoms: C_15  and  O_16
REMARK    4  A    between atoms: O_16  and  C_17
REMARK    5  A    between atoms: C_17  and  C_18
REMARK    6  A    between atoms: C_18  and  N_19
REMARK    7  A    between atoms: N_29  and  C_30
REMARK                            x       y       z     vdW  Elec       q    Type
REMARK                         _______ _______ _______ _____ _____    ______ ____
ROOT
ATOM      9  N   UNL     1      -4.064 -10.743  13.643  0.00  0.00    -0.199 NA
ATOM     10  C   UNL     1      -4.646 -10.175  13.781  0.00  0.00    +0.265 C 
ATOM     11  O   UNL     1      -4.675  -9.496  13.314  0.00  0.00    -0.268 OA
ENDROOT
BRANCH   9   8
ATOM      1  O   UNL     1      -2.586 -10.757  14.079  0.00  0.00    -0.221 OA
ATOM      2  C   UNL     1      -2.721 -10.640  13.273  0.00  0.00    +0.174 C 
ATOM      3  C   UNL     1      -2.047 -10.545  12.807  0.00  0.00    +0.037 C 
ATOM      4  C   UNL     1      -1.998 -10.420  11.993  0.00  0.00    +0.024 C 
ATOM      5  C   UNL     1      -2.610 -10.358  11.444  0.00  0.00    +0.095 C 
ATOM      6  N   UNL     1      -3.424 -10.406  11.574  0.00  0.00    -0.261 N 
ATOM      7  C   UNL     1      -3.825 -10.528  12.283  0.00  0.00    +0.119 C 
ATOM      8  C   UNL     1      -3.512 -10.632  13.040  0.00  0.00    +0.146 C 
ATOM     27  C   UNL     1      -3.898 -10.321  10.903  0.00  0.00    +0.328 C 
ATOM     28  O   UNL     1      -4.720 -10.361  10.972  0.00  0.00    -0.250 OA
ATOM     29  N   UNL     1      -3.552 -10.197  10.165  0.00  0.00    -0.162 NA
BRANCH  29  30
ATOM     30  C   UNL     1      -4.027 -10.112   9.497  0.00  0.00    +0.075 A 
ATOM     31  C   UNL     1      -4.289 -10.781   9.090  0.00  0.00    +0.017 A 
ATOM     32  C   UNL     1      -4.764 -10.696   8.421  0.00  0.00    +0.001 A 
ATOM     33  C   UNL     1      -4.977  -9.944   8.158  0.00  0.00    +0.000 A 
ATOM     34  C   UNL     1      -4.715  -9.275   8.564  0.00  0.00    +0.001 A 
ATOM     35  C   UNL     1      -4.239  -9.361   9.234  0.00  0.00    +0.017 A 
ENDBRANCH  29  30
ENDBRANCH   9   8
BRANCH  10  12
ATOM     12  C   UNL     1      -5.197 -10.286  14.384  0.00  0.00    +0.055 A 
ATOM     13  C   UNL     1      -4.949 -10.543  15.127  0.00  0.00    +0.008 A 
ATOM     14  C   UNL     1      -5.501 -10.654  15.730  0.00  0.00    +0.037 A 
ATOM     15  C   UNL     1      -6.301 -10.508  15.590  0.00  0.00    +0.139 A 
ATOM     25  C   UNL     1      -6.548 -10.252  14.847  0.00  0.00    +0.037 A 
ATOM     26  C   UNL     1      -5.997 -10.140  14.243  0.00  0.00    +0.008 A 
BRANCH  15  16
ATOM     16  O   UNL     1      -6.853 -10.619  16.194  0.00  0.00    -0.474 OA
BRANCH  16  17
ATOM     17  C   UNL     1      -7.408 -10.033  16.357  0.00  0.00    +0.223 C 
BRANCH  17  18
ATOM     18  C   UNL     1      -7.784 -10.013  17.091  0.00  0.00    +0.120 C 
BRANCH  18  19
ATOM     19  N   UNL     1      -8.503  -9.616  17.177  0.00  0.00    -0.265 NA
ATOM     20  C   UNL     1      -8.527  -8.793  17.134  0.00  0.00    +0.105 C 
ATOM     21  C   UNL     1      -9.245  -8.397  17.220  0.00  0.00    +0.159 C 
ATOM     22  O   UNL     1      -9.940  -8.824  17.348  0.00  0.00    -0.351 OA
ATOM     23  C   UNL     1      -9.915  -9.647  17.392  0.00  0.00    +0.159 C 
ATOM     24  C   UNL     1      -9.196 -10.044  17.306  0.00  0.00    +0.105 C 
ENDBRANCH  18  19
ENDBRANCH  17  18
ENDBRANCH  16  17
ENDBRANCH  15  16
ENDBRANCH  10  12
TORSDOF 7
ENDMDL
MODEL 7
REMARK VINA RESULT:      -6.4     15.227     16.693
REMARK  Name = 
REMARK  7 active torsions:
REMARK  status: ('A' for Active; 'I' for Inactive)
REMARK    1  A    between atoms: C_8  and  N_9
REMARK    2  A    between atoms: C_10  and  C_12
REMARK    3  A    between atoms: C_15  and  O_16
REMARK    4  A    between atoms: O_16  and  C_17
REMARK    5  A    between atoms: C_17  and  C_18
REMARK    6  A    between atoms: C_18  and  N_19
REMARK    7  A    between atoms: N_29  and  C_30
REMARK                            x       y       z     vdW  Elec       q    Type
REMARK                         _______ _______ _______ _____ _____    ______ ____
ROOT
ATOM      9  N   UNL     1      -5.933  -9.764  13.625  0.00  0.00    -0.199 NA
ATOM     10  C   UNL     1      -6.445 -10.131  13.094  0.00  0.00    +0.265 C 
ATOM     11  O   UNL     1      -6.899 -10.776  13.338  0.00  0.00    -0.268 OA
ENDROOT
BRANCH   9   8
ATOM      1  O   UNL     1      -4.598 -10.440  13.993  0.00  0.00    -0.221 OA
ATOM      2  C   UNL     1      -5.159 -10.403  14.597  0.00  0.00    +0.174 C 
ATOM      3  C   UNL     1      -4.931 -10.732  15.318  0.00  0.00    +0.037 C 
ATOM      4  C   UNL     1      -5.361 -10.781  16.020  0.00  0.00    +0.024 C 
ATOM      5  C   UNL     1      -6.126 -10.512  16.175  0.00  0.00    +0.095 C 
ATOM      6  N   UNL     1      -6.648 -10.129  15.666  0.00  0.00    -0.261 N 
ATOM      7  C   UNL     1      -6.537  -9.919  14.876  0.00  0.00    +0.119 C 
ATOM      8  C   UNL     1      -5.873 -10.041  14.400  0.00  0.00    +0.146 C 
ATOM     27  C   UNL     1      -7.381  -9.928  15.989  0.00  0.00    +0.328 C 
ATOM     28  O   UNL     1      -7.945  -9.543  15.526  0.00  0.00    -0.250 OA
ATOM     29  N   UNL     1      -7.550 -10.113  16.775  0.00  0.00    -0.162 NA
BRANCH  29  30
ATOM     30  C   UNL     1      -8.281  -9.913  17.098  0.00  0.00    +0.075 A 
ATOM     31  C   UNL     1      -8.425  -9.138  17.344  0.00  0.00    +0.017 A 
ATOM     32  C   UNL     1      -9.158  -8.938  17.667  0.00  0.00    +0.001 A 
ATOM     33  C   UNL     1      -9.746  -9.510  17.743  0.00  0.00    +0.000 A 
ATOM     34  C   UNL     1      -9.603 -10.285  17.497  0.00  0.00    +0.001 A 
ATOM     35  C   UNL     1      -8.870 -10.485  17.174  0.00  0.00    +0.017 A 
ENDBRANCH  29  30
ENDBRANCH   9   8
BRANCH  10  12
ATOM     12  C   UNL     1      -6.505  -9.855  12.319  0.00  0.00    +0.055 A 
ATOM     13  C   UNL     1      -6.248  -9.094  12.132  0.00  0.00    +0.008 A 
ATOM     14  C   UNL     1      -6.308  -8.817  11.357  0.00  0.00    +0.037 A 
ATOM     15  C   UNL     1      -6.624  -9.301  10.769  0.00  0.00    +0.139 A 
ATOM     25  C   UNL     1      -6.881 -10.062  10.957  0.00  0.00    +0.037 A 
ATOM     26  C   UNL     1      -6.821 -10.339  11.732  0.00  0.00    +0.008 A 
BRANCH  15  16
ATOM     16  O   UNL     1      -6.684  -9.025   9.994  0.00  0.00    -0.474 OA
BRANCH  16  17
ATOM     17  C   UNL     1      -7.339  -8.581   9.764  0.00  0.00    +0.223 C 
BRANCH  17  18
ATOM     18  C   UNL     1      -7.430  -8.359   8.975  0.00  0.00    +0.120 C 
BRANCH  18  19
ATOM     19  N   UNL     1      -7.936  -7.736   8.777  0.00  0.00    -0.265 NA
ATOM     20  C   UNL     1      -7.638  -7.068   8.396  0.00  0.00    +0.105 C 
ATOM     21  C   UNL     1      -8.142  -6.447   8.199  0.00  0.00    +0.159 C 
ATOM     22  O   UNL     1      -8.946  -6.493   8.382  0.00  0.00    -0.351 OA
ATOM     23  C   UNL     1      -9.244  -7.161   8.763  0.00  0.00    +0.159 C 
ATOM     24  C   UNL     1      -8.738  -7.783   8.961  0.00  0.00    +0.105 C 
ENDBRANCH  18  19
ENDBRANCH  17  18
ENDBRANCH  16  17
ENDBRANCH  15  16
ENDBRANCH  10  12
TORSDOF 7
ENDMDL
