MODEL 1
REMARK VINA RESULT:     -13.0      0.000      0.000
REMARK  Name = 
REMARK  7 active torsions:
REMARK  status: ('A' for Active; 'I' for Inactive)
REMARK    1  A    between atoms: C_2  and  C_3
REMARK    2  A    between atoms: C_2  and  C_26
REMARK    3  A    between atoms: C_10  and  N_11
REMARK    4  A    between atoms: C_12  and  C_14
REMARK    5  A    between atoms: C_14  and  C_15
REMARK    6  A    between atoms: N_28  and  C_29
REMARK    7  A    between atoms: C_29  and  C_30
REMARK                            x       y       z     vdW  Elec       q    Type
REMARK                         _______ _______ _______ _____ _____    ______ ____
ROOT
ATOM      3  C   UNL     1      -3.939   3.281  24.893  0.00  0.00    +0.039 C 
ATOM      4  C   UNL     1      -4.561   3.330  25.434  0.00  0.00    +0.003 C 
ATOM      5  C   UNL     1      -5.038   2.673  25.574  0.00  0.00    +0.000 C 
ATOM      6  C   UNL     1      -4.895   1.966  25.174  0.00  0.00    +0.002 C 
ATOM      7  C   UNL     1      -5.515   2.015  25.714  0.00  0.00    +0.000 C 
ATOM      8  C   UNL     1      -5.372   1.308  25.314  0.00  0.00    +0.002 C 
ATOM      9  C   UNL     1      -5.229   0.602  24.913  0.00  0.00    +0.022 C 
ATOM     10  C   UNL     1      -4.607   0.553  24.372  0.00  0.00    +0.095 C 
ATOM     21  C   UNL     1      -4.130   1.210  24.232  0.00  0.00    +0.022 C 
ATOM     22  C   UNL     1      -3.509   1.162  23.691  0.00  0.00    +0.002 C 
ATOM     23  C   UNL     1      -4.273   1.918  24.632  0.00  0.00    +0.032 C 
ATOM     24  C   UNL     1      -3.796   2.575  24.493  0.00  0.00    +0.152 C 
ATOM     25  O   UNL     1      -3.175   2.526  23.952  0.00  0.00    -0.223 OA
ENDROOT
BRANCH  10  11
ATOM     11  N   UNL     1      -4.464  -0.154  23.971  0.00  0.00    -0.207 NA
ATOM     12  C   UNL     1      -4.306  -0.844  24.395  0.00  0.00    +0.246 C 
ATOM     13  O   UNL     1      -4.290  -0.827  25.220  0.00  0.00    -0.273 OA
BRANCH  12  14
ATOM     14  C   UNL     1      -4.163  -1.551  23.994  0.00  0.00    +0.113 C 
BRANCH  14  15
ATOM     15  C   UNL     1      -3.570  -2.061  24.255  0.00  0.00    -0.013 A 
ATOM     16  C   UNL     1      -2.777  -1.885  24.105  0.00  0.00    -0.004 A 
ATOM     17  C   UNL     1      -2.185  -2.396  24.366  0.00  0.00    -0.000 A 
ATOM     18  C   UNL     1      -2.383  -3.082  24.778  0.00  0.00    -0.000 A 
ATOM     19  C   UNL     1      -3.176  -3.258  24.929  0.00  0.00    -0.000 A 
ATOM     20  C   UNL     1      -3.768  -2.748  24.668  0.00  0.00    -0.004 A 
ENDBRANCH  14  15
ENDBRANCH  12  14
ENDBRANCH  10  11
BRANCH   3   2
ATOM      1  C   UNL     1      -3.598   4.417  24.094  0.00  0.00    +0.010 C 
ATOM      2  C   UNL     1      -3.462   3.940  24.753  0.00  0.00    +0.081 C 
BRANCH   2  26
ATOM     26  C   UNL     1      -2.847   4.121  25.273  0.00  0.00    +0.241 C 
ATOM     27  O   UNL     1      -2.977   4.641  25.901  0.00  0.00    -0.273 OA
ATOM     28  N   UNL     1      -2.102   3.782  25.166  0.00  0.00    -0.197 NA
BRANCH  28  29
ATOM     29  C   UNL     1      -1.488   3.962  25.685  0.00  0.00    +0.179 C 
BRANCH  29  30
ATOM     30  C   UNL     1      -0.862   3.435  25.784  0.00  0.00    +0.145 A 
ATOM     31  C   UNL     1      -0.214   3.350  25.280  0.00  0.00    +0.038 A 
ATOM     32  C   UNL     1       0.274   2.761  25.590  0.00  0.00    +0.043 A 
ATOM     33  C   UNL     1      -0.072   2.483  26.286  0.00  0.00    +0.179 A 
ATOM     34  O   UNL     1      -0.774   2.899  26.406  0.00  0.00    -0.453 OA
ENDBRANCH  29  30
ENDBRANCH  28  29
ENDBRANCH   2  26
ENDBRANCH   3   2
TORSDOF 7
ENDMDL
MODEL 2
REMARK VINA RESULT:     -12.3      1.760      3.613
REMARK  Name = 
REMARK  7 active torsions:
REMARK  status: ('A' for Active; 'I' for Inactive)
REMARK    1  A    between atoms: C_2  and  C_3
REMARK    2  A    between atoms: C_2  and  C_26
REMARK    3  A    between atoms: C_10  and  N_11
REMARK    4  A    between atoms: C_12  and  C_14
REMARK    5  A    between atoms: C_14  and  C_15
REMARK    6  A    between atoms: N_28  and  C_29
REMARK    7  A    between atoms: C_29  and  C_30
REMARK                            x       y       z     vdW  Elec       q    Type
REMARK                         _______ _______ _______ _____ _____    ______ ____
ROOT
ATOM      3  C   UNL     1      -0.274   2.288  25.202  0.00  0.00    +0.039 C 
ATOM      4  C   UNL     1       0.169   2.360  24.508  0.00  0.00    +0.003 C 
ATOM      5  C   UNL     1       0.308   1.697  24.038  0.00  0.00    +0.000 C 
ATOM      6  C   UNL     1       0.005   0.963  24.260  0.00  0.00    +0.002 C 
ATOM      7  C   UNL     1       0.447   1.034  23.569  0.00  0.00    +0.000 C 
ATOM      8  C   UNL     1       0.144   0.299  23.790  0.00  0.00    +0.002 C 
ATOM      9  C   UNL     1      -0.159  -0.435  24.012  0.00  0.00    +0.022 C 
ATOM     10  C   UNL     1      -0.603  -0.506  24.705  0.00  0.00    +0.095 C 
ATOM     21  C   UNL     1      -0.742   0.157  25.175  0.00  0.00    +0.022 C 
ATOM     22  C   UNL     1      -1.185   0.086  25.867  0.00  0.00    +0.002 C 
ATOM     23  C   UNL     1      -0.439   0.892  24.953  0.00  0.00    +0.032 C 
ATOM     24  C   UNL     1      -0.578   1.555  25.423  0.00  0.00    +0.152 C 
ATOM     25  O   UNL     1      -1.021   1.484  26.116  0.00  0.00    -0.223 OA
ENDROOT
BRANCH  10  11
ATOM     11  N   UNL     1      -0.906  -1.241  24.926  0.00  0.00    -0.207 NA
ATOM     12  C   UNL     1      -1.319  -1.699  24.379  0.00  0.00    +0.246 C 
ATOM     13  O   UNL     1      -1.429  -1.423  23.609  0.00  0.00    -0.273 OA
BRANCH  12  14
ATOM     14  C   UNL     1      -1.622  -2.434  24.601  0.00  0.00    +0.113 C 
BRANCH  14  15
ATOM     15  C   UNL     1      -2.434  -2.572  24.568  0.00  0.00    -0.013 A 
ATOM     16  C   UNL     1      -2.788  -2.786  23.854  0.00  0.00    -0.004 A 
ATOM     17  C   UNL     1      -3.601  -2.924  23.822  0.00  0.00    -0.000 A 
ATOM     18  C   UNL     1      -4.060  -2.849  24.503  0.00  0.00    -0.000 A 
ATOM     19  C   UNL     1      -3.705  -2.635  25.218  0.00  0.00    -0.000 A 
ATOM     20  C   UNL     1      -2.893  -2.497  25.250  0.00  0.00    -0.004 A 
ENDBRANCH  14  15
ENDBRANCH  12  14
ENDBRANCH  10  11
BRANCH   3   2
ATOM      1  C   UNL     1      -0.043   3.025  26.405  0.00  0.00    +0.010 C 
ATOM      2  C   UNL     1      -0.414   2.952  25.672  0.00  0.00    +0.081 C 
BRANCH   2  26
ATOM     26  C   UNL     1      -0.924   3.544  25.408  0.00  0.00    +0.241 C 
ATOM     27  O   UNL     1      -0.625   4.194  24.996  0.00  0.00    -0.273 OA
ATOM     28  N   UNL     1      -1.734   3.487  25.556  0.00  0.00    -0.197 NA
BRANCH  28  29
ATOM     29  C   UNL     1      -2.245   4.078  25.293  0.00  0.00    +0.179 C 
BRANCH  29  30
ATOM     30  C   UNL     1      -3.059   3.950  25.292  0.00  0.00    +0.145 A 
ATOM     31  C   UNL     1      -3.530   3.817  24.627  0.00  0.00    +0.038 A 
ATOM     32  C   UNL     1      -4.308   3.718  24.882  0.00  0.00    +0.043 A 
ATOM     33  C   UNL     1      -4.319   3.790  25.704  0.00  0.00    +0.179 A 
ATOM     34  O   UNL     1      -3.547   3.933  25.958  0.00  0.00    -0.453 OA
ENDBRANCH  29  30
ENDBRANCH  28  29
ENDBRANCH   2  26
ENDBRANCH   3   2
TORSDOF 7
ENDMDL
MODEL 3
REMARK VINA RESULT:     -12.3      3.029      5.097
REMARK  Name = 
REMARK  7 active torsions:
REMARK  status: ('A' for Active; 'I' for Inactive)
REMARK    1  A    between atoms: C_2  and  C_3
REMARK    2  A    between atoms: C_2  and  C_26
REMARK    3  A    between atoms: C_10  and  N_11
REMARK    4  A    between atoms: C_12  and  C_14
REMARK    5  A    between atoms: C_14  and  C_15
REMARK    6  A    between atoms: N_28  and  C_29
REMARK    7  A    between atoms: C_29  and  C_30
REMARK                            x       y       z     vdW  Elec       q    Type
REMARK                         _______ _______ _______ _____ _____    ______ ____
ROOT
ATOM      3  C   UNL     1       0.070   0.808  23.888  0.00  0.00    +0.039 C 
ATOM      4  C   UNL     1       0.528   1.370  24.284  0.00  0.00    +0.003 C 
ATOM      5  C   UNL     1       0.187   2.079  24.532  0.00  0.00    +0.000 C 
ATOM      6  C   UNL     1      -0.611   2.226  24.384  0.00  0.00    +0.002 C 
ATOM      7  C   UNL     1      -0.154   2.787  24.779  0.00  0.00    +0.000 C 
ATOM      8  C   UNL     1      -0.952   2.935  24.632  0.00  0.00    +0.002 C 
ATOM      9  C   UNL     1      -1.750   3.083  24.484  0.00  0.00    +0.022 C 
ATOM     10  C   UNL     1      -2.208   2.521  24.089  0.00  0.00    +0.095 C 
ATOM     21  C   UNL     1      -1.867   1.812  23.841  0.00  0.00    +0.022 C 
ATOM     22  C   UNL     1      -2.324   1.251  23.446  0.00  0.00    +0.002 C 
ATOM     23  C   UNL     1      -1.068   1.664  23.988  0.00  0.00    +0.032 C 
ATOM     24  C   UNL     1      -0.727   0.956  23.741  0.00  0.00    +0.152 C 
ATOM     25  O   UNL     1      -1.185   0.394  23.345  0.00  0.00    -0.223 OA
ENDROOT
BRANCH  10  11
ATOM     11  N   UNL     1      -3.006   2.669  23.941  0.00  0.00    -0.207 NA
ATOM     12  C   UNL     1      -3.475   3.019  24.522  0.00  0.00    +0.246 C 
ATOM     13  O   UNL     1      -3.146   3.221  25.252  0.00  0.00    -0.273 OA
BRANCH  12  14
ATOM     14  C   UNL     1      -4.273   3.167  24.375  0.00  0.00    +0.113 C 
BRANCH  14  15
ATOM     15  C   UNL     1      -4.852   2.821  24.849  0.00  0.00    -0.013 A 
ATOM     16  C   UNL     1      -5.231   2.131  24.601  0.00  0.00    -0.004 A 
ATOM     17  C   UNL     1      -5.810   1.785  25.077  0.00  0.00    -0.000 A 
ATOM     18  C   UNL     1      -6.011   2.129  25.799  0.00  0.00    -0.000 A 
ATOM     19  C   UNL     1      -5.632   2.819  26.047  0.00  0.00    -0.000 A 
ATOM     20  C   UNL     1      -5.053   3.165  25.572  0.00  0.00    -0.004 A 
ENDBRANCH  14  15
ENDBRANCH  12  14
ENDBRANCH  10  11
BRANCH   3   2
ATOM      1  C   UNL     1       0.205  -0.611  24.008  0.00  0.00    +0.010 C 
ATOM      2  C   UNL     1       0.412   0.099  23.641  0.00  0.00    +0.081 C 
BRANCH   2  26
ATOM     26  C   UNL     1       0.961   0.099  23.025  0.00  0.00    +0.241 C 
ATOM     27  O   UNL     1       0.703   0.052  22.242  0.00  0.00    -0.273 OA
ATOM     28  N   UNL     1       1.768   0.146  23.191  0.00  0.00    -0.197 NA
BRANCH  28  29
ATOM     29  C   UNL     1       2.317   0.146  22.576  0.00  0.00    +0.179 C 
BRANCH  29  30
ATOM     30  C   UNL     1       3.120   0.239  22.739  0.00  0.00    +0.145 A 
ATOM     31  C   UNL     1       3.568   0.918  22.602  0.00  0.00    +0.038 A 
ATOM     32  C   UNL     1       4.341   0.766  22.846  0.00  0.00    +0.043 A 
ATOM     33  C   UNL     1       4.371  -0.007  23.134  0.00  0.00    +0.179 A 
ATOM     34  O   UNL     1       3.616  -0.333  23.068  0.00  0.00    -0.453 OA
ENDBRANCH  29  30
ENDBRANCH  28  29
ENDBRANCH   2  26
ENDBRANCH   3   2
TORSDOF 7
ENDMDL
MODEL 4
REMARK VINA RESULT:     -12.0      1.461      3.181
REMARK  Name = 
REMARK  7 active torsions:
REMARK  status: ('A' for Active; 'I' for Inactive)
REMARK    1  A    between atoms: C_2  and  C_3
REMARK    2  A    between atoms: C_2  and  C_26
REMARK    3  A    between atoms: C_10  and  N_11
REMARK    4  A    between atoms: C_12  and  C_14
REMARK    5  A    between atoms: C_14  and  C_15
REMARK    6  A    between atoms: N_28  and  C_29
REMARK    7  A    between atoms: C_29  and  C_30
REMARK                            x       y       z     vdW  Elec       q    Type
REMARK                         _______ _______ _______ _____ _____    ______ ____
ROOT
ATOM      3  C   UNL     1      -1.557   3.185  25.223  0.00  0.00    +0.039 C 
ATOM      4  C   UNL     1      -1.019   3.151  25.849  0.00  0.00    +0.003 C 
ATOM      5  C   UNL     1      -0.654   2.437  26.039  0.00  0.00    +0.000 C 
ATOM      6  C   UNL     1      -0.825   1.757  25.605  0.00  0.00    +0.002 C 
ATOM      7  C   UNL     1      -0.288   1.723  26.229  0.00  0.00    +0.000 C 
ATOM      8  C   UNL     1      -0.459   1.043  25.795  0.00  0.00    +0.002 C 
ATOM      9  C   UNL     1      -0.631   0.363  25.361  0.00  0.00    +0.022 C 
ATOM     10  C   UNL     1      -1.169   0.397  24.735  0.00  0.00    +0.095 C 
ATOM     21  C   UNL     1      -1.534   1.111  24.545  0.00  0.00    +0.022 C 
ATOM     22  C   UNL     1      -2.072   1.146  23.920  0.00  0.00    +0.002 C 
ATOM     23  C   UNL     1      -1.363   1.792  24.979  0.00  0.00    +0.032 C 
ATOM     24  C   UNL     1      -1.729   2.506  24.789  0.00  0.00    +0.152 C 
ATOM     25  O   UNL     1      -2.266   2.540  24.164  0.00  0.00    -0.223 OA
ENDROOT
BRANCH  10  11
ATOM     11  N   UNL     1      -1.340  -0.283  24.301  0.00  0.00    -0.207 NA
ATOM     12  C   UNL     1      -1.563  -0.976  24.689  0.00  0.00    +0.246 C 
ATOM     13  O   UNL     1      -1.615  -0.988  25.514  0.00  0.00    -0.273 OA
BRANCH  12  14
ATOM     14  C   UNL     1      -1.734  -1.656  24.255  0.00  0.00    +0.113 C 
BRANCH  14  15
ATOM     15  C   UNL     1      -2.458  -2.038  24.354  0.00  0.00    -0.013 A 
ATOM     16  C   UNL     1      -3.113  -1.802  23.909  0.00  0.00    -0.004 A 
ATOM     17  C   UNL     1      -3.837  -2.184  24.009  0.00  0.00    -0.000 A 
ATOM     18  C   UNL     1      -3.908  -2.801  24.551  0.00  0.00    -0.000 A 
ATOM     19  C   UNL     1      -3.253  -3.037  24.995  0.00  0.00    -0.000 A 
ATOM     20  C   UNL     1      -2.529  -2.655  24.897  0.00  0.00    -0.004 A 
ENDBRANCH  14  15
ENDBRANCH  12  14
ENDBRANCH  10  11
BRANCH   3   2
ATOM      1  C   UNL     1      -1.645   4.352  24.400  0.00  0.00    +0.010 C 
ATOM      2  C   UNL     1      -1.923   3.900  25.033  0.00  0.00    +0.081 C 
BRANCH   2  26
ATOM     26  C   UNL     1      -2.567   4.164  25.476  0.00  0.00    +0.241 C 
ATOM     27  O   UNL     1      -2.460   4.737  26.060  0.00  0.00    -0.273 OA
ATOM     28  N   UNL     1      -3.320   3.855  25.334  0.00  0.00    -0.197 NA
BRANCH  28  29
ATOM     29  C   UNL     1      -3.963   4.119  25.777  0.00  0.00    +0.179 C 
BRANCH  29  30
ATOM     30  C   UNL     1      -4.673   3.698  25.764  0.00  0.00    +0.145 A 
ATOM     31  C   UNL     1      -5.344   3.892  25.325  0.00  0.00    +0.038 A 
ATOM     32  C   UNL     1      -5.922   3.323  25.479  0.00  0.00    +0.043 A 
ATOM     33  C   UNL     1      -5.607   2.778  26.013  0.00  0.00    +0.179 A 
ATOM     34  O   UNL     1      -4.835   3.009  26.189  0.00  0.00    -0.453 OA
ENDBRANCH  29  30
ENDBRANCH  28  29
ENDBRANCH   2  26
ENDBRANCH   3   2
TORSDOF 7
ENDMDL
MODEL 5
REMARK VINA RESULT:     -11.9      1.378      4.908
REMARK  Name = 
REMARK  7 active torsions:
REMARK  status: ('A' for Active; 'I' for Inactive)
REMARK    1  A    between atoms: C_2  and  C_3
REMARK    2  A    between atoms: C_2  and  C_26
REMARK    3  A    between atoms: C_10  and  N_11
REMARK    4  A    between atoms: C_12  and  C_14
REMARK    5  A    between atoms: C_14  and  C_15
REMARK    6  A    between atoms: N_28  and  C_29
REMARK    7  A    between atoms: C_29  and  C_30
REMARK                            x       y       z     vdW  Elec       q    Type
REMARK                         _______ _______ _______ _____ _____    ______ ____
ROOT
ATOM      3  C   UNL     1      -4.239  -0.375  24.407  0.00  0.00    +0.039 C 
ATOM      4  C   UNL     1      -4.814  -0.324  24.997  0.00  0.00    +0.003 C 
ATOM      5  C   UNL     1      -5.035   0.412  25.294  0.00  0.00    +0.000 C 
ATOM      6  C   UNL     1      -4.683   1.098  25.002  0.00  0.00    +0.002 C 
ATOM      7  C   UNL     1      -5.256   1.149  25.591  0.00  0.00    +0.000 C 
ATOM      8  C   UNL     1      -4.904   1.835  25.298  0.00  0.00    +0.002 C 
ATOM      9  C   UNL     1      -4.552   2.521  25.006  0.00  0.00    +0.022 C 
ATOM     10  C   UNL     1      -3.977   2.470  24.415  0.00  0.00    +0.095 C 
ATOM     21  C   UNL     1      -3.756   1.733  24.118  0.00  0.00    +0.022 C 
ATOM     22  C   UNL     1      -3.181   1.682  23.528  0.00  0.00    +0.002 C 
ATOM     23  C   UNL     1      -4.108   1.047  24.411  0.00  0.00    +0.032 C 
ATOM     24  C   UNL     1      -3.887   0.310  24.114  0.00  0.00    +0.152 C 
ATOM     25  O   UNL     1      -3.312   0.259  23.524  0.00  0.00    -0.223 OA
ENDROOT
BRANCH  10  11
ATOM     11  N   UNL     1      -3.625   3.156  24.122  0.00  0.00    -0.207 NA
ATOM     12  C   UNL     1      -3.275   3.694  24.640  0.00  0.00    +0.246 C 
ATOM     13  O   UNL     1      -3.277   3.545  25.453  0.00  0.00    -0.273 OA
BRANCH  12  14
ATOM     14  C   UNL     1      -2.922   4.380  24.348  0.00  0.00    +0.113 C 
BRANCH  14  15
ATOM     15  C   UNL     1      -2.155   4.579  24.574  0.00  0.00    -0.013 A 
ATOM     16  C   UNL     1      -1.517   4.122  24.318  0.00  0.00    -0.004 A 
ATOM     17  C   UNL     1      -0.749   4.322  24.546  0.00  0.00    -0.000 A 
ATOM     18  C   UNL     1      -0.619   4.978  25.028  0.00  0.00    -0.000 A 
ATOM     19  C   UNL     1      -1.257   5.435  25.284  0.00  0.00    -0.000 A 
ATOM     20  C   UNL     1      -2.024   5.236  25.057  0.00  0.00    -0.004 A 
ENDBRANCH  14  15
ENDBRANCH  12  14
ENDBRANCH  10  11
BRANCH   3   2
ATOM      1  C   UNL     1      -4.297  -1.364  23.375  0.00  0.00    +0.010 C 
ATOM      2  C   UNL     1      -4.018  -1.113  24.110  0.00  0.00    +0.081 C 
BRANCH   2  26
ATOM     26  C   UNL     1      -3.517  -1.600  24.548  0.00  0.00    +0.241 C 
ATOM     27  O   UNL     1      -3.832  -2.127  25.100  0.00  0.00    -0.273 OA
ATOM     28  N   UNL     1      -2.700  -1.560  24.436  0.00  0.00    -0.197 NA
BRANCH  28  29
ATOM     29  C   UNL     1      -2.199  -2.046  24.874  0.00  0.00    +0.179 C 
BRANCH  29  30
ATOM     30  C   UNL     1      -1.399  -1.859  24.944  0.00  0.00    +0.145 A 
ATOM     31  C   UNL     1      -1.028  -1.559  25.618  0.00  0.00    +0.038 A 
ATOM     32  C   UNL     1      -0.229  -1.454  25.443  0.00  0.00    +0.043 A 
ATOM     33  C   UNL     1      -0.105  -1.688  24.661  0.00  0.00    +0.179 A 
ATOM     34  O   UNL     1      -0.829  -1.938  24.353  0.00  0.00    -0.453 OA
ENDBRANCH  29  30
ENDBRANCH  28  29
ENDBRANCH   2  26
ENDBRANCH   3   2
TORSDOF 7
ENDMDL
MODEL 6
REMARK VINA RESULT:     -11.6      2.026      6.224
REMARK  Name = 
REMARK  7 active torsions:
REMARK  status: ('A' for Active; 'I' for Inactive)
REMARK    1  A    between atoms: C_2  and  C_3
REMARK    2  A    between atoms: C_2  and  C_26
REMARK    3  A    between atoms: C_10  and  N_11
REMARK    4  A    between atoms: C_12  and  C_14
REMARK    5  A    between atoms: C_14  and  C_15
REMARK    6  A    between atoms: N_28  and  C_29
REMARK    7  A    between atoms: C_29  and  C_30
REMARK                            x       y       z     vdW  Elec       q    Type
REMARK                         _______ _______ _______ _____ _____    ______ ____
ROOT
ATOM      3  C   UNL     1      -0.556  -1.006  24.667  0.00  0.00    +0.039 C 
ATOM      4  C   UNL     1      -0.206  -1.003  23.918  0.00  0.00    +0.003 C 
ATOM      5  C   UNL     1       0.081  -0.299  23.601  0.00  0.00    +0.000 C 
ATOM      6  C   UNL     1       0.019   0.403  24.030  0.00  0.00    +0.002 C 
ATOM      7  C   UNL     1       0.368   0.406  23.283  0.00  0.00    +0.000 C 
ATOM      8  C   UNL     1       0.306   1.108  23.712  0.00  0.00    +0.002 C 
ATOM      9  C   UNL     1       0.244   1.809  24.141  0.00  0.00    +0.022 C 
ATOM     10  C   UNL     1      -0.106   1.806  24.889  0.00  0.00    +0.095 C 
ATOM     21  C   UNL     1      -0.393   1.102  25.207  0.00  0.00    +0.022 C 
ATOM     22  C   UNL     1      -0.742   1.098  25.954  0.00  0.00    +0.002 C 
ATOM     23  C   UNL     1      -0.331   0.399  24.778  0.00  0.00    +0.032 C 
ATOM     24  C   UNL     1      -0.618  -0.305  25.095  0.00  0.00    +0.152 C 
ATOM     25  O   UNL     1      -0.968  -0.308  25.843  0.00  0.00    -0.223 OA
ENDROOT
BRANCH  10  11
ATOM     11  N   UNL     1      -0.168   2.508  25.318  0.00  0.00    -0.207 NA
ATOM     12  C   UNL     1      -0.403   3.203  24.942  0.00  0.00    +0.246 C 
ATOM     13  O   UNL     1      -0.578   3.196  24.135  0.00  0.00    -0.273 OA
BRANCH  12  14
ATOM     14  C   UNL     1      -0.465   3.905  25.371  0.00  0.00    +0.113 C 
BRANCH  14  15
ATOM     15  C   UNL     1      -1.161   4.347  25.342  0.00  0.00    -0.013 A 
ATOM     16  C   UNL     1      -1.849   4.057  25.695  0.00  0.00    -0.004 A 
ATOM     17  C   UNL     1      -2.545   4.499  25.666  0.00  0.00    -0.000 A 
ATOM     18  C   UNL     1      -2.554   5.230  25.285  0.00  0.00    -0.000 A 
ATOM     19  C   UNL     1      -1.866   5.520  24.932  0.00  0.00    -0.000 A 
ATOM     20  C   UNL     1      -1.170   5.079  24.961  0.00  0.00    -0.004 A 
ENDBRANCH  14  15
ENDBRANCH  12  14
ENDBRANCH  10  11
BRANCH   3   2
ATOM      1  C   UNL     1      -0.542  -1.998  25.697  0.00  0.00    +0.010 C 
ATOM      2  C   UNL     1      -0.843  -1.712  24.984  0.00  0.00    +0.081 C 
BRANCH   2  26
ATOM     26  C   UNL     1      -1.433  -2.132  24.588  0.00  0.00    +0.241 C 
ATOM     27  O   UNL     1      -1.229  -2.740  24.068  0.00  0.00    -0.273 OA
ATOM     28  N   UNL     1      -2.228  -1.943  24.712  0.00  0.00    -0.197 NA
BRANCH  28  29
ATOM     29  C   UNL     1      -2.817  -2.363  24.316  0.00  0.00    +0.179 C 
BRANCH  29  30
ATOM     30  C   UNL     1      -3.558  -2.020  24.197  0.00  0.00    +0.145 A 
ATOM     31  C   UNL     1      -4.191  -2.362  23.792  0.00  0.00    +0.038 A 
ATOM     32  C   UNL     1      -4.820  -1.829  23.806  0.00  0.00    +0.043 A 
ATOM     33  C   UNL     1      -4.575  -1.157  24.219  0.00  0.00    +0.179 A 
ATOM     34  O   UNL     1      -3.795  -1.275  24.460  0.00  0.00    -0.453 OA
ENDBRANCH  29  30
ENDBRANCH  28  29
ENDBRANCH   2  26
ENDBRANCH   3   2
TORSDOF 7
ENDMDL
MODEL 7
REMARK VINA RESULT:     -11.4      3.300      5.689
REMARK  Name = 
REMARK  7 active torsions:
REMARK  status: ('A' for Active; 'I' for Inactive)
REMARK    1  A    between atoms: C_2  and  C_3
REMARK    2  A    between atoms: C_2  and  C_26
REMARK    3  A    between atoms: C_10  and  N_11
REMARK    4  A    between atoms: C_12  and  C_14
REMARK    5  A    between atoms: C_14  and  C_15
REMARK    6  A    between atoms: N_28  and  C_29
REMARK    7  A    between atoms: C_29  and  C_30
REMARK                            x       y       z     vdW  Elec       q    Type
REMARK                         _______ _______ _______ _____ _____    ______ ____
ROOT
ATOM      3  C   UNL     1      -1.690   0.490  24.846  0.00  0.00    +0.039 C 
ATOM      4  C   UNL     1      -1.605   1.277  25.082  0.00  0.00    +0.003 C 
ATOM      5  C   UNL     1      -0.928   1.699  24.872  0.00  0.00    +0.000 C 
ATOM      6  C   UNL     1      -0.337   1.336  24.427  0.00  0.00    +0.002 C 
ATOM      7  C   UNL     1      -0.252   2.121  24.663  0.00  0.00    +0.000 C 
ATOM      8  C   UNL     1       0.341   1.757  24.218  0.00  0.00    +0.002 C 
ATOM      9  C   UNL     1       0.932   1.394  23.773  0.00  0.00    +0.022 C 
ATOM     10  C   UNL     1       0.846   0.607  23.537  0.00  0.00    +0.095 C 
ATOM     21  C   UNL     1       0.170   0.185  23.746  0.00  0.00    +0.022 C 
ATOM     22  C   UNL     1       0.084  -0.600  23.510  0.00  0.00    +0.002 C 
ATOM     23  C   UNL     1      -0.422   0.549  24.191  0.00  0.00    +0.032 C 
ATOM     24  C   UNL     1      -1.099   0.127  24.401  0.00  0.00    +0.152 C 
ATOM     25  O   UNL     1      -1.185  -0.659  24.165  0.00  0.00    -0.223 OA
ENDROOT
BRANCH  10  11
ATOM     11  N   UNL     1       1.439   0.244  23.091  0.00  0.00    -0.207 NA
ATOM     12  C   UNL     1       2.187   0.587  23.041  0.00  0.00    +0.246 C 
ATOM     13  O   UNL     1       2.344   1.294  23.438  0.00  0.00    -0.273 OA
BRANCH  12  14
ATOM     14  C   UNL     1       2.779   0.223  22.596  0.00  0.00    +0.113 C 
BRANCH  14  15
ATOM     15  C   UNL     1       3.545   0.167  22.895  0.00  0.00    -0.013 A 
ATOM     16  C   UNL     1       3.784  -0.516  23.293  0.00  0.00    -0.004 A 
ATOM     17  C   UNL     1       4.551  -0.571  23.592  0.00  0.00    -0.000 A 
ATOM     18  C   UNL     1       5.079   0.054  23.495  0.00  0.00    -0.000 A 
ATOM     19  C   UNL     1       4.840   0.738  23.097  0.00  0.00    -0.000 A 
ATOM     20  C   UNL     1       4.074   0.794  22.798  0.00  0.00    -0.004 A 
ENDBRANCH  14  15
ENDBRANCH  12  14
ENDBRANCH  10  11
BRANCH   3   2
ATOM      1  C   UNL     1      -2.330  -0.511  25.642  0.00  0.00    +0.010 C 
ATOM      2  C   UNL     1      -2.368   0.068  25.055  0.00  0.00    +0.081 C 
BRANCH   2  26
ATOM     26  C   UNL     1      -3.085   0.226  24.679  0.00  0.00    +0.241 C 
ATOM     27  O   UNL     1      -3.252  -0.119  23.948  0.00  0.00    -0.273 OA
ATOM     28  N   UNL     1      -3.635   0.731  25.032  0.00  0.00    -0.197 NA
BRANCH  28  29
ATOM     29  C   UNL     1      -4.351   0.888  24.656  0.00  0.00    +0.179 C 
BRANCH  29  30
ATOM     30  C   UNL     1      -4.872   1.442  24.975  0.00  0.00    +0.145 A 
ATOM     31  C   UNL     1      -5.011   2.202  24.684  0.00  0.00    +0.038 A 
ATOM     32  C   UNL     1      -5.571   2.562  25.172  0.00  0.00    +0.043 A 
ATOM     33  C   UNL     1      -5.778   2.025  25.764  0.00  0.00    +0.179 A 
ATOM     34  O   UNL     1      -5.346   1.333  25.642  0.00  0.00    -0.453 OA
ENDBRANCH  29  30
ENDBRANCH  28  29
ENDBRANCH   2  26
ENDBRANCH   3   2
TORSDOF 7
ENDMDL
MODEL 8
REMARK VINA RESULT:     -11.3      1.909      5.266
REMARK  Name = 
REMARK  7 active torsions:
REMARK  status: ('A' for Active; 'I' for Inactive)
REMARK    1  A    between atoms: C_2  and  C_3
REMARK    2  A    between atoms: C_2  and  C_26
REMARK    3  A    between atoms: C_10  and  N_11
REMARK    4  A    between atoms: C_12  and  C_14
REMARK    5  A    between atoms: C_14  and  C_15
REMARK    6  A    between atoms: N_28  and  C_29
REMARK    7  A    between atoms: C_29  and  C_30
REMARK                            x       y       z     vdW  Elec       q    Type
REMARK                         _______ _______ _______ _____ _____    ______ ____
ROOT
ATOM      3  C   UNL     1      -0.319   0.600  24.217  0.00  0.00    +0.039 C 
ATOM      4  C   UNL     1       0.215   0.950  24.740  0.00  0.00    +0.003 C 
ATOM      5  C   UNL     1       0.043   1.683  25.075  0.00  0.00    +0.000 C 
ATOM      6  C   UNL     1      -0.662   2.067  24.889  0.00  0.00    +0.002 C 
ATOM      7  C   UNL     1      -0.129   2.416  25.411  0.00  0.00    +0.000 C 
ATOM      8  C   UNL     1      -0.834   2.801  25.224  0.00  0.00    +0.002 C 
ATOM      9  C   UNL     1      -1.540   3.185  25.037  0.00  0.00    +0.022 C 
ATOM     10  C   UNL     1      -2.074   2.834  24.514  0.00  0.00    +0.095 C 
ATOM     21  C   UNL     1      -1.902   2.101  24.179  0.00  0.00    +0.022 C 
ATOM     22  C   UNL     1      -2.436   1.751  23.656  0.00  0.00    +0.002 C 
ATOM     23  C   UNL     1      -1.196   1.717  24.366  0.00  0.00    +0.032 C 
ATOM     24  C   UNL     1      -1.024   0.983  24.030  0.00  0.00    +0.152 C 
ATOM     25  O   UNL     1      -1.558   0.633  23.508  0.00  0.00    -0.223 OA
ENDROOT
BRANCH  10  11
ATOM     11  N   UNL     1      -2.780   3.219  24.327  0.00  0.00    -0.207 NA
ATOM     12  C   UNL     1      -3.299   3.444  24.927  0.00  0.00    +0.246 C 
ATOM     13  O   UNL     1      -3.113   3.284  25.716  0.00  0.00    -0.273 OA
BRANCH  12  14
ATOM     14  C   UNL     1      -4.005   3.828  24.741  0.00  0.00    +0.113 C 
BRANCH  14  15
ATOM     15  C   UNL     1      -4.721   3.543  25.034  0.00  0.00    -0.013 A 
ATOM     16  C   UNL     1      -5.033   2.835  24.746  0.00  0.00    -0.004 A 
ATOM     17  C   UNL     1      -5.749   2.550  25.040  0.00  0.00    -0.000 A 
ATOM     18  C   UNL     1      -6.153   2.972  25.622  0.00  0.00    -0.000 A 
ATOM     19  C   UNL     1      -5.841   3.680  25.910  0.00  0.00    -0.000 A 
ATOM     20  C   UNL     1      -5.126   3.965  25.617  0.00  0.00    -0.004 A 
ENDBRANCH  14  15
ENDBRANCH  12  14
ENDBRANCH  10  11
BRANCH   3   2
ATOM      1  C   UNL     1       0.181  -0.177  23.126  0.00  0.00    +0.010 C 
ATOM      2  C   UNL     1      -0.147  -0.134  23.882  0.00  0.00    +0.081 C 
BRANCH   2  26
ATOM     26  C   UNL     1      -0.302  -0.826  24.303  0.00  0.00    +0.241 C 
ATOM     27  O   UNL     1       0.274  -1.145  24.801  0.00  0.00    -0.273 OA
ATOM     28  N   UNL     1      -1.034  -1.201  24.227  0.00  0.00    -0.197 NA
BRANCH  28  29
ATOM     29  C   UNL     1      -1.189  -1.892  24.647  0.00  0.00    +0.179 C 
BRANCH  29  30
ATOM     30  C   UNL     1      -1.952  -2.207  24.657  0.00  0.00    +0.145 A 
ATOM     31  C   UNL     1      -2.521  -2.083  25.241  0.00  0.00    +0.038 A 
ATOM     32  C   UNL     1      -3.199  -2.502  25.028  0.00  0.00    +0.043 A 
ATOM     33  C   UNL     1      -3.049  -2.885  24.312  0.00  0.00    +0.179 A 
ATOM     34  O   UNL     1      -2.278  -2.702  24.083  0.00  0.00    -0.453 OA
ENDBRANCH  29  30
ENDBRANCH  28  29
ENDBRANCH   2  26
ENDBRANCH   3   2
TORSDOF 7
ENDMDL
MODEL 9
REMARK VINA RESULT:     -11.3      3.726      5.075
REMARK  Name = 
REMARK  7 active torsions:
REMARK  status: ('A' for Active; 'I' for Inactive)
REMARK    1  A    between atoms: C_2  and  C_3
REMARK    2  A    between atoms: C_2  and  C_26
REMARK    3  A    between atoms: C_10  and  N_11
REMARK    4  A    between atoms: C_12  and  C_14
REMARK    5  A    between atoms: C_14  and  C_15
REMARK    6  A    between atoms: N_28  and  C_29
REMARK    7  A    between atoms: C_29  and  C_30
REMARK                            x       y       z     vdW  Elec       q    Type
REMARK                         _______ _______ _______ _____ _____    ______ ____
ROOT
ATOM      3  C   UNL     1       1.198   0.617  23.336  0.00  0.00    +0.039 C 
ATOM      4  C   UNL     1       1.114   1.406  23.566  0.00  0.00    +0.003 C 
ATOM      5  C   UNL     1       0.513   1.621  24.087  0.00  0.00    +0.000 C 
ATOM      6  C   UNL     1      -0.005   1.049  24.378  0.00  0.00    +0.002 C 
ATOM      7  C   UNL     1      -0.089   1.836  24.608  0.00  0.00    +0.000 C 
ATOM      8  C   UNL     1      -0.608   1.264  24.900  0.00  0.00    +0.002 C 
ATOM      9  C   UNL     1      -1.125   0.693  25.191  0.00  0.00    +0.022 C 
ATOM     10  C   UNL     1      -1.041  -0.096  24.960  0.00  0.00    +0.095 C 
ATOM     21  C   UNL     1      -0.440  -0.311  24.439  0.00  0.00    +0.022 C 
ATOM     22  C   UNL     1      -0.356  -1.099  24.209  0.00  0.00    +0.002 C 
ATOM     23  C   UNL     1       0.079   0.261  24.148  0.00  0.00    +0.032 C 
ATOM     24  C   UNL     1       0.681   0.045  23.627  0.00  0.00    +0.152 C 
ATOM     25  O   UNL     1       0.765  -0.742  23.397  0.00  0.00    -0.223 OA
ENDROOT
BRANCH  10  11
ATOM     11  N   UNL     1      -1.560  -0.668  25.252  0.00  0.00    -0.207 NA
ATOM     12  C   UNL     1      -2.372  -0.524  25.259  0.00  0.00    +0.246 C 
ATOM     13  O   UNL     1      -2.666   0.193  24.973  0.00  0.00    -0.273 OA
BRANCH  12  14
ATOM     14  C   UNL     1      -2.890  -1.096  25.550  0.00  0.00    +0.113 C 
BRANCH  14  15
ATOM     15  C   UNL     1      -3.346  -1.544  25.029  0.00  0.00    -0.013 A 
ATOM     16  C   UNL     1      -3.898  -1.173  24.540  0.00  0.00    -0.004 A 
ATOM     17  C   UNL     1      -4.354  -1.622  24.019  0.00  0.00    -0.000 A 
ATOM     18  C   UNL     1      -4.259  -2.441  23.986  0.00  0.00    -0.000 A 
ATOM     19  C   UNL     1      -3.706  -2.811  24.476  0.00  0.00    -0.000 A 
ATOM     20  C   UNL     1      -3.251  -2.363  24.997  0.00  0.00    -0.004 A 
ENDBRANCH  14  15
ENDBRANCH  12  14
ENDBRANCH  10  11
BRANCH   3   2
ATOM      1  C   UNL     1       1.648  -0.130  22.203  0.00  0.00    +0.010 C 
ATOM      2  C   UNL     1       1.801   0.402  22.815  0.00  0.00    +0.081 C 
BRANCH   2  26
ATOM     26  C   UNL     1       2.557   0.720  22.905  0.00  0.00    +0.241 C 
ATOM     27  O   UNL     1       2.670   1.536  22.862  0.00  0.00    -0.273 OA
ATOM     28  N   UNL     1       3.201   0.221  23.040  0.00  0.00    -0.197 NA
BRANCH  28  29
ATOM     29  C   UNL     1       3.956   0.538  23.130  0.00  0.00    +0.179 C 
BRANCH  29  30
ATOM     30  C   UNL     1       4.569   0.069  23.422  0.00  0.00    +0.145 A 
ATOM     31  C   UNL     1       5.360   0.293  23.492  0.00  0.00    +0.038 A 
ATOM     32  C   UNL     1       5.778  -0.344  23.808  0.00  0.00    +0.043 A 
ATOM     33  C   UNL     1       5.244  -0.962  23.934  0.00  0.00    +0.179 A 
ATOM     34  O   UNL     1       4.497  -0.706  23.695  0.00  0.00    -0.453 OA
ENDBRANCH  29  30
ENDBRANCH  28  29
ENDBRANCH   2  26
ENDBRANCH   3   2
TORSDOF 7
ENDMDL
MODEL 10
REMARK VINA RESULT:     -10.7      2.120      4.725
REMARK  Name = 
REMARK  7 active torsions:
REMARK  status: ('A' for Active; 'I' for Inactive)
REMARK    1  A    between atoms: C_2  and  C_3
REMARK    2  A    between atoms: C_2  and  C_26
REMARK    3  A    between atoms: C_10  and  N_11
REMARK    4  A    between atoms: C_12  and  C_14
REMARK    5  A    between atoms: C_14  and  C_15
REMARK    6  A    between atoms: N_28  and  C_29
REMARK    7  A    between atoms: C_29  and  C_30
REMARK                            x       y       z     vdW  Elec       q    Type
REMARK                         _______ _______ _______ _____ _____    ______ ____
ROOT
ATOM      3  C   UNL     1      -1.911  -1.488  24.727  0.00  0.00    +0.039 C 
ATOM      4  C   UNL     1      -2.339  -2.047  24.296  0.00  0.00    +0.003 C 
ATOM      5  C   UNL     1      -3.150  -1.948  24.183  0.00  0.00    +0.000 C 
ATOM      6  C   UNL     1      -3.533  -1.290  24.500  0.00  0.00    +0.002 C 
ATOM      7  C   UNL     1      -3.960  -1.848  24.069  0.00  0.00    +0.000 C 
ATOM      8  C   UNL     1      -4.344  -1.190  24.387  0.00  0.00    +0.002 C 
ATOM      9  C   UNL     1      -4.727  -0.533  24.704  0.00  0.00    +0.022 C 
ATOM     10  C   UNL     1      -4.299   0.026  25.136  0.00  0.00    +0.095 C 
ATOM     21  C   UNL     1      -3.488  -0.073  25.249  0.00  0.00    +0.022 C 
ATOM     22  C   UNL     1      -3.060   0.485  25.680  0.00  0.00    +0.002 C 
ATOM     23  C   UNL     1      -3.104  -0.731  24.931  0.00  0.00    +0.032 C 
ATOM     24  C   UNL     1      -2.294  -0.831  25.044  0.00  0.00    +0.152 C 
ATOM     25  O   UNL     1      -1.866  -0.272  25.475  0.00  0.00    -0.223 OA
ENDROOT
BRANCH  10  11
ATOM     11  N   UNL     1      -4.683   0.684  25.453  0.00  0.00    -0.207 NA
ATOM     12  C   UNL     1      -5.079   1.210  24.957  0.00  0.00    +0.246 C 
ATOM     13  O   UNL     1      -5.092   1.078  24.142  0.00  0.00    -0.273 OA
BRANCH  12  14
ATOM     14  C   UNL     1      -5.463   1.868  25.275  0.00  0.00    +0.113 C 
BRANCH  14  15
ATOM     15  C   UNL     1      -5.122   2.615  25.211  0.00  0.00    -0.013 A 
ATOM     16  C   UNL     1      -4.862   2.890  24.477  0.00  0.00    -0.004 A 
ATOM     17  C   UNL     1      -4.520   3.638  24.414  0.00  0.00    -0.000 A 
ATOM     18  C   UNL     1      -4.438   4.112  25.084  0.00  0.00    -0.000 A 
ATOM     19  C   UNL     1      -4.698   3.838  25.818  0.00  0.00    -0.000 A 
ATOM     20  C   UNL     1      -5.040   3.090  25.881  0.00  0.00    -0.004 A 
ENDBRANCH  14  15
ENDBRANCH  12  14
ENDBRANCH  10  11
BRANCH   3   2
ATOM      1  C   UNL     1      -0.805  -1.767  25.590  0.00  0.00    +0.010 C 
ATOM      2  C   UNL     1      -1.100  -1.588  24.840  0.00  0.00    +0.081 C 
BRANCH   2  26
ATOM     26  C   UNL     1      -0.582  -1.510  24.202  0.00  0.00    +0.241 C 
ATOM     27  O   UNL     1      -0.507  -2.123  23.654  0.00  0.00    -0.273 OA
ATOM     28  N   UNL     1      -0.139  -0.819  24.112  0.00  0.00    -0.197 NA
BRANCH  28  29
ATOM     29  C   UNL     1       0.378  -0.741  23.475  0.00  0.00    +0.179 C 
BRANCH  29  30
ATOM     30  C   UNL     1       0.841  -0.063  23.400  0.00  0.00    +0.145 A 
ATOM     31  C   UNL     1       1.586  -0.021  23.047  0.00  0.00    +0.038 A 
ATOM     32  C   UNL     1       1.846   0.760  23.094  0.00  0.00    +0.043 A 
ATOM     33  C   UNL     1       1.262   1.201  23.476  0.00  0.00    +0.179 A 
ATOM     34  O   UNL     1       0.641   0.692  23.665  0.00  0.00    -0.453 OA
ENDBRANCH  29  30
ENDBRANCH  28  29
ENDBRANCH   2  26
ENDBRANCH   3   2
TORSDOF 7
ENDMDL
