MODEL 1
REMARK VINA RESULT:     -12.3      0.000      0.000
REMARK  Name = 
REMARK  6 active torsions:
REMARK  status: ('A' for Active; 'I' for Inactive)
REMARK    1  A    between atoms: C_5  and  O_6
REMARK    2  A    between atoms: O_6  and  C_7
REMARK    3  A    between atoms: C_7  and  C_8
REMARK    4  A    between atoms: C_11  and  C_13
REMARK    5  A    between atoms: N_16  and  C_17
REMARK    6  A    between atoms: C_17  and  C_18
REMARK                            x       y       z     vdW  Elec       q    Type
REMARK                         _______ _______ _______ _____ _____    ______ ____
ROOT
ATOM      8  C   UNL     1      -4.675   0.812  25.023  0.00  0.00    +0.270 A 
ATOM      9  N   UNL     1      -5.381   1.216  25.163  0.00  0.00    -0.108 NA
ATOM     10  N   UNL     1      -5.221   2.026  25.138  0.00  0.00    -0.112 NA
ATOM     11  C   UNL     1      -4.417   2.122  24.983  0.00  0.00    +0.227 A 
ATOM     12  O   UNL     1      -4.080   1.372  24.912  0.00  0.00    -0.420 OA
ENDROOT
BRANCH  11  13
ATOM     13  C   UNL     1      -4.019   2.841  24.911  0.00  0.00    +0.096 C 
ATOM     14  C   UNL     1      -4.120   3.392  24.305  0.00  0.00    +0.028 C 
ATOM     15  C   UNL     1      -3.614   4.027  24.452  0.00  0.00    +0.073 C 
ATOM     16  N   UNL     1      -3.201   3.869  25.148  0.00  0.00    -0.268 NA
ATOM     25  C   UNL     1      -3.452   3.135  25.432  0.00  0.00    +0.082 C 
BRANCH  16  17
ATOM     17  C   UNL     1      -2.636   4.357  25.499  0.00  0.00    +0.100 C 
BRANCH  17  18
ATOM     18  C   UNL     1      -1.846   4.307  25.268  0.00  0.00    +0.004 A 
ATOM     19  C   UNL     1      -1.483   3.569  25.197  0.00  0.00    -0.002 A 
ATOM     20  C   UNL     1      -0.693   3.518  24.966  0.00  0.00    -0.000 A 
ATOM     21  C   UNL     1      -0.265   4.206  24.806  0.00  0.00    +0.001 A 
ATOM     22  C   UNL     1      -0.627   4.943  24.877  0.00  0.00    +0.011 A 
ATOM     23  C   UNL     1      -1.418   4.994  25.108  0.00  0.00    +0.055 A 
ATOM     24 CL   UNL     1      -1.781   5.732  25.179  0.00  0.00    -0.083 Cl
ENDBRANCH  17  18
ENDBRANCH  16  17
ENDBRANCH  11  13
BRANCH   8   7
ATOM      7  C   UNL     1      -4.582  -0.007  24.999  0.00  0.00    +0.291 C 
BRANCH   7   6
ATOM      6  O   UNL     1      -4.032  -0.344  24.484  0.00  0.00    -0.465 OA
BRANCH   6   5
ATOM      1  F   UNL     1      -3.618  -3.617  24.429  0.00  0.00    -0.204 F 
ATOM      2  C   UNL     1      -3.721  -2.799  24.443  0.00  0.00    +0.140 A 
ATOM      3  C   UNL     1      -3.399  -2.353  25.057  0.00  0.00    +0.033 A 
ATOM      4  C   UNL     1      -3.503  -1.535  25.070  0.00  0.00    +0.039 A 
ATOM      5  C   UNL     1      -3.929  -1.162  24.470  0.00  0.00    +0.139 A 
ATOM     26  C   UNL     1      -4.252  -1.609  23.856  0.00  0.00    +0.039 A 
ATOM     27  C   UNL     1      -4.148  -2.428  23.842  0.00  0.00    +0.033 A 
ENDBRANCH   6   5
ENDBRANCH   7   6
ENDBRANCH   8   7
TORSDOF 6
ENDMDL
MODEL 2
REMARK VINA RESULT:     -11.7      2.756      5.688
REMARK  Name = 
REMARK  6 active torsions:
REMARK  status: ('A' for Active; 'I' for Inactive)
REMARK    1  A    between atoms: C_5  and  O_6
REMARK    2  A    between atoms: O_6  and  C_7
REMARK    3  A    between atoms: C_7  and  C_8
REMARK    4  A    between atoms: C_11  and  C_13
REMARK    5  A    between atoms: N_16  and  C_17
REMARK    6  A    between atoms: C_17  and  C_18
REMARK                            x       y       z     vdW  Elec       q    Type
REMARK                         _______ _______ _______ _____ _____    ______ ____
ROOT
ATOM      8  C   UNL     1      -3.831   2.630  25.080  0.00  0.00    +0.270 A 
ATOM      9  N   UNL     1      -4.614   2.574  25.335  0.00  0.00    -0.108 NA
ATOM     10  N   UNL     1      -4.849   1.787  25.269  0.00  0.00    -0.112 NA
ATOM     11  C   UNL     1      -4.212   1.355  24.973  0.00  0.00    +0.227 A 
ATOM     12  O   UNL     1      -3.583   1.876  24.856  0.00  0.00    -0.420 OA
ENDROOT
BRANCH  11  13
ATOM     13  C   UNL     1      -4.205   0.544  24.820  0.00  0.00    +0.096 C 
ATOM     14  C   UNL     1      -4.544   0.171  24.167  0.00  0.00    +0.028 C 
ATOM     15  C   UNL     1      -4.405  -0.640  24.237  0.00  0.00    +0.073 C 
ATOM     16  N   UNL     1      -3.981  -0.767  24.932  0.00  0.00    -0.268 NA
ATOM     25  C   UNL     1      -3.857  -0.036  25.293  0.00  0.00    +0.082 C 
BRANCH  16  17
ATOM     17  C   UNL     1      -3.726  -1.498  25.218  0.00  0.00    +0.100 C 
BRANCH  17  18
ATOM     18  C   UNL     1      -2.991  -1.797  24.989  0.00  0.00    +0.004 A 
ATOM     19  C   UNL     1      -2.313  -1.335  25.076  0.00  0.00    -0.002 A 
ATOM     20  C   UNL     1      -1.579  -1.633  24.847  0.00  0.00    -0.000 A 
ATOM     21  C   UNL     1      -1.523  -2.393  24.531  0.00  0.00    +0.001 A 
ATOM     22  C   UNL     1      -2.200  -2.855  24.445  0.00  0.00    +0.011 A 
ATOM     23  C   UNL     1      -2.935  -2.557  24.674  0.00  0.00    +0.055 A 
ATOM     24 CL   UNL     1      -3.613  -3.019  24.587  0.00  0.00    -0.083 Cl
ENDBRANCH  17  18
ENDBRANCH  16  17
ENDBRANCH  11  13
BRANCH   8   7
ATOM      7  C   UNL     1      -3.377   3.318  25.054  0.00  0.00    +0.291 C 
BRANCH   7   6
ATOM      6  O   UNL     1      -2.726   3.402  25.554  0.00  0.00    -0.465 OA
BRANCH   6   5
ATOM      1  F   UNL     1      -0.338   5.552  24.805  0.00  0.00    -0.204 F 
ATOM      2  C   UNL     1      -0.935   5.014  24.992  0.00  0.00    +0.140 A 
ATOM      3  C   UNL     1      -1.683   5.287  25.205  0.00  0.00    +0.033 A 
ATOM      4  C   UNL     1      -2.280   4.750  25.392  0.00  0.00    +0.039 A 
ATOM      5  C   UNL     1      -2.129   3.939  25.367  0.00  0.00    +0.139 A 
ATOM     26  C   UNL     1      -1.380   3.666  25.154  0.00  0.00    +0.039 A 
ATOM     27  C   UNL     1      -0.782   4.204  24.967  0.00  0.00    +0.033 A 
ENDBRANCH   6   5
ENDBRANCH   7   6
ENDBRANCH   8   7
TORSDOF 6
ENDMDL
MODEL 3
REMARK VINA RESULT:     -11.6      2.009      2.772
REMARK  Name = 
REMARK  6 active torsions:
REMARK  status: ('A' for Active; 'I' for Inactive)
REMARK    1  A    between atoms: C_5  and  O_6
REMARK    2  A    between atoms: O_6  and  C_7
REMARK    3  A    between atoms: C_7  and  C_8
REMARK    4  A    between atoms: C_11  and  C_13
REMARK    5  A    between atoms: N_16  and  C_17
REMARK    6  A    between atoms: C_17  and  C_18
REMARK                            x       y       z     vdW  Elec       q    Type
REMARK                         _______ _______ _______ _____ _____    ______ ____
ROOT
ATOM      8  C   UNL     1      -1.140  -0.444  24.679  0.00  0.00    +0.270 A 
ATOM      9  N   UNL     1      -0.405  -0.403  24.307  0.00  0.00    -0.108 NA
ATOM     10  N   UNL     1      -0.074   0.334  24.476  0.00  0.00    -0.112 NA
ATOM     11  C   UNL     1      -0.605   0.748  24.952  0.00  0.00    +0.227 A 
ATOM     12  O   UNL     1      -1.264   0.267  25.077  0.00  0.00    -0.420 OA
ENDROOT
BRANCH  11  13
ATOM     13  C   UNL     1      -0.497   1.509  25.250  0.00  0.00    +0.096 C 
ATOM     14  C   UNL     1      -0.225   1.700  26.005  0.00  0.00    +0.028 C 
ATOM     15  C   UNL     1      -0.202   2.523  26.068  0.00  0.00    +0.073 C 
ATOM     16  N   UNL     1      -0.459   2.840  25.351  0.00  0.00    -0.268 NA
ATOM     25  C   UNL     1      -0.642   2.214  24.846  0.00  0.00    +0.082 C 
BRANCH  16  17
ATOM     17  C   UNL     1      -0.524   3.643  25.172  0.00  0.00    +0.100 C 
BRANCH  17  18
ATOM     18  C   UNL     1      -1.224   4.047  25.333  0.00  0.00    +0.004 A 
ATOM     19  C   UNL     1      -1.846   3.659  25.712  0.00  0.00    -0.002 A 
ATOM     20  C   UNL     1      -2.547   4.064  25.874  0.00  0.00    -0.000 A 
ATOM     21  C   UNL     1      -2.626   4.855  25.655  0.00  0.00    +0.001 A 
ATOM     22  C   UNL     1      -2.005   5.243  25.277  0.00  0.00    +0.011 A 
ATOM     23  C   UNL     1      -1.303   4.839  25.115  0.00  0.00    +0.055 A 
ATOM     24 CL   UNL     1      -0.682   5.227  24.736  0.00  0.00    -0.083 Cl
ENDBRANCH  17  18
ENDBRANCH  16  17
ENDBRANCH  11  13
BRANCH   8   7
ATOM      7  C   UNL     1      -1.660  -1.085  24.656  0.00  0.00    +0.291 C 
BRANCH   7   6
ATOM      6  O   UNL     1      -2.447  -0.984  24.883  0.00  0.00    -0.465 OA
BRANCH   6   5
ATOM      1  F   UNL     1      -4.768  -3.024  23.724  0.00  0.00    -0.204 F 
ATOM      2  C   UNL     1      -4.188  -2.514  24.014  0.00  0.00    +0.140 A 
ATOM      3  C   UNL     1      -3.554  -2.815  24.446  0.00  0.00    +0.033 A 
ATOM      4  C   UNL     1      -2.973  -2.305  24.736  0.00  0.00    +0.039 A 
ATOM      5  C   UNL     1      -3.027  -1.494  24.593  0.00  0.00    +0.139 A 
ATOM     26  C   UNL     1      -3.663  -1.193  24.160  0.00  0.00    +0.039 A 
ATOM     27  C   UNL     1      -4.243  -1.703  23.870  0.00  0.00    +0.033 A 
ENDBRANCH   6   5
ENDBRANCH   7   6
ENDBRANCH   8   7
TORSDOF 6
ENDMDL
MODEL 4
REMARK VINA RESULT:     -11.5      3.375      6.387
REMARK  Name = 
REMARK  6 active torsions:
REMARK  status: ('A' for Active; 'I' for Inactive)
REMARK    1  A    between atoms: C_5  and  O_6
REMARK    2  A    between atoms: O_6  and  C_7
REMARK    3  A    between atoms: C_7  and  C_8
REMARK    4  A    between atoms: C_11  and  C_13
REMARK    5  A    between atoms: N_16  and  C_17
REMARK    6  A    between atoms: C_17  and  C_18
REMARK                            x       y       z     vdW  Elec       q    Type
REMARK                         _______ _______ _______ _____ _____    ______ ____
ROOT
ATOM      8  C   UNL     1      -0.419   1.755  24.384  0.00  0.00    +0.270 A 
ATOM      9  N   UNL     1       0.282   1.380  24.167  0.00  0.00    -0.108 NA
ATOM     10  N   UNL     1       0.166   0.565  24.226  0.00  0.00    -0.112 NA
ATOM     11  C   UNL     1      -0.608   0.436  24.480  0.00  0.00    +0.227 A 
ATOM     12  O   UNL     1      -0.970   1.172  24.577  0.00  0.00    -0.420 OA
ENDROOT
BRANCH  11  13
ATOM     13  C   UNL     1      -0.959  -0.298  24.613  0.00  0.00    +0.096 C 
ATOM     14  C   UNL     1      -0.624  -1.033  24.446  0.00  0.00    +0.028 C 
ATOM     15  C   UNL     1      -1.166  -1.616  24.666  0.00  0.00    +0.073 C 
ATOM     16  N   UNL     1      -1.835  -1.241  24.969  0.00  0.00    -0.268 NA
ATOM     25  C   UNL     1      -1.707  -0.426  24.936  0.00  0.00    +0.082 C 
BRANCH  16  17
ATOM     17  C   UNL     1      -2.512  -1.615  25.255  0.00  0.00    +0.100 C 
BRANCH  17  18
ATOM     18  C   UNL     1      -3.152  -1.752  24.752  0.00  0.00    +0.004 A 
ATOM     19  C   UNL     1      -3.460  -1.134  24.299  0.00  0.00    -0.002 A 
ATOM     20  C   UNL     1      -4.099  -1.270  23.796  0.00  0.00    -0.000 A 
ATOM     21  C   UNL     1      -4.430  -2.024  23.745  0.00  0.00    +0.001 A 
ATOM     22  C   UNL     1      -4.122  -2.641  24.197  0.00  0.00    +0.011 A 
ATOM     23  C   UNL     1      -3.483  -2.506  24.701  0.00  0.00    +0.055 A 
ATOM     24 CL   UNL     1      -3.175  -3.123  25.153  0.00  0.00    -0.083 Cl
ENDBRANCH  17  18
ENDBRANCH  16  17
ENDBRANCH  11  13
BRANCH   8   7
ATOM      7  C   UNL     1      -0.548   2.569  24.404  0.00  0.00    +0.291 C 
BRANCH   7   6
ATOM      6  O   UNL     1      -0.674   2.949  25.126  0.00  0.00    -0.465 OA
BRANCH   6   5
ATOM      1  F   UNL     1      -1.783   6.056  25.182  0.00  0.00    -0.204 F 
ATOM      2  C   UNL     1      -1.506   5.279  25.168  0.00  0.00    +0.140 A 
ATOM      3  C   UNL     1      -0.764   5.112  24.849  0.00  0.00    +0.033 A 
ATOM      4  C   UNL     1      -0.487   4.335  24.835  0.00  0.00    +0.039 A 
ATOM      5  C   UNL     1      -0.951   3.726  25.140  0.00  0.00    +0.139 A 
ATOM     26  C   UNL     1      -1.694   3.893  25.459  0.00  0.00    +0.039 A 
ATOM     27  C   UNL     1      -1.971   4.670  25.473  0.00  0.00    +0.033 A 
ENDBRANCH   6   5
ENDBRANCH   7   6
ENDBRANCH   8   7
TORSDOF 6
ENDMDL
