MODEL 1
REMARK VINA RESULT:     -14.0      0.000      0.000
REMARK  Name = 
REMARK  4 active torsions:
REMARK  status: ('A' for Active; 'I' for Inactive)
REMARK    1  A    between atoms: N_7  and  C_10
REMARK    2  A    between atoms: C_16  and  N_17
REMARK    3  A    between atoms: N_20  and  C_21
REMARK    4  A    between atoms: C_23  and  C_27
REMARK                            x       y       z     vdW  Elec       q    Type
REMARK                         _______ _______ _______ _____ _____    ______ ____
ROOT
ATOM     10  C   UNL     1      -3.584   2.516  24.779  0.00  0.00    +0.147 C 
ATOM     11  C   UNL     1      -3.695   3.139  24.042  0.00  0.00    +0.253 C 
ATOM     12  O   UNL     1      -3.205   3.858  23.892  0.00  0.00    -0.327 OA
ATOM     13  C   UNL     1      -3.425   3.257  24.233  0.00  0.00    +0.176 C 
ATOM     14  C   UNL     1      -3.934   2.668  24.234  0.00  0.00    +0.170 C 
ATOM     15  O   UNL     1      -4.336   2.790  23.659  0.00  0.00    -0.327 OA
ATOM     16  C   UNL     1      -3.839   2.064  24.933  0.00  0.00    +0.158 C 
ATOM     31  C   UNL     1      -3.195   2.417  25.317  0.00  0.00    +0.194 C 
ATOM     32  O   UNL     1      -2.599   2.539  25.873  0.00  0.00    -0.220 OA
ENDROOT
BRANCH  10   7
ATOM      1  C   UNL     1      -0.578   4.806  24.655  0.00  0.00    +0.095 C 
ATOM      2  C   UNL     1      -1.324   4.912  24.990  0.00  0.00    +0.226 C 
ATOM      3  O   UNL     1      -1.505   5.618  25.378  0.00  0.00    -0.275 OA
ATOM      4  N   UNL     1      -1.889   4.313  24.937  0.00  0.00    -0.277 N 
ATOM      5  C   UNL     1      -2.635   4.419  25.272  0.00  0.00    +0.111 C 
ATOM      6  C   UNL     1      -3.200   3.820  25.220  0.00  0.00    +0.094 C 
ATOM      7  N   UNL     1      -3.019   3.115  24.832  0.00  0.00    -0.265 NA
ATOM      8  C   UNL     1      -2.272   3.009  24.496  0.00  0.00    +0.094 C 
ATOM      9  C   UNL     1      -1.707   3.608  24.549  0.00  0.00    +0.111 C 
ENDBRANCH  10   7
BRANCH  16  17
ATOM     17  N   UNL     1      -4.268   1.382  25.117  0.00  0.00    -0.183 NA
ATOM     18  C   UNL     1      -3.925   0.639  25.015  0.00  0.00    +0.344 C 
ATOM     19  O   UNL     1      -3.153   0.577  24.730  0.00  0.00    -0.249 OA
ATOM     20  N   UNL     1      -4.352  -0.041  25.198  0.00  0.00    -0.161 NA
BRANCH  20  21
ATOM     21  C   UNL     1      -4.009  -0.784  25.097  0.00  0.00    +0.075 A 
ATOM     22  C   UNL     1      -4.254  -1.271  24.478  0.00  0.00    +0.021 A 
ATOM     23  C   UNL     1      -3.910  -2.015  24.376  0.00  0.00    +0.073 A 
ATOM     24  C   UNL     1      -3.322  -2.271  24.894  0.00  0.00    +0.004 A 
ATOM     25  C   UNL     1      -3.077  -1.784  25.514  0.00  0.00    +0.001 A 
ATOM     26  C   UNL     1      -3.421  -1.041  25.615  0.00  0.00    +0.017 A 
BRANCH  23  27
ATOM     27  C   UNL     1      -4.155  -2.501  23.757  0.00  0.00    +0.419 C 
ATOM     28  F   UNL     1      -4.400  -2.988  23.137  0.00  0.00    -0.166 F 
ATOM     29  F   UNL     1      -4.043  -3.164  24.234  0.00  0.00    -0.166 F 
ATOM     30  F   UNL     1      -4.267  -1.837  23.279  0.00  0.00    -0.166 F 
ENDBRANCH  23  27
ENDBRANCH  20  21
ENDBRANCH  16  17
TORSDOF 4
ENDMDL
MODEL 2
REMARK VINA RESULT:     -13.6      2.700      5.486
REMARK  Name = 
REMARK  4 active torsions:
REMARK  status: ('A' for Active; 'I' for Inactive)
REMARK    1  A    between atoms: N_7  and  C_10
REMARK    2  A    between atoms: C_16  and  N_17
REMARK    3  A    between atoms: N_20  and  C_21
REMARK    4  A    between atoms: C_23  and  C_27
REMARK                            x       y       z     vdW  Elec       q    Type
REMARK                         _______ _______ _______ _____ _____    ______ ____
ROOT
ATOM     10  C   UNL     1      -3.969   0.696  24.423  0.00  0.00    +0.147 C 
ATOM     11  C   UNL     1      -4.752   0.276  24.815  0.00  0.00    +0.253 C 
ATOM     12  O   UNL     1      -4.835  -0.577  25.023  0.00  0.00    -0.327 OA
ATOM     13  C   UNL     1      -4.513   0.023  24.773  0.00  0.00    +0.176 C 
ATOM     14  C   UNL     1      -4.589   0.787  24.646  0.00  0.00    +0.170 C 
ATOM     15  O   UNL     1      -5.248   0.933  24.874  0.00  0.00    -0.327 OA
ATOM     16  C   UNL     1      -3.847   1.202  24.271  0.00  0.00    +0.158 C 
ATOM     31  C   UNL     1      -3.351   0.541  24.213  0.00  0.00    +0.194 C 
ATOM     32  O   UNL     1      -2.682   0.088  24.044  0.00  0.00    -0.220 OA
ENDROOT
BRANCH  10   7
ATOM      1  C   UNL     1      -3.558  -3.059  24.255  0.00  0.00    +0.095 C 
ATOM      2  C   UNL     1      -3.408  -2.526  24.867  0.00  0.00    +0.226 C 
ATOM      3  O   UNL     1      -3.119  -2.799  25.590  0.00  0.00    -0.275 OA
ATOM      4  N   UNL     1      -3.549  -1.720  24.755  0.00  0.00    -0.277 N 
ATOM      5  C   UNL     1      -3.400  -1.188  25.367  0.00  0.00    +0.111 C 
ATOM      6  C   UNL     1      -3.540  -0.382  25.256  0.00  0.00    +0.094 C 
ATOM      7  N   UNL     1      -3.829  -0.109  24.533  0.00  0.00    -0.265 NA
ATOM      8  C   UNL     1      -3.978  -0.642  23.921  0.00  0.00    +0.094 C 
ATOM      9  C   UNL     1      -3.838  -1.448  24.032  0.00  0.00    +0.111 C 
ENDBRANCH  10   7
BRANCH  16  17
ATOM     17  N   UNL     1      -3.721   1.990  24.060  0.00  0.00    -0.183 NA
ATOM     18  C   UNL     1      -3.339   2.501  24.582  0.00  0.00    +0.344 C 
ATOM     19  O   UNL     1      -3.082   2.225  25.316  0.00  0.00    -0.249 OA
ATOM     20  N   UNL     1      -3.213   3.288  24.371  0.00  0.00    -0.161 NA
BRANCH  20  21
ATOM     21  C   UNL     1      -2.830   3.800  24.893  0.00  0.00    +0.075 A 
ATOM     22  C   UNL     1      -2.106   4.136  24.686  0.00  0.00    +0.021 A 
ATOM     23  C   UNL     1      -1.724   4.648  25.208  0.00  0.00    +0.073 A 
ATOM     24  C   UNL     1      -2.066   4.822  25.938  0.00  0.00    +0.004 A 
ATOM     25  C   UNL     1      -2.791   4.487  26.146  0.00  0.00    +0.001 A 
ATOM     26  C   UNL     1      -3.173   3.975  25.623  0.00  0.00    +0.017 A 
BRANCH  23  27
ATOM     27  C   UNL     1      -1.000   4.984  25.001  0.00  0.00    +0.419 C 
ATOM     28  F   UNL     1      -0.276   5.320  24.794  0.00  0.00    -0.166 F 
ATOM     29  F   UNL     1      -0.620   4.273  25.176  0.00  0.00    -0.166 F 
ATOM     30  F   UNL     1      -1.380   5.696  24.827  0.00  0.00    -0.166 F 
ENDBRANCH  23  27
ENDBRANCH  20  21
ENDBRANCH  16  17
TORSDOF 4
ENDMDL
MODEL 3
REMARK VINA RESULT:     -13.6      1.671      2.252
REMARK  Name = 
REMARK  4 active torsions:
REMARK  status: ('A' for Active; 'I' for Inactive)
REMARK    1  A    between atoms: N_7  and  C_10
REMARK    2  A    between atoms: C_16  and  N_17
REMARK    3  A    between atoms: N_20  and  C_21
REMARK    4  A    between atoms: C_23  and  C_27
REMARK                            x       y       z     vdW  Elec       q    Type
REMARK                         _______ _______ _______ _____ _____    ______ ____
ROOT
ATOM     10  C   UNL     1      -0.897   1.753  25.138  0.00  0.00    +0.147 C 
ATOM     11  C   UNL     1      -0.468   2.165  25.906  0.00  0.00    +0.253 C 
ATOM     12  O   UNL     1      -0.430   3.030  26.078  0.00  0.00    -0.327 OA
ATOM     13  C   UNL     1      -0.602   2.426  25.714  0.00  0.00    +0.176 C 
ATOM     14  C   UNL     1      -0.553   1.650  25.699  0.00  0.00    +0.170 C 
ATOM     15  O   UNL     1      -0.188   1.490  26.289  0.00  0.00    -0.327 OA
ATOM     16  C   UNL     1      -0.960   1.242  24.970  0.00  0.00    +0.158 C 
ATOM     31  C   UNL     1      -1.240   1.921  24.587  0.00  0.00    +0.194 C 
ATOM     32  O   UNL     1      -1.613   2.392  24.021  0.00  0.00    -0.220 OA
ENDROOT
BRANCH  10   7
ATOM      1  C   UNL     1      -1.892   5.396  25.323  0.00  0.00    +0.095 C 
ATOM      2  C   UNL     1      -1.234   5.032  24.982  0.00  0.00    +0.226 C 
ATOM      3  O   UNL     1      -0.662   5.488  24.602  0.00  0.00    -0.275 OA
ATOM      4  N   UNL     1      -1.150   4.212  25.021  0.00  0.00    -0.277 N 
ATOM      5  C   UNL     1      -0.493   3.849  24.680  0.00  0.00    +0.111 C 
ATOM      6  C   UNL     1      -0.409   3.029  24.719  0.00  0.00    +0.094 C 
ATOM      7  N   UNL     1      -0.981   2.572  25.099  0.00  0.00    -0.265 NA
ATOM      8  C   UNL     1      -1.639   2.936  25.440  0.00  0.00    +0.094 C 
ATOM      9  C   UNL     1      -1.723   3.756  25.401  0.00  0.00    +0.111 C 
ENDBRANCH  10   7
BRANCH  16  17
ATOM     17  N   UNL     1      -1.022   0.444  24.765  0.00  0.00    -0.183 NA
ATOM     18  C   UNL     1      -1.711   0.026  24.942  0.00  0.00    +0.344 C 
ATOM     19  O   UNL     1      -2.337   0.404  25.323  0.00  0.00    -0.249 OA
ATOM     20  N   UNL     1      -1.773  -0.771  24.738  0.00  0.00    -0.161 NA
BRANCH  20  21
ATOM     21  C   UNL     1      -2.462  -1.189  24.915  0.00  0.00    +0.075 A 
ATOM     22  C   UNL     1      -2.944  -1.466  24.306  0.00  0.00    +0.021 A 
ATOM     23  C   UNL     1      -3.634  -1.885  24.483  0.00  0.00    +0.073 A 
ATOM     24  C   UNL     1      -3.838  -2.027  25.269  0.00  0.00    +0.004 A 
ATOM     25  C   UNL     1      -3.355  -1.750  25.879  0.00  0.00    +0.001 A 
ATOM     26  C   UNL     1      -2.667  -1.332  25.701  0.00  0.00    +0.017 A 
BRANCH  23  27
ATOM     27  C   UNL     1      -4.116  -2.161  23.874  0.00  0.00    +0.419 C 
ATOM     28  F   UNL     1      -4.600  -2.437  23.265  0.00  0.00    -0.166 F 
ATOM     29  F   UNL     1      -3.803  -2.918  23.970  0.00  0.00    -0.166 F 
ATOM     30  F   UNL     1      -4.430  -1.403  23.779  0.00  0.00    -0.166 F 
ENDBRANCH  23  27
ENDBRANCH  20  21
ENDBRANCH  16  17
TORSDOF 4
ENDMDL
MODEL 4
REMARK VINA RESULT:     -13.1      3.111      5.844
REMARK  Name = 
REMARK  4 active torsions:
REMARK  status: ('A' for Active; 'I' for Inactive)
REMARK    1  A    between atoms: N_7  and  C_10
REMARK    2  A    between atoms: C_16  and  N_17
REMARK    3  A    between atoms: N_20  and  C_21
REMARK    4  A    between atoms: C_23  and  C_27
REMARK                            x       y       z     vdW  Elec       q    Type
REMARK                         _______ _______ _______ _____ _____    ______ ____
ROOT
ATOM     10  C   UNL     1      -1.418  -0.100  25.140  0.00  0.00    +0.147 C 
ATOM     11  C   UNL     1      -1.020  -0.700  24.489  0.00  0.00    +0.253 C 
ATOM     12  O   UNL     1      -1.396  -1.421  24.148  0.00  0.00    -0.327 OA
ATOM     13  C   UNL     1      -1.339  -0.827  24.559  0.00  0.00    +0.176 C 
ATOM     14  C   UNL     1      -0.883  -0.231  24.766  0.00  0.00    +0.170 C 
ATOM     15  O   UNL     1      -0.290  -0.330  24.386  0.00  0.00    -0.327 OA
ATOM     16  C   UNL     1      -1.252   0.351  25.390  0.00  0.00    +0.158 C 
ATOM     31  C   UNL     1      -1.984  -0.022  25.491  0.00  0.00    +0.194 C 
ATOM     32  O   UNL     1      -2.745  -0.169  25.776  0.00  0.00    -0.220 OA
ENDROOT
BRANCH  10   7
ATOM      1  C   UNL     1      -4.101  -2.426  23.842  0.00  0.00    +0.095 C 
ATOM      2  C   UNL     1      -3.527  -2.535  24.424  0.00  0.00    +0.226 C 
ATOM      3  O   UNL     1      -3.480  -3.254  24.826  0.00  0.00    -0.275 OA
ATOM      4  N   UNL     1      -3.000  -1.926  24.603  0.00  0.00    -0.277 N 
ATOM      5  C   UNL     1      -2.426  -2.036  25.184  0.00  0.00    +0.111 C 
ATOM      6  C   UNL     1      -1.898  -1.427  25.363  0.00  0.00    +0.094 C 
ATOM      7  N   UNL     1      -1.945  -0.709  24.961  0.00  0.00    -0.265 NA
ATOM      8  C   UNL     1      -2.520  -0.599  24.379  0.00  0.00    +0.094 C 
ATOM      9  C   UNL     1      -3.047  -1.208  24.200  0.00  0.00    +0.111 C 
ENDBRANCH  10   7
BRANCH  16  17
ATOM     17  N   UNL     1      -0.943   1.034  25.737  0.00  0.00    -0.183 NA
ATOM     18  C   UNL     1      -1.266   1.771  25.557  0.00  0.00    +0.344 C 
ATOM     19  O   UNL     1      -1.899   1.827  25.030  0.00  0.00    -0.249 OA
ATOM     20  N   UNL     1      -0.958   2.453  25.904  0.00  0.00    -0.161 NA
BRANCH  20  21
ATOM     21  C   UNL     1      -1.281   3.190  25.724  0.00  0.00    +0.075 A 
ATOM     22  C   UNL     1      -0.836   3.746  25.310  0.00  0.00    +0.021 A 
ATOM     23  C   UNL     1      -1.159   4.484  25.130  0.00  0.00    +0.073 A 
ATOM     24  C   UNL     1      -1.929   4.664  25.365  0.00  0.00    +0.004 A 
ATOM     25  C   UNL     1      -2.375   4.108  25.780  0.00  0.00    +0.001 A 
ATOM     26  C   UNL     1      -2.051   3.371  25.960  0.00  0.00    +0.017 A 
BRANCH  23  27
ATOM     27  C   UNL     1      -0.714   5.040  24.715  0.00  0.00    +0.419 C 
ATOM     28  F   UNL     1      -0.268   5.597  24.301  0.00  0.00    -0.166 F 
ATOM     29  F   UNL     1      -0.440   4.447  24.213  0.00  0.00    -0.166 F 
ATOM     30  F   UNL     1      -0.988   5.635  25.219  0.00  0.00    -0.166 F 
ENDBRANCH  23  27
ENDBRANCH  20  21
ENDBRANCH  16  17
TORSDOF 4
ENDMDL
