MODEL 1
REMARK VINA RESULT:     -10.4      0.000      0.000
REMARK  Name = 
REMARK  5 active torsions:
REMARK  status: ('A' for Active; 'I' for Inactive)
REMARK    1  A    between atoms: O_2  and  C_3
REMARK    2  A    between atoms: C_6  and  C_9
REMARK    3  A    between atoms: C_12  and  C_14
REMARK    4  A    between atoms: N_18  and  C_19
REMARK    5  A    between atoms: C_19  and  C_20
REMARK                            x       y       z     vdW  Elec       q    Type
REMARK                         _______ _______ _______ _____ _____    ______ ____
ROOT
ATOM      9  C   UNL     1      -3.859   0.523  24.521  0.00  0.00    +0.205 A 
ATOM     10  N   UNL     1      -3.678   0.900  23.810  0.00  0.00    -0.056 NA
ATOM     11  O   UNL     1      -3.838   1.704  23.900  0.00  0.00    -0.336 OA
ATOM     12  C   UNL     1      -4.118   1.825  24.666  0.00  0.00    +0.251 A 
ATOM     13  N   UNL     1      -4.131   1.095  25.051  0.00  0.00    -0.190 NA
ENDROOT
BRANCH   9   6
ATOM      3  C   UNL     1      -3.627  -1.897  24.987  0.00  0.00    +0.225 A 
ATOM      4  N   UNL     1      -3.291  -1.345  25.499  0.00  0.00    -0.210 NA
ATOM      5  C   UNL     1      -3.368  -0.538  25.343  0.00  0.00    +0.105 A 
ATOM      6  C   UNL     1      -3.782  -0.284  24.677  0.00  0.00    +0.058 A 
ATOM      7  C   UNL     1      -4.118  -0.837  24.164  0.00  0.00    +0.010 A 
ATOM      8  C   UNL     1      -4.041  -1.643  24.320  0.00  0.00    +0.058 A 
BRANCH   3   2
ATOM      1  C   UNL     1      -3.301  -3.217  24.546  0.00  0.00    +0.254 C 
ATOM      2  O   UNL     1      -3.550  -2.703  25.142  0.00  0.00    -0.456 OA
ENDBRANCH   3   2
ENDBRANCH   9   6
BRANCH  12  14
ATOM     14  C   UNL     1      -4.345   2.548  24.991  0.00  0.00    +0.138 C 
ATOM     15  C   UNL     1      -5.118   2.786  25.151  0.00  0.00    +0.027 C 
ATOM     16  C   UNL     1      -5.089   3.546  25.473  0.00  0.00    +0.019 C 
ATOM     17  C   UNL     1      -4.299   3.777  25.511  0.00  0.00    +0.073 C 
ATOM     18  N   UNL     1      -3.838   3.160  25.214  0.00  0.00    -0.266 NA
BRANCH  18  19
ATOM     19  C   UNL     1      -3.016   3.157  25.150  0.00  0.00    +0.072 C 
BRANCH  19  20
ATOM     20  C   UNL     1      -2.582   3.820  25.377  0.00  0.00    +0.015 C 
ATOM     21  C   UNL     1      -2.147   4.484  25.604  0.00  0.00    +0.001 C 
ATOM     22  C   UNL     1      -2.505   3.511  26.138  0.00  0.00    +0.001 C 
ATOM     23  C   UNL     1      -2.659   4.131  24.617  0.00  0.00    +0.001 C 
ENDBRANCH  19  20
ENDBRANCH  18  19
ENDBRANCH  12  14
TORSDOF 5
ENDMDL
MODEL 2
REMARK VINA RESULT:      -9.9      1.477      4.555
REMARK  Name = 
REMARK  5 active torsions:
REMARK  status: ('A' for Active; 'I' for Inactive)
REMARK    1  A    between atoms: O_2  and  C_3
REMARK    2  A    between atoms: C_6  and  C_9
REMARK    3  A    between atoms: C_12  and  C_14
REMARK    4  A    between atoms: N_18  and  C_19
REMARK    5  A    between atoms: C_19  and  C_20
REMARK                            x       y       z     vdW  Elec       q    Type
REMARK                         _______ _______ _______ _____ _____    ______ ____
ROOT
ATOM      9  C   UNL     1      -4.154   0.837  24.527  0.00  0.00    +0.205 A 
ATOM     10  N   UNL     1      -3.845   0.805  23.763  0.00  0.00    -0.056 NA
ATOM     11  O   UNL     1      -3.522   0.054  23.649  0.00  0.00    -0.336 OA
ATOM     12  C   UNL     1      -3.631  -0.378  24.343  0.00  0.00    +0.251 A 
ATOM     13  N   UNL     1      -4.021   0.106  24.886  0.00  0.00    -0.190 NA
ENDROOT
BRANCH   9   6
ATOM      3  C   UNL     1      -5.279   2.783  25.562  0.00  0.00    +0.225 A 
ATOM      4  N   UNL     1      -4.465   2.798  25.434  0.00  0.00    -0.210 NA
ATOM      5  C   UNL     1      -4.090   2.149  25.089  0.00  0.00    +0.105 A 
ATOM      6  C   UNL     1      -4.529   1.486  24.872  0.00  0.00    +0.058 A 
ATOM      7  C   UNL     1      -5.345   1.471  25.000  0.00  0.00    +0.010 A 
ATOM      8  C   UNL     1      -5.720   2.120  25.345  0.00  0.00    +0.058 A 
BRANCH   3   2
ATOM      1  C   UNL     1      -5.656   4.162  25.521  0.00  0.00    +0.254 C 
ATOM      2  O   UNL     1      -5.654   3.432  25.907  0.00  0.00    -0.456 OA
ENDBRANCH   3   2
ENDBRANCH   9   6
BRANCH  12  14
ATOM     14  C   UNL     1      -3.392  -1.157  24.472  0.00  0.00    +0.138 C 
ATOM     15  C   UNL     1      -3.867  -1.827  24.404  0.00  0.00    +0.027 C 
ATOM     16  C   UNL     1      -3.404  -2.487  24.582  0.00  0.00    +0.019 C 
ATOM     17  C   UNL     1      -2.643  -2.223  24.760  0.00  0.00    +0.073 C 
ATOM     18  N   UNL     1      -2.635  -1.401  24.692  0.00  0.00    -0.266 NA
BRANCH  18  19
ATOM     19  C   UNL     1      -1.985  -0.911  24.822  0.00  0.00    +0.072 C 
BRANCH  19  20
ATOM     20  C   UNL     1      -1.271  -1.232  25.082  0.00  0.00    +0.015 C 
ATOM     21  C   UNL     1      -0.557  -1.553  25.342  0.00  0.00    +0.001 C 
ATOM     22  C   UNL     1      -1.067  -1.410  24.302  0.00  0.00    +0.001 C 
ATOM     23  C   UNL     1      -1.475  -1.053  25.861  0.00  0.00    +0.001 C 
ENDBRANCH  19  20
ENDBRANCH  18  19
ENDBRANCH  12  14
TORSDOF 5
ENDMDL
MODEL 3
REMARK VINA RESULT:      -9.7      1.790      2.477
REMARK  Name = 
REMARK  5 active torsions:
REMARK  status: ('A' for Active; 'I' for Inactive)
REMARK    1  A    between atoms: O_2  and  C_3
REMARK    2  A    between atoms: C_6  and  C_9
REMARK    3  A    between atoms: C_12  and  C_14
REMARK    4  A    between atoms: N_18  and  C_19
REMARK    5  A    between atoms: C_19  and  C_20
REMARK                            x       y       z     vdW  Elec       q    Type
REMARK                         _______ _______ _______ _____ _____    ______ ____
ROOT
ATOM      9  C   UNL     1      -2.059   0.664  24.398  0.00  0.00    +0.205 A 
ATOM     10  N   UNL     1      -1.588   0.932  23.776  0.00  0.00    -0.056 NA
ATOM     11  O   UNL     1      -1.068   1.499  24.076  0.00  0.00    -0.336 OA
ATOM     12  C   UNL     1      -1.218   1.581  24.883  0.00  0.00    +0.251 A 
ATOM     13  N   UNL     1      -1.831   1.065  25.082  0.00  0.00    -0.190 NA
ENDROOT
BRANCH   9   6
ATOM      3  C   UNL     1      -3.843  -1.044  24.240  0.00  0.00    +0.225 A 
ATOM      4  N   UNL     1      -3.091  -1.257  24.502  0.00  0.00    -0.210 NA
ATOM      5  C   UNL     1      -2.496  -0.688  24.554  0.00  0.00    +0.105 A 
ATOM      6  C   UNL     1      -2.654   0.095  24.345  0.00  0.00    +0.058 A 
ATOM      7  C   UNL     1      -3.407   0.307  24.083  0.00  0.00    +0.010 A 
ATOM      8  C   UNL     1      -4.002  -0.262  24.030  0.00  0.00    +0.058 A 
BRANCH   3   2
ATOM      1  C   UNL     1      -4.288  -2.334  23.812  0.00  0.00    +0.254 C 
ATOM      2  O   UNL     1      -4.438  -1.613  24.187  0.00  0.00    -0.456 OA
ENDBRANCH   3   2
ENDBRANCH   9   6
BRANCH  12  14
ATOM     14  C   UNL     1      -0.826   2.090  25.400  0.00  0.00    +0.138 C 
ATOM     15  C   UNL     1      -0.245   1.874  25.944  0.00  0.00    +0.027 C 
ATOM     16  C   UNL     1      -0.005   2.554  26.344  0.00  0.00    +0.019 C 
ATOM     17  C   UNL     1      -0.437   3.191  26.047  0.00  0.00    +0.073 C 
ATOM     18  N   UNL     1      -0.944   2.904  25.463  0.00  0.00    -0.266 NA
BRANCH  18  19
ATOM     19  C   UNL     1      -1.477   3.352  25.021  0.00  0.00    +0.072 C 
BRANCH  19  20
ATOM     20  C   UNL     1      -1.542   4.164  25.152  0.00  0.00    +0.015 C 
ATOM     21  C   UNL     1      -1.607   4.976  25.284  0.00  0.00    +0.001 C 
ATOM     22  C   UNL     1      -2.185   4.032  25.653  0.00  0.00    +0.001 C 
ATOM     23  C   UNL     1      -0.900   4.296  24.652  0.00  0.00    +0.001 C 
ENDBRANCH  19  20
ENDBRANCH  18  19
ENDBRANCH  12  14
TORSDOF 5
ENDMDL
MODEL 4
REMARK VINA RESULT:      -9.6      1.924      5.242
REMARK  Name = 
REMARK  5 active torsions:
REMARK  status: ('A' for Active; 'I' for Inactive)
REMARK    1  A    between atoms: O_2  and  C_3
REMARK    2  A    between atoms: C_6  and  C_9
REMARK    3  A    between atoms: C_12  and  C_14
REMARK    4  A    between atoms: N_18  and  C_19
REMARK    5  A    between atoms: C_19  and  C_20
REMARK                            x       y       z     vdW  Elec       q    Type
REMARK                         _______ _______ _______ _____ _____    ______ ____
ROOT
ATOM      9  C   UNL     1      -1.648   1.664  24.529  0.00  0.00    +0.205 A 
ATOM     10  N   UNL     1      -1.768   1.393  23.759  0.00  0.00    -0.056 NA
ATOM     11  O   UNL     1      -1.658   0.575  23.756  0.00  0.00    -0.336 OA
ATOM     12  C   UNL     1      -1.470   0.341  24.525  0.00  0.00    +0.251 A 
ATOM     13  N   UNL     1      -1.464   1.014  25.002  0.00  0.00    -0.190 NA
ENDROOT
BRANCH   9   6
ATOM      3  C   UNL     1      -1.811   4.015  25.286  0.00  0.00    +0.225 A 
ATOM      4  N   UNL     1      -2.496   3.583  25.132  0.00  0.00    -0.210 NA
ATOM      5  C   UNL     1      -2.442   2.800  24.880  0.00  0.00    +0.105 A 
ATOM      6  C   UNL     1      -1.702   2.448  24.781  0.00  0.00    +0.058 A 
ATOM      7  C   UNL     1      -1.016   2.881  24.935  0.00  0.00    +0.010 A 
ATOM      8  C   UNL     1      -1.070   3.664  25.187  0.00  0.00    +0.058 A 
BRANCH   3   2
ATOM      1  C   UNL     1      -1.481   5.396  25.117  0.00  0.00    +0.254 C 
ATOM      2  O   UNL     1      -1.865   4.799  25.538  0.00  0.00    -0.456 OA
ENDBRANCH   3   2
ENDBRANCH   9   6
BRANCH  12  14
ATOM     14  C   UNL     1      -1.316  -0.431  24.772  0.00  0.00    +0.138 C 
ATOM     15  C   UNL     1      -0.571  -0.753  24.917  0.00  0.00    +0.027 C 
ATOM     16  C   UNL     1      -0.674  -1.537  25.153  0.00  0.00    +0.019 C 
ATOM     17  C   UNL     1      -1.483  -1.698  25.154  0.00  0.00    +0.073 C 
ATOM     18  N   UNL     1      -1.880  -1.015  24.919  0.00  0.00    -0.266 NA
BRANCH  18  19
ATOM     19  C   UNL     1      -2.697  -0.931  24.843  0.00  0.00    +0.072 C 
BRANCH  19  20
ATOM     20  C   UNL     1      -3.195  -1.562  25.025  0.00  0.00    +0.015 C 
ATOM     21  C   UNL     1      -3.694  -2.194  25.207  0.00  0.00    +0.001 C 
ATOM     22  C   UNL     1      -3.124  -1.842  24.251  0.00  0.00    +0.001 C 
ATOM     23  C   UNL     1      -3.267  -1.283  25.797  0.00  0.00    +0.001 C 
ENDBRANCH  19  20
ENDBRANCH  18  19
ENDBRANCH  12  14
TORSDOF 5
ENDMDL
