MODEL 1
REMARK VINA RESULT:     -10.6      0.000      0.000
REMARK  Name = 
REMARK  5 active torsions:
REMARK  status: ('A' for Active; 'I' for Inactive)
REMARK    1  A    between atoms: O_2  and  C_3
REMARK    2  A    between atoms: C_6  and  C_7
REMARK    3  A    between atoms: C_7  and  C_8
REMARK    4  A    between atoms: N_17  and  C_18
REMARK    5  A    between atoms: C_18  and  C_19
REMARK                            x       y       z     vdW  Elec       q    Type
REMARK                         _______ _______ _______ _____ _____    ______ ____
ROOT
ATOM      8  C   UNL     1       1.479   0.029  23.074  0.00  0.00    +0.230 C 
ATOM      9  O   UNL     1       1.680  -0.744  22.869  0.00  0.00    -0.275 OA
ATOM     10  N   UNL     1       0.771   0.179  23.470  0.00  0.00    -0.279 N 
ATOM     11  C   UNL     1       0.569   0.953  23.675  0.00  0.00    +0.093 C 
ATOM     12  C   UNL     1      -0.138   1.104  24.071  0.00  0.00    +0.022 C 
ATOM     13  C   UNL     1      -0.645   0.481  24.262  0.00  0.00    +0.012 C 
ATOM     14  C   UNL     1      -1.319   0.751  24.655  0.00  0.00    +0.085 C 
ATOM     15  C   UNL     1      -1.957   0.313  24.940  0.00  0.00    +0.226 C 
ATOM     16  O   UNL     1      -2.551   0.748  25.311  0.00  0.00    -0.275 OA
ATOM     17  N   UNL     1      -2.080  -0.502  24.903  0.00  0.00    -0.275 N 
ATOM     25  C   UNL     1      -1.594  -1.080  24.571  0.00  0.00    +0.094 C 
ATOM     26  C   UNL     1      -0.866  -0.987  24.195  0.00  0.00    +0.023 C 
ATOM     27  C   UNL     1      -0.444  -0.293  24.058  0.00  0.00    +0.022 C 
ATOM     28  C   UNL     1       0.265  -0.443  23.662  0.00  0.00    +0.093 C 
ENDROOT
BRANCH   8   7
ATOM      7  C   UNL     1       1.985   0.651  22.883  0.00  0.00    +0.112 C 
BRANCH   7   6
ATOM      3  C   UNL     1       4.437   0.312  22.921  0.00  0.00    +0.139 A 
ATOM      4  C   UNL     1       3.931  -0.315  23.097  0.00  0.00    +0.037 A 
ATOM      5  C   UNL     1       3.114  -0.202  23.084  0.00  0.00    -0.001 A 
ATOM      6  C   UNL     1       2.802   0.538  22.896  0.00  0.00    -0.013 A 
ATOM     29  C   UNL     1       3.308   1.165  22.720  0.00  0.00    -0.001 A 
ATOM     30  C   UNL     1       4.125   1.053  22.732  0.00  0.00    +0.037 A 
BRANCH   3   2
ATOM      1  C   UNL     1       5.641   0.064  23.649  0.00  0.00    +0.252 C 
ATOM      2  O   UNL     1       5.254   0.200  22.933  0.00  0.00    -0.471 OA
ENDBRANCH   3   2
ENDBRANCH   7   6
ENDBRANCH   8   7
BRANCH  17  18
ATOM     18  C   UNL     1      -2.781  -0.774  25.242  0.00  0.00    +0.120 C 
BRANCH  18  19
ATOM     19  C   UNL     1      -3.242  -1.330  24.844  0.00  0.00    -0.002 A 
ATOM     20  C   UNL     1      -3.172  -2.132  25.028  0.00  0.00    -0.003 A 
ATOM     21  C   UNL     1      -3.633  -2.689  24.630  0.00  0.00    -0.000 A 
ATOM     22  C   UNL     1      -4.164  -2.444  24.048  0.00  0.00    -0.000 A 
ATOM     23  C   UNL     1      -4.235  -1.643  23.864  0.00  0.00    -0.000 A 
ATOM     24  C   UNL     1      -3.773  -1.086  24.262  0.00  0.00    -0.003 A 
ENDBRANCH  18  19
ENDBRANCH  17  18
TORSDOF 5
ENDMDL
MODEL 2
REMARK VINA RESULT:     -10.6      4.495      6.525
REMARK  Name = 
REMARK  5 active torsions:
REMARK  status: ('A' for Active; 'I' for Inactive)
REMARK    1  A    between atoms: O_2  and  C_3
REMARK    2  A    between atoms: C_6  and  C_7
REMARK    3  A    between atoms: C_7  and  C_8
REMARK    4  A    between atoms: N_17  and  C_18
REMARK    5  A    between atoms: C_18  and  C_19
REMARK                            x       y       z     vdW  Elec       q    Type
REMARK                         _______ _______ _______ _____ _____    ______ ____
ROOT
ATOM      8  C   UNL     1      -4.000   0.135  24.030  0.00  0.00    +0.230 C 
ATOM      9  O   UNL     1      -3.470   0.016  23.410  0.00  0.00    -0.275 OA
ATOM     10  N   UNL     1      -4.017   0.860  24.425  0.00  0.00    -0.279 N 
ATOM     11  C   UNL     1      -4.548   0.979  25.045  0.00  0.00    +0.093 C 
ATOM     12  C   UNL     1      -4.565   1.703  25.440  0.00  0.00    +0.022 C 
ATOM     13  C   UNL     1      -4.051   2.308  25.215  0.00  0.00    +0.012 C 
ATOM     14  C   UNL     1      -4.159   2.983  25.678  0.00  0.00    +0.085 C 
ATOM     15  C   UNL     1      -3.761   3.704  25.635  0.00  0.00    +0.226 C 
ATOM     16  O   UNL     1      -3.997   4.275  26.181  0.00  0.00    -0.275 OA
ATOM     17  N   UNL     1      -3.159   3.930  25.119  0.00  0.00    -0.275 N 
ATOM     25  C   UNL     1      -2.805   3.489  24.518  0.00  0.00    +0.094 C 
ATOM     26  C   UNL     1      -2.966   2.715  24.284  0.00  0.00    +0.023 C 
ATOM     27  C   UNL     1      -3.521   2.189  24.594  0.00  0.00    +0.022 C 
ATOM     28  C   UNL     1      -3.504   1.465  24.200  0.00  0.00    +0.093 C 
ENDROOT
BRANCH   8   7
ATOM      7  C   UNL     1      -4.513  -0.469  24.256  0.00  0.00    +0.112 C 
BRANCH   7   6
ATOM      3  C   UNL     1      -3.699  -2.803  24.384  0.00  0.00    +0.139 A 
ATOM      4  C   UNL     1      -3.516  -2.269  24.986  0.00  0.00    +0.037 A 
ATOM      5  C   UNL     1      -3.788  -1.491  24.943  0.00  0.00    -0.001 A 
ATOM      6  C   UNL     1      -4.242  -1.247  24.299  0.00  0.00    -0.013 A 
ATOM     29  C   UNL     1      -4.424  -1.781  23.697  0.00  0.00    -0.001 A 
ATOM     30  C   UNL     1      -4.153  -2.559  23.739  0.00  0.00    +0.037 A 
BRANCH   3   2
ATOM      1  C   UNL     1      -2.655  -3.762  24.200  0.00  0.00    +0.252 C 
ATOM      2  O   UNL     1      -3.428  -3.581  24.426  0.00  0.00    -0.471 OA
ENDBRANCH   3   2
ENDBRANCH   7   6
ENDBRANCH   8   7
BRANCH  17  18
ATOM     18  C   UNL     1      -2.872   4.697  25.217  0.00  0.00    +0.120 C 
BRANCH  18  19
ATOM     19  C   UNL     1      -2.067   4.851  25.124  0.00  0.00    -0.002 A 
ATOM     20  C   UNL     1      -1.820   5.488  24.661  0.00  0.00    -0.003 A 
ATOM     21  C   UNL     1      -1.016   5.643  24.567  0.00  0.00    -0.000 A 
ATOM     22  C   UNL     1      -0.457   5.160  24.937  0.00  0.00    -0.000 A 
ATOM     23  C   UNL     1      -0.704   4.523  25.399  0.00  0.00    -0.000 A 
ATOM     24  C   UNL     1      -1.509   4.369  25.492  0.00  0.00    -0.003 A 
ENDBRANCH  18  19
ENDBRANCH  17  18
TORSDOF 5
ENDMDL
MODEL 3
REMARK VINA RESULT:     -10.3      2.239      3.041
REMARK  Name = 
REMARK  5 active torsions:
REMARK  status: ('A' for Active; 'I' for Inactive)
REMARK    1  A    between atoms: O_2  and  C_3
REMARK    2  A    between atoms: C_6  and  C_7
REMARK    3  A    between atoms: C_7  and  C_8
REMARK    4  A    between atoms: N_17  and  C_18
REMARK    5  A    between atoms: C_18  and  C_19
REMARK                            x       y       z     vdW  Elec       q    Type
REMARK                         _______ _______ _______ _____ _____    ______ ____
ROOT
ATOM      8  C   UNL     1      -0.270   0.553  23.673  0.00  0.00    +0.230 C 
ATOM      9  O   UNL     1      -0.145   1.257  23.262  0.00  0.00    -0.275 OA
ATOM     10  N   UNL     1      -1.017   0.383  23.981  0.00  0.00    -0.279 N 
ATOM     11  C   UNL     1      -1.142  -0.321  24.392  0.00  0.00    +0.093 C 
ATOM     12  C   UNL     1      -1.888  -0.492  24.701  0.00  0.00    +0.022 C 
ATOM     13  C   UNL     1      -2.509   0.042  24.597  0.00  0.00    +0.012 C 
ATOM     14  C   UNL     1      -3.204  -0.234  24.946  0.00  0.00    +0.085 C 
ATOM     15  C   UNL     1      -3.945   0.127  24.969  0.00  0.00    +0.226 C 
ATOM     16  O   UNL     1      -4.535  -0.293  25.365  0.00  0.00    -0.275 OA
ATOM     17  N   UNL     1      -4.175   0.852  24.650  0.00  0.00    -0.275 N 
ATOM     25  C   UNL     1      -3.720   1.395  24.228  0.00  0.00    +0.094 C 
ATOM     26  C   UNL     1      -2.923   1.348  24.021  0.00  0.00    +0.023 C 
ATOM     27  C   UNL     1      -2.384   0.746  24.185  0.00  0.00    +0.022 C 
ATOM     28  C   UNL     1      -1.637   0.916  23.878  0.00  0.00    +0.093 C 
ENDROOT
BRANCH   8   7
ATOM      7  C   UNL     1       0.350   0.021  23.776  0.00  0.00    +0.112 C 
BRANCH   7   6
ATOM      3  C   UNL     1       2.485   0.353  22.568  0.00  0.00    +0.139 A 
ATOM      4  C   UNL     1       2.325   0.789  23.250  0.00  0.00    +0.037 A 
ATOM      5  C   UNL     1       1.614   0.677  23.653  0.00  0.00    -0.001 A 
ATOM      6  C   UNL     1       1.062   0.132  23.374  0.00  0.00    -0.013 A 
ATOM     29  C   UNL     1       1.222  -0.303  22.691  0.00  0.00    -0.001 A 
ATOM     30  C   UNL     1       1.933  -0.193  22.288  0.00  0.00    +0.037 A 
BRANCH   3   2
ATOM      1  C   UNL     1       3.862   0.734  22.569  0.00  0.00    +0.252 C 
ATOM      2  O   UNL     1       3.196   0.464  22.165  0.00  0.00    -0.471 OA
ENDBRANCH   3   2
ENDBRANCH   7   6
ENDBRANCH   8   7
BRANCH  17  18
ATOM     18  C   UNL     1      -4.964   1.061  24.768  0.00  0.00    +0.120 C 
BRANCH  18  19
ATOM     19  C   UNL     1      -5.153   1.810  25.058  0.00  0.00    -0.002 A 
ATOM     20  C   UNL     1      -5.411   1.897  25.837  0.00  0.00    -0.003 A 
ATOM     21  C   UNL     1      -5.600   2.645  26.128  0.00  0.00    -0.000 A 
ATOM     22  C   UNL     1      -5.530   3.308  25.640  0.00  0.00    -0.000 A 
ATOM     23  C   UNL     1      -5.272   3.221  24.861  0.00  0.00    -0.000 A 
ATOM     24  C   UNL     1      -5.083   2.472  24.571  0.00  0.00    -0.003 A 
ENDBRANCH  18  19
ENDBRANCH  17  18
TORSDOF 5
ENDMDL
MODEL 4
REMARK VINA RESULT:      -9.8      1.624      2.613
REMARK  Name = 
REMARK  5 active torsions:
REMARK  status: ('A' for Active; 'I' for Inactive)
REMARK    1  A    between atoms: O_2  and  C_3
REMARK    2  A    between atoms: C_6  and  C_7
REMARK    3  A    between atoms: C_7  and  C_8
REMARK    4  A    between atoms: N_17  and  C_18
REMARK    5  A    between atoms: C_18  and  C_19
REMARK                            x       y       z     vdW  Elec       q    Type
REMARK                         _______ _______ _______ _____ _____    ______ ____
ROOT
ATOM      8  C   UNL     1       1.641   0.778  23.292  0.00  0.00    +0.230 C 
ATOM      9  O   UNL     1       1.993   1.508  23.447  0.00  0.00    -0.275 OA
ATOM     10  N   UNL     1       0.855   0.646  23.506  0.00  0.00    -0.279 N 
ATOM     11  C   UNL     1       0.503  -0.084  23.351  0.00  0.00    +0.093 C 
ATOM     12  C   UNL     1      -0.282  -0.217  23.565  0.00  0.00    +0.022 C 
ATOM     13  C   UNL     1      -0.716   0.380  23.933  0.00  0.00    +0.012 C 
ATOM     14  C   UNL     1      -1.486   0.134  24.099  0.00  0.00    +0.085 C 
ATOM     15  C   UNL     1      -2.094   0.558  24.461  0.00  0.00    +0.226 C 
ATOM     16  O   UNL     1      -2.808   0.155  24.549  0.00  0.00    -0.275 OA
ATOM     17  N   UNL     1      -2.083   1.332  24.746  0.00  0.00    -0.275 N 
ATOM     25  C   UNL     1      -1.461   1.873  24.740  0.00  0.00    +0.094 C 
ATOM     26  C   UNL     1      -0.696   1.775  24.447  0.00  0.00    +0.023 C 
ATOM     27  C   UNL     1      -0.365   1.110  24.088  0.00  0.00    +0.022 C 
ATOM     28  C   UNL     1       0.421   1.243  23.874  0.00  0.00    +0.093 C 
ENDROOT
BRANCH   8   7
ATOM      7  C   UNL     1       2.075   0.182  22.924  0.00  0.00    +0.112 C 
BRANCH   7   6
ATOM      3  C   UNL     1       4.549   0.222  22.996  0.00  0.00    +0.139 A 
ATOM      4  C   UNL     1       4.137   0.833  22.625  0.00  0.00    +0.037 A 
ATOM      5  C   UNL     1       3.312   0.819  22.601  0.00  0.00    -0.001 A 
ATOM      6  C   UNL     1       2.900   0.195  22.948  0.00  0.00    -0.013 A 
ATOM     29  C   UNL     1       3.311  -0.416  23.319  0.00  0.00    -0.001 A 
ATOM     30  C   UNL     1       4.136  -0.403  23.343  0.00  0.00    +0.037 A 
BRANCH   3   2
ATOM      1  C   UNL     1       5.766   0.160  23.742  0.00  0.00    +0.252 C 
ATOM      2  O   UNL     1       5.373   0.235  23.021  0.00  0.00    -0.471 OA
ENDBRANCH   3   2
ENDBRANCH   7   6
ENDBRANCH   8   7
BRANCH  17  18
ATOM     18  C   UNL     1      -2.787   1.600  25.082  0.00  0.00    +0.120 C 
BRANCH  18  19
ATOM     19  C   UNL     1      -3.113   2.318  24.838  0.00  0.00    -0.002 A 
ATOM     20  C   UNL     1      -2.978   3.003  25.278  0.00  0.00    -0.003 A 
ATOM     21  C   UNL     1      -3.303   3.721  25.035  0.00  0.00    -0.000 A 
ATOM     22  C   UNL     1      -3.764   3.754  24.351  0.00  0.00    -0.000 A 
ATOM     23  C   UNL     1      -3.900   3.069  23.911  0.00  0.00    -0.000 A 
ATOM     24  C   UNL     1      -3.574   2.352  24.155  0.00  0.00    -0.003 A 
ENDBRANCH  18  19
ENDBRANCH  17  18
TORSDOF 5
ENDMDL
MODEL 5
REMARK VINA RESULT:      -9.7      3.308      4.525
REMARK  Name = 
REMARK  5 active torsions:
REMARK  status: ('A' for Active; 'I' for Inactive)
REMARK    1  A    between atoms: O_2  and  C_3
REMARK    2  A    between atoms: C_6  and  C_7
REMARK    3  A    between atoms: C_7  and  C_8
REMARK    4  A    between atoms: N_17  and  C_18
REMARK    5  A    between atoms: C_18  and  C_19
REMARK                            x       y       z     vdW  Elec       q    Type
REMARK                         _______ _______ _______ _____ _____    ______ ____
ROOT
ATOM      8  C   UNL     1      -1.600   2.425  25.208  0.00  0.00    +0.230 C 
ATOM      9  O   UNL     1      -2.259   2.675  24.779  0.00  0.00    -0.275 OA
ATOM     10  N   UNL     1      -1.416   1.622  25.251  0.00  0.00    -0.279 N 
ATOM     11  C   UNL     1      -0.757   1.372  25.679  0.00  0.00    +0.093 C 
ATOM     12  C   UNL     1      -0.573   0.569  25.723  0.00  0.00    +0.022 C 
ATOM     13  C   UNL     1      -1.049   0.016  25.337  0.00  0.00    +0.012 C 
ATOM     14  C   UNL     1      -0.769  -0.752  25.451  0.00  0.00    +0.085 C 
ATOM     15  C   UNL     1      -1.080  -1.460  25.163  0.00  0.00    +0.226 C 
ATOM     16  O   UNL     1      -0.669  -2.143  25.375  0.00  0.00    -0.275 OA
ATOM     17  N   UNL     1      -1.747  -1.575  24.691  0.00  0.00    -0.275 N 
ATOM     25  C   UNL     1      -2.267  -1.010  24.391  0.00  0.00    +0.094 C 
ATOM     26  C   UNL     1      -2.250  -0.191  24.488  0.00  0.00    +0.023 C 
ATOM     27  C   UNL     1      -1.708   0.265  24.909  0.00  0.00    +0.022 C 
ATOM     28  C   UNL     1      -1.891   1.069  24.866  0.00  0.00    +0.093 C 
ENDROOT
BRANCH   8   7
ATOM      7  C   UNL     1      -1.125   2.978  25.592  0.00  0.00    +0.112 C 
BRANCH   7   6
ATOM      3  C   UNL     1      -1.331   5.384  25.046  0.00  0.00    +0.139 A 
ATOM      4  C   UNL     1      -1.905   5.016  25.510  0.00  0.00    +0.037 A 
ATOM      5  C   UNL     1      -1.836   4.214  25.692  0.00  0.00    -0.001 A 
ATOM      6  C   UNL     1      -1.194   3.780  25.411  0.00  0.00    -0.013 A 
ATOM     29  C   UNL     1      -0.619   4.149  24.947  0.00  0.00    -0.001 A 
ATOM     30  C   UNL     1      -0.687   4.950  24.764  0.00  0.00    +0.037 A 
BRANCH   3   2
ATOM      1  C   UNL     1      -2.134   6.503  24.665  0.00  0.00    +0.252 C 
ATOM      2  O   UNL     1      -1.399   6.185  24.864  0.00  0.00    -0.471 OA
ENDBRANCH   3   2
ENDBRANCH   7   6
ENDBRANCH   8   7
BRANCH  17  18
ATOM     18  C   UNL     1      -1.915  -2.358  24.494  0.00  0.00    +0.120 C 
BRANCH  18  19
ATOM     19  C   UNL     1      -2.699  -2.607  24.426  0.00  0.00    -0.002 A 
ATOM     20  C   UNL     1      -3.112  -2.855  25.096  0.00  0.00    -0.003 A 
ATOM     21  C   UNL     1      -3.896  -3.103  25.029  0.00  0.00    -0.000 A 
ATOM     22  C   UNL     1      -4.267  -3.103  24.292  0.00  0.00    -0.000 A 
ATOM     23  C   UNL     1      -3.854  -2.855  23.622  0.00  0.00    -0.000 A 
ATOM     24  C   UNL     1      -3.070  -2.607  23.690  0.00  0.00    -0.003 A 
ENDBRANCH  18  19
ENDBRANCH  17  18
TORSDOF 5
ENDMDL
MODEL 6
REMARK VINA RESULT:      -9.3      3.338      6.078
REMARK  Name = 
REMARK  5 active torsions:
REMARK  status: ('A' for Active; 'I' for Inactive)
REMARK    1  A    between atoms: O_2  and  C_3
REMARK    2  A    between atoms: C_6  and  C_7
REMARK    3  A    between atoms: C_7  and  C_8
REMARK    4  A    between atoms: N_17  and  C_18
REMARK    5  A    between atoms: C_18  and  C_19
REMARK                            x       y       z     vdW  Elec       q    Type
REMARK                         _______ _______ _______ _____ _____    ______ ____
ROOT
ATOM      8  C   UNL     1      -2.069  -0.526  24.619  0.00  0.00    +0.230 C 
ATOM      9  O   UNL     1      -2.528  -0.394  23.946  0.00  0.00    -0.275 OA
ATOM     10  N   UNL     1      -1.630   0.092  24.946  0.00  0.00    -0.279 N 
ATOM     11  C   UNL     1      -1.171  -0.040  25.619  0.00  0.00    +0.093 C 
ATOM     12  C   UNL     1      -0.732   0.577  25.946  0.00  0.00    +0.022 C 
ATOM     13  C   UNL     1      -0.753   1.327  25.601  0.00  0.00    +0.012 C 
ATOM     14  C   UNL     1      -0.278   1.861  26.012  0.00  0.00    +0.085 C 
ATOM     15  C   UNL     1      -0.144   2.659  25.852  0.00  0.00    +0.226 C 
ATOM     16  O   UNL     1       0.365   3.048  26.372  0.00  0.00    -0.275 OA
ATOM     17  N   UNL     1      -0.453   3.120  25.242  0.00  0.00    -0.275 N 
ATOM     25  C   UNL     1      -0.971   2.896  24.640  0.00  0.00    +0.094 C 
ATOM     26  C   UNL     1      -1.309   2.157  24.500  0.00  0.00    +0.023 C 
ATOM     27  C   UNL     1      -1.212   1.458  24.928  0.00  0.00    +0.022 C 
ATOM     28  C   UNL     1      -1.650   0.840  24.601  0.00  0.00    +0.093 C 
ENDROOT
BRANCH   8   7
ATOM      7  C   UNL     1      -2.049  -1.274  24.964  0.00  0.00    +0.112 C 
BRANCH   7   6
ATOM      3  C   UNL     1      -3.703  -2.991  24.299  0.00  0.00    +0.139 A 
ATOM      4  C   UNL     1      -3.941  -2.340  24.745  0.00  0.00    +0.037 A 
ATOM      5  C   UNL     1      -3.390  -1.768  24.967  0.00  0.00    -0.001 A 
ATOM      6  C   UNL     1      -2.600  -1.846  24.742  0.00  0.00    -0.013 A 
ATOM     29  C   UNL     1      -2.362  -2.498  24.296  0.00  0.00    -0.001 A 
ATOM     30  C   UNL     1      -2.912  -3.071  24.074  0.00  0.00    +0.037 A 
BRANCH   3   2
ATOM      1  C   UNL     1      -4.761  -3.425  23.442  0.00  0.00    +0.252 C 
ATOM      2  O   UNL     1      -4.253  -3.564  24.077  0.00  0.00    -0.471 OA
ENDBRANCH   3   2
ENDBRANCH   7   6
ENDBRANCH   8   7
BRANCH  17  18
ATOM     18  C   UNL     1      -0.211   3.909  25.231  0.00  0.00    +0.120 C 
BRANCH  18  19
ATOM     19  C   UNL     1      -0.769   4.509  25.135  0.00  0.00    -0.002 A 
ATOM     20  C   UNL     1      -0.631   5.118  24.596  0.00  0.00    -0.003 A 
ATOM     21  C   UNL     1      -1.187   5.719  24.499  0.00  0.00    -0.000 A 
ATOM     22  C   UNL     1      -1.884   5.711  24.942  0.00  0.00    -0.000 A 
ATOM     23  C   UNL     1      -2.022   5.102  25.482  0.00  0.00    -0.000 A 
ATOM     24  C   UNL     1      -1.465   4.502  25.578  0.00  0.00    -0.003 A 
ENDBRANCH  18  19
ENDBRANCH  17  18
TORSDOF 5
ENDMDL
MODEL 7
REMARK VINA RESULT:      -8.4      2.242      6.365
REMARK  Name = 
REMARK  5 active torsions:
REMARK  status: ('A' for Active; 'I' for Inactive)
REMARK    1  A    between atoms: O_2  and  C_3
REMARK    2  A    between atoms: C_6  and  C_7
REMARK    3  A    between atoms: C_7  and  C_8
REMARK    4  A    between atoms: N_17  and  C_18
REMARK    5  A    between atoms: C_18  and  C_19
REMARK                            x       y       z     vdW  Elec       q    Type
REMARK                         _______ _______ _______ _____ _____    ______ ____
ROOT
ATOM      8  C   UNL     1      -0.863   1.932  24.879  0.00  0.00    +0.230 C 
ATOM      9  O   UNL     1      -0.534   2.637  25.155  0.00  0.00    -0.275 OA
ATOM     10  N   UNL     1      -0.415   1.426  24.405  0.00  0.00    -0.279 N 
ATOM     11  C   UNL     1      -0.744   0.721  24.129  0.00  0.00    +0.093 C 
ATOM     12  C   UNL     1      -0.297   0.215  23.655  0.00  0.00    +0.022 C 
ATOM     13  C   UNL     1       0.479   0.414  23.457  0.00  0.00    +0.012 C 
ATOM     14  C   UNL     1       0.826  -0.164  22.981  0.00  0.00    +0.085 C 
ATOM     15  C   UNL     1       1.588  -0.180  22.665  0.00  0.00    +0.226 C 
ATOM     16  O   UNL     1       1.770  -0.842  22.207  0.00  0.00    -0.275 OA
ATOM     17  N   UNL     1       2.190   0.378  22.744  0.00  0.00    -0.275 N 
ATOM     25  C   UNL     1       2.179   1.089  23.161  0.00  0.00    +0.094 C 
ATOM     26  C   UNL     1       1.565   1.419  23.601  0.00  0.00    +0.023 C 
ATOM     27  C   UNL     1       0.808   1.119  23.733  0.00  0.00    +0.022 C 
ATOM     28  C   UNL     1       0.360   1.625  24.207  0.00  0.00    +0.093 C 
ENDROOT
BRANCH   8   7
ATOM      7  C   UNL     1      -1.638   1.733  25.078  0.00  0.00    +0.112 C 
BRANCH   7   6
ATOM      3  C   UNL     1      -3.368   3.496  25.236  0.00  0.00    +0.139 A 
ATOM      4  C   UNL     1      -2.716   3.512  25.741  0.00  0.00    +0.037 A 
ATOM      5  C   UNL     1      -2.139   2.924  25.688  0.00  0.00    -0.001 A 
ATOM      6  C   UNL     1      -2.214   2.321  25.131  0.00  0.00    -0.013 A 
ATOM     29  C   UNL     1      -2.866   2.306  24.625  0.00  0.00    -0.001 A 
ATOM     30  C   UNL     1      -3.443   2.893  24.678  0.00  0.00    +0.037 A 
BRANCH   3   2
ATOM      1  C   UNL     1      -4.729   3.879  25.443  0.00  0.00    +0.252 C 
ATOM      2  O   UNL     1      -3.945   4.084  25.288  0.00  0.00    -0.471 OA
ENDBRANCH   3   2
ENDBRANCH   7   6
ENDBRANCH   8   7
BRANCH  17  18
ATOM     18  C   UNL     1       2.896   0.200  22.356  0.00  0.00    +0.120 C 
BRANCH  18  19
ATOM     19  C   UNL     1       3.611   0.233  22.766  0.00  0.00    -0.002 A 
ATOM     20  C   UNL     1       3.860  -0.415  23.213  0.00  0.00    -0.003 A 
ATOM     21  C   UNL     1       4.575  -0.383  23.623  0.00  0.00    -0.000 A 
ATOM     22  C   UNL     1       5.041   0.297  23.587  0.00  0.00    -0.000 A 
ATOM     23  C   UNL     1       4.792   0.945  23.141  0.00  0.00    -0.000 A 
ATOM     24  C   UNL     1       4.077   0.912  22.730  0.00  0.00    -0.003 A 
ENDBRANCH  18  19
ENDBRANCH  17  18
TORSDOF 5
ENDMDL
