MODEL 1
REMARK VINA RESULT:     -10.5      0.000      0.000
REMARK  Name = 
REMARK  3 active torsions:
REMARK  status: ('A' for Active; 'I' for Inactive)
REMARK    1  A    between atoms: C_6  and  C_7
REMARK    2  A    between atoms: C_9  and  C_12
REMARK    3  A    between atoms: C_16  and  N_18
REMARK                            x       y       z     vdW  Elec       q    Type
REMARK                         _______ _______ _______ _____ _____    ______ ____
ROOT
ATOM     12  C   UNL     1      -3.833   1.856  24.497  0.00  0.00    +0.043 A 
ATOM     13  C   UNL     1      -4.363   2.330  24.079  0.00  0.00    +0.024 A 
ATOM     14  C   UNL     1      -4.150   3.097  23.864  0.00  0.00    +0.100 A 
ATOM     15  N   UNL     1      -3.406   3.391  24.068  0.00  0.00    -0.229 NA
ATOM     16  C   UNL     1      -2.876   2.917  24.486  0.00  0.00    +0.132 A 
ATOM     17  C   UNL     1      -3.089   2.149  24.701  0.00  0.00    +0.037 A 
ENDROOT
BRANCH  16  18
ATOM     18  N   UNL     1      -2.132   3.211  24.690  0.00  0.00    -0.288 N 
ATOM     19  C   UNL     1      -1.457   2.912  24.324  0.00  0.00    +0.124 C 
ATOM     20  C   UNL     1      -0.713   3.206  24.528  0.00  0.00    +0.164 C 
ATOM     21  O   UNL     1      -0.646   3.798  25.098  0.00  0.00    -0.350 OA
ATOM     22  C   UNL     1      -1.322   4.097  25.464  0.00  0.00    +0.164 C 
ATOM     23  C   UNL     1      -2.066   3.804  25.261  0.00  0.00    +0.124 C 
ENDBRANCH  16  18
BRANCH  12   9
ATOM      7  C   UNL     1      -4.113  -0.244  24.763  0.00  0.00    +0.251 A 
ATOM      8  N   UNL     1      -3.746   0.392  24.388  0.00  0.00    -0.190 NA
ATOM      9  C   UNL     1      -4.047   1.088  24.711  0.00  0.00    +0.203 A 
ATOM     10  N   UNL     1      -4.601   0.883  25.287  0.00  0.00    -0.056 NA
ATOM     11  O   UNL     1      -4.642   0.060  25.319  0.00  0.00    -0.336 OA
BRANCH   7   6
ATOM      1  C   UNL     1      -3.257  -1.394  25.843  0.00  0.00    +0.090 C 
ATOM      2  N   UNL     1      -3.583  -1.572  25.107  0.00  0.00    -0.265 NA
ATOM      3  C   UNL     1      -3.574  -2.309  24.737  0.00  0.00    +0.073 C 
ATOM      4  C   UNL     1      -3.961  -2.236  24.012  0.00  0.00    +0.019 C 
ATOM      5  C   UNL     1      -4.210  -1.453  23.934  0.00  0.00    +0.027 C 
ATOM      6  C   UNL     1      -3.977  -1.042  24.611  0.00  0.00    +0.138 C 
ENDBRANCH   7   6
ENDBRANCH  12   9
TORSDOF 3
ENDMDL
MODEL 2
REMARK VINA RESULT:     -10.4      1.042      4.643
REMARK  Name = 
REMARK  3 active torsions:
REMARK  status: ('A' for Active; 'I' for Inactive)
REMARK    1  A    between atoms: C_6  and  C_7
REMARK    2  A    between atoms: C_9  and  C_12
REMARK    3  A    between atoms: C_16  and  N_18
REMARK                            x       y       z     vdW  Elec       q    Type
REMARK                         _______ _______ _______ _____ _____    ______ ____
ROOT
ATOM     12  C   UNL     1      -4.045   1.656  24.692  0.00  0.00    +0.043 A 
ATOM     13  C   UNL     1      -4.803   1.842  24.958  0.00  0.00    +0.024 A 
ATOM     14  C   UNL     1      -5.319   1.241  25.189  0.00  0.00    +0.100 A 
ATOM     15  N   UNL     1      -5.076   0.454  25.155  0.00  0.00    -0.229 NA
ATOM     16  C   UNL     1      -4.318   0.267  24.889  0.00  0.00    +0.132 A 
ATOM     17  C   UNL     1      -3.802   0.868  24.658  0.00  0.00    +0.037 A 
ENDROOT
BRANCH  16  18
ATOM     18  N   UNL     1      -4.075  -0.521  24.855  0.00  0.00    -0.288 N 
ATOM     19  C   UNL     1      -3.680  -0.859  25.495  0.00  0.00    +0.124 C 
ATOM     20  C   UNL     1      -3.437  -1.646  25.460  0.00  0.00    +0.164 C 
ATOM     21  O   UNL     1      -3.589  -2.096  24.785  0.00  0.00    -0.350 OA
ATOM     22  C   UNL     1      -3.984  -1.758  24.145  0.00  0.00    +0.164 C 
ATOM     23  C   UNL     1      -4.227  -0.970  24.179  0.00  0.00    +0.124 C 
ENDBRANCH  16  18
BRANCH  12   9
ATOM      7  C   UNL     1      -2.589   3.204  24.488  0.00  0.00    +0.251 A 
ATOM      8  N   UNL     1      -2.987   2.644  24.945  0.00  0.00    -0.190 NA
ATOM      9  C   UNL     1      -3.530   2.258  24.461  0.00  0.00    +0.203 A 
ATOM     10  N   UNL     1      -3.469   2.578  23.703  0.00  0.00    -0.056 NA
ATOM     11  O   UNL     1      -2.887   3.163  23.720  0.00  0.00    -0.336 OA
BRANCH   7   6
ATOM      1  C   UNL     1      -0.820   2.944  24.328  0.00  0.00    +0.090 C 
ATOM      2  N   UNL     1      -1.185   3.596  24.677  0.00  0.00    -0.265 NA
ATOM      3  C   UNL     1      -0.801   4.243  25.015  0.00  0.00    +0.073 C 
ATOM      4  C   UNL     1      -1.376   4.762  25.298  0.00  0.00    +0.019 C 
ATOM      5  C   UNL     1      -2.116   4.436  25.135  0.00  0.00    +0.027 C 
ATOM      6  C   UNL     1      -1.998   3.715  24.751  0.00  0.00    +0.138 C 
ENDBRANCH   7   6
ENDBRANCH  12   9
TORSDOF 3
ENDMDL
MODEL 3
REMARK VINA RESULT:      -9.9      1.832      2.397
REMARK  Name = 
REMARK  3 active torsions:
REMARK  status: ('A' for Active; 'I' for Inactive)
REMARK    1  A    between atoms: C_6  and  C_7
REMARK    2  A    between atoms: C_9  and  C_12
REMARK    3  A    between atoms: C_16  and  N_18
REMARK                            x       y       z     vdW  Elec       q    Type
REMARK                         _______ _______ _______ _____ _____    ______ ____
ROOT
ATOM     12  C   UNL     1      -3.185   1.215  24.271  0.00  0.00    +0.043 A 
ATOM     13  C   UNL     1      -2.915   1.523  23.555  0.00  0.00    +0.024 A 
ATOM     14  C   UNL     1      -3.192   2.252  23.288  0.00  0.00    +0.100 A 
ATOM     15  N   UNL     1      -3.741   2.674  23.737  0.00  0.00    -0.229 NA
ATOM     16  C   UNL     1      -4.012   2.366  24.453  0.00  0.00    +0.132 A 
ATOM     17  C   UNL     1      -3.734   1.636  24.720  0.00  0.00    +0.037 A 
ENDROOT
BRANCH  16  18
ATOM     18  N   UNL     1      -4.560   2.788  24.902  0.00  0.00    -0.288 N 
ATOM     19  C   UNL     1      -5.312   2.476  25.035  0.00  0.00    +0.124 C 
ATOM     20  C   UNL     1      -5.860   2.897  25.484  0.00  0.00    +0.164 C 
ATOM     21  O   UNL     1      -5.657   3.631  25.801  0.00  0.00    -0.350 OA
ATOM     22  C   UNL     1      -4.905   3.944  25.668  0.00  0.00    +0.164 C 
ATOM     23  C   UNL     1      -4.357   3.522  25.219  0.00  0.00    +0.124 C 
ENDBRANCH  16  18
BRANCH  12   9
ATOM      7  C   UNL     1      -2.762  -0.829  24.718  0.00  0.00    +0.251 A 
ATOM      8  N   UNL     1      -3.203  -0.254  24.324  0.00  0.00    -0.190 NA
ATOM      9  C   UNL     1      -2.907   0.485  24.537  0.00  0.00    +0.203 A 
ATOM     10  N   UNL     1      -2.282   0.368  25.063  0.00  0.00    -0.056 NA
ATOM     11  O   UNL     1      -2.192  -0.445  25.175  0.00  0.00    -0.336 OA
BRANCH   7   6
ATOM      1  C   UNL     1      -1.487  -2.043  24.367  0.00  0.00    +0.090 C 
ATOM      2  N   UNL     1      -2.284  -2.203  24.504  0.00  0.00    -0.265 NA
ATOM      3  C   UNL     1      -2.636  -2.949  24.505  0.00  0.00    +0.073 C 
ATOM      4  C   UNL     1      -3.439  -2.852  24.666  0.00  0.00    +0.019 C 
ATOM      5  C   UNL     1      -3.584  -2.046  24.766  0.00  0.00    +0.027 C 
ATOM      6  C   UNL     1      -2.870  -1.645  24.666  0.00  0.00    +0.138 C 
ENDBRANCH   7   6
ENDBRANCH  12   9
TORSDOF 3
ENDMDL
MODEL 4
REMARK VINA RESULT:      -9.8      2.332      3.744
REMARK  Name = 
REMARK  3 active torsions:
REMARK  status: ('A' for Active; 'I' for Inactive)
REMARK    1  A    between atoms: C_6  and  C_7
REMARK    2  A    between atoms: C_9  and  C_12
REMARK    3  A    between atoms: C_16  and  N_18
REMARK                            x       y       z     vdW  Elec       q    Type
REMARK                         _______ _______ _______ _____ _____    ______ ____
ROOT
ATOM     12  C   UNL     1      -1.764   2.191  24.934  0.00  0.00    +0.043 A 
ATOM     13  C   UNL     1      -1.299   2.632  25.453  0.00  0.00    +0.024 A 
ATOM     14  C   UNL     1      -0.529   2.390  25.624  0.00  0.00    +0.100 A 
ATOM     15  N   UNL     1      -0.225   1.708  25.276  0.00  0.00    -0.229 NA
ATOM     16  C   UNL     1      -0.689   1.266  24.757  0.00  0.00    +0.132 A 
ATOM     17  C   UNL     1      -1.460   1.508  24.586  0.00  0.00    +0.037 A 
ENDROOT
BRANCH  16  18
ATOM     18  N   UNL     1      -0.385   0.583  24.409  0.00  0.00    -0.288 N 
ATOM     19  C   UNL     1       0.117   0.642  23.757  0.00  0.00    +0.124 C 
ATOM     20  C   UNL     1       0.422  -0.041  23.409  0.00  0.00    +0.164 C 
ATOM     21  O   UNL     1       0.225  -0.783  23.712  0.00  0.00    -0.350 OA
ATOM     22  C   UNL     1      -0.278  -0.841  24.365  0.00  0.00    +0.164 C 
ATOM     23  C   UNL     1      -0.582  -0.158  24.713  0.00  0.00    +0.124 C 
ENDBRANCH  16  18
BRANCH  12   9
ATOM      7  C   UNL     1      -3.864   2.549  24.786  0.00  0.00    +0.251 A 
ATOM      8  N   UNL     1      -3.222   2.158  25.125  0.00  0.00    -0.190 NA
ATOM      9  C   UNL     1      -2.534   2.434  24.764  0.00  0.00    +0.203 A 
ATOM     10  N   UNL     1      -2.751   2.996  24.200  0.00  0.00    -0.056 NA
ATOM     11  O   UNL     1      -3.573   3.068  24.214  0.00  0.00    -0.336 OA
BRANCH   7   6
ATOM      1  C   UNL     1      -4.875   3.678  25.748  0.00  0.00    +0.090 C 
ATOM      2  N   UNL     1      -5.122   2.961  25.426  0.00  0.00    -0.265 NA
ATOM      3  C   UNL     1      -5.878   2.636  25.488  0.00  0.00    +0.073 C 
ATOM      4  C   UNL     1      -5.880   1.916  25.085  0.00  0.00    +0.019 C 
ATOM      5  C   UNL     1      -5.126   1.796  24.773  0.00  0.00    +0.027 C 
ATOM      6  C   UNL     1      -4.657   2.442  24.983  0.00  0.00    +0.138 C 
ENDBRANCH   7   6
ENDBRANCH  12   9
TORSDOF 3
ENDMDL
MODEL 5
REMARK VINA RESULT:      -9.8      1.667      5.069
REMARK  Name = 
REMARK  3 active torsions:
REMARK  status: ('A' for Active; 'I' for Inactive)
REMARK    1  A    between atoms: C_6  and  C_7
REMARK    2  A    between atoms: C_9  and  C_12
REMARK    3  A    between atoms: C_16  and  N_18
REMARK                            x       y       z     vdW  Elec       q    Type
REMARK                         _______ _______ _______ _____ _____    ______ ____
ROOT
ATOM     12  C   UNL     1      -1.092   0.976  25.037  0.00  0.00    +0.043 A 
ATOM     13  C   UNL     1      -0.449   0.612  24.670  0.00  0.00    +0.024 A 
ATOM     14  C   UNL     1      -0.525  -0.150  24.365  0.00  0.00    +0.100 A 
ATOM     15  N   UNL     1      -1.245  -0.549  24.427  0.00  0.00    -0.229 NA
ATOM     16  C   UNL     1      -1.888  -0.186  24.794  0.00  0.00    +0.132 A 
ATOM     17  C   UNL     1      -1.811   0.577  25.099  0.00  0.00    +0.037 A 
ENDROOT
BRANCH  16  18
ATOM     18  N   UNL     1      -2.608  -0.584  24.856  0.00  0.00    -0.288 N 
ATOM     19  C   UNL     1      -2.733  -1.114  25.475  0.00  0.00    +0.124 C 
ATOM     20  C   UNL     1      -3.452  -1.513  25.537  0.00  0.00    +0.164 C 
ATOM     21  O   UNL     1      -4.046  -1.382  24.980  0.00  0.00    -0.350 OA
ATOM     22  C   UNL     1      -3.921  -0.852  24.360  0.00  0.00    +0.164 C 
ATOM     23  C   UNL     1      -3.201  -0.453  24.298  0.00  0.00    +0.124 C 
ENDBRANCH  16  18
BRANCH  12   9
ATOM      7  C   UNL     1      -1.075   3.066  25.476  0.00  0.00    +0.251 A 
ATOM      8  N   UNL     1      -1.260   2.435  24.977  0.00  0.00    -0.190 NA
ATOM      9  C   UNL     1      -1.014   1.739  25.342  0.00  0.00    +0.203 A 
ATOM     10  N   UNL     1      -0.676   1.938  26.069  0.00  0.00    -0.056 NA
ATOM     11  O   UNL     1      -0.714   2.758  26.151  0.00  0.00    -0.336 OA
BRANCH   7   6
ATOM      1  C   UNL     1      -2.544   3.974  25.962  0.00  0.00    +0.090 C 
ATOM      2  N   UNL     1      -1.900   4.281  25.551  0.00  0.00    -0.265 NA
ATOM      3  C   UNL     1      -1.816   5.059  25.290  0.00  0.00    +0.073 C 
ATOM      4  C   UNL     1      -1.088   5.122  24.905  0.00  0.00    +0.019 C 
ATOM      5  C   UNL     1      -0.723   4.383  24.928  0.00  0.00    +0.027 C 
ATOM      6  C   UNL     1      -1.224   3.863  25.327  0.00  0.00    +0.138 C 
ENDBRANCH   7   6
ENDBRANCH  12   9
TORSDOF 3
ENDMDL
MODEL 6
REMARK VINA RESULT:      -9.7      1.885      4.135
REMARK  Name = 
REMARK  3 active torsions:
REMARK  status: ('A' for Active; 'I' for Inactive)
REMARK    1  A    between atoms: C_6  and  C_7
REMARK    2  A    between atoms: C_9  and  C_12
REMARK    3  A    between atoms: C_16  and  N_18
REMARK                            x       y       z     vdW  Elec       q    Type
REMARK                         _______ _______ _______ _____ _____    ______ ____
ROOT
ATOM     12  C   UNL     1      -3.628  -0.010  24.403  0.00  0.00    +0.043 A 
ATOM     13  C   UNL     1      -4.159  -0.627  24.272  0.00  0.00    +0.024 A 
ATOM     14  C   UNL     1      -3.906  -1.410  24.334  0.00  0.00    +0.100 A 
ATOM     15  N   UNL     1      -3.121  -1.575  24.527  0.00  0.00    -0.229 NA
ATOM     16  C   UNL     1      -2.589  -0.958  24.658  0.00  0.00    +0.132 A 
ATOM     17  C   UNL     1      -2.843  -0.175  24.595  0.00  0.00    +0.037 A 
ENDROOT
BRANCH  16  18
ATOM     18  N   UNL     1      -1.804  -1.123  24.851  0.00  0.00    -0.288 N 
ATOM     19  C   UNL     1      -1.267  -1.322  24.258  0.00  0.00    +0.124 C 
ATOM     20  C   UNL     1      -0.482  -1.487  24.451  0.00  0.00    +0.164 C 
ATOM     21  O   UNL     1      -0.234  -1.453  25.237  0.00  0.00    -0.350 OA
ATOM     22  C   UNL     1      -0.772  -1.254  25.830  0.00  0.00    +0.164 C 
ATOM     23  C   UNL     1      -1.557  -1.088  25.637  0.00  0.00    +0.124 C 
ENDBRANCH  16  18
BRANCH  12   9
ATOM      7  C   UNL     1      -4.423   1.959  24.626  0.00  0.00    +0.251 A 
ATOM      8  N   UNL     1      -4.273   1.204  24.923  0.00  0.00    -0.190 NA
ATOM      9  C   UNL     1      -3.882   0.773  24.340  0.00  0.00    +0.203 A 
ATOM     10  N   UNL     1      -3.789   1.261  23.681  0.00  0.00    -0.056 NA
ATOM     11  O   UNL     1      -4.123   1.994  23.858  0.00  0.00    -0.336 OA
BRANCH   7   6
ATOM      1  C   UNL     1      -3.675   3.503  25.155  0.00  0.00    +0.090 C 
ATOM      2  N   UNL     1      -4.460   3.281  25.268  0.00  0.00    -0.265 NA
ATOM      3  C   UNL     1      -5.041   3.730  25.645  0.00  0.00    +0.073 C 
ATOM      4  C   UNL     1      -5.744   3.298  25.635  0.00  0.00    +0.019 C 
ATOM      5  C   UNL     1      -5.598   2.582  25.252  0.00  0.00    +0.027 C 
ATOM      6  C   UNL     1      -4.804   2.571  25.025  0.00  0.00    +0.138 C 
ENDBRANCH   7   6
ENDBRANCH  12   9
TORSDOF 3
ENDMDL
