REMARK  Name = 
REMARK  5 active torsions:
REMARK  status: ('A' for Active; 'I' for Inactive)
REMARK    1  A    between atoms: O_2  and  C_3
REMARK    2  A    between atoms: C_6  and  C_9
REMARK    3  A    between atoms: N_14  and  C_15
REMARK    4  A    between atoms: C_19  and  N_23
REMARK    5  A    between atoms: C_24  and  C_26
REMARK                            x       y       z     vdW  Elec       q    Type
REMARK                         _______ _______ _______ _____ _____    ______ ____
ROOT
ATOM      9  C   UNL     1      -0.854  -2.835   0.000  0.00  0.00    +0.086 A 
ATOM     10  C   UNL     1      -1.406  -2.222   0.000  0.00  0.00    +0.040 A 
ATOM     11  C   UNL     1      -1.151  -1.437   0.000  0.00  0.00    +0.103 A 
ATOM     12  N   UNL     1      -0.344  -1.265   0.000  0.00  0.00    -0.211 NA
ATOM     13  C   UNL     1       0.208  -1.879   0.000  0.00  0.00    +0.237 A 
ATOM     14  N   UNL     1       1.015  -1.707   0.000  0.00  0.00    -0.200 NA
ATOM     30  N   UNL     1      -0.047  -2.663   0.000  0.00  0.00    -0.212 NA
ENDROOT
BRANCH  14  15
ATOM     15  C   UNL     1       1.270  -0.922   0.000  0.00  0.00    +0.154 C 
ATOM     16  C   UNL     1       0.785  -0.255   0.000  0.00  0.00    +0.166 C 
ATOM     17  O   UNL     1       1.270   0.412   0.000  0.00  0.00    -0.350 OA
ATOM     18  C   UNL     1       2.054   0.158   0.000  0.00  0.00    +0.166 C 
ATOM     19  C   UNL     1       2.839   0.412   0.000  0.00  0.00    +0.154 C 
ATOM     20  C   UNL     1       3.324  -0.255   0.000  0.00  0.00    +0.166 C 
ATOM     21  O   UNL     1       2.839  -0.922   0.000  0.00  0.00    -0.350 OA
ATOM     22  C   UNL     1       2.054  -0.667   0.000  0.00  0.00    +0.166 C 
BRANCH  19  23
ATOM     23  N   UNL     1       3.094   1.197   0.000  0.00  0.00    -0.202 NA
ATOM     24  C   UNL     1       3.901   1.369   0.000  0.00  0.00    +0.241 C 
ATOM     25  O   UNL     1       4.453   0.756   0.000  0.00  0.00    -0.273 OA
BRANCH  24  26
ATOM     26  C   UNL     1       4.156   2.153   0.000  0.00  0.00    +0.071 C 
ATOM     27  C   UNL     1       4.411   2.938   0.000  0.00  0.00    +0.009 C 
ATOM     28  C   UNL     1       4.940   1.898   0.000  0.00  0.00    +0.009 C 
ATOM     29  C   UNL     1       3.371   2.408   0.000  0.00  0.00    +0.009 C 
ENDBRANCH  24  26
ENDBRANCH  19  23
ENDBRANCH  14  15
BRANCH   9   6
ATOM      3  C   UNL     1      -1.619  -5.189   0.000  0.00  0.00    +0.139 A 
ATOM      4  C   UNL     1      -2.171  -4.575   0.000  0.00  0.00    +0.037 A 
ATOM      5  C   UNL     1      -1.916  -3.791   0.000  0.00  0.00    +0.005 A 
ATOM      6  C   UNL     1      -1.109  -3.619   0.000  0.00  0.00    +0.018 A 
ATOM      7  C   UNL     1      -0.557  -4.232   0.000  0.00  0.00    +0.005 A 
ATOM      8  C   UNL     1      -0.812  -5.017   0.000  0.00  0.00    +0.037 A 
BRANCH   3   2
ATOM      1  C   UNL     1      -1.322  -6.586   0.000  0.00  0.00    +0.252 C 
ATOM      2  O   UNL     1      -1.874  -5.973   0.000  0.00  0.00    -0.471 OA
ENDBRANCH   3   2
ENDBRANCH   9   6
TORSDOF 5
