MODEL 1
REMARK VINA RESULT:     -12.7      0.000      0.000
REMARK  Name = 
REMARK  2 active torsions:
REMARK  status: ('A' for Active; 'I' for Inactive)
REMARK    1  A    between atoms: C_7  and  C_9
REMARK    2  A    between atoms: N_12  and  C_14
REMARK                            x       y       z     vdW  Elec       q    Type
REMARK                         _______ _______ _______ _____ _____    ______ ____
ROOT
ATOM      9  C   UNL     1      -3.671   1.421  24.853  0.00  0.00    +0.076 C 
ATOM     10  C   UNL     1      -4.485   1.355  24.740  0.00  0.00    +0.026 C 
ATOM     11  C   UNL     1      -4.667   0.555  24.652  0.00  0.00    +0.073 C 
ATOM     12  N   UNL     1      -3.965   0.126  24.711  0.00  0.00    -0.274 NA
ATOM     13  C   UNL     1      -3.349   0.662  24.835  0.00  0.00    +0.080 C 
ENDROOT
BRANCH   9   7
ATOM      1  C   UNL     1      -0.897   4.726  24.972  0.00  0.00    +0.031 C 
ATOM      2  C   UNL     1      -1.570   4.268  25.101  0.00  0.00    -0.020 A 
ATOM      3  C   UNL     1      -1.622   3.511  24.779  0.00  0.00    +0.016 A 
ATOM      4  C   UNL     1      -2.296   3.052  24.909  0.00  0.00    +0.100 A 
ATOM      5  C   UNL     1      -2.917   3.352  25.361  0.00  0.00    +0.100 A 
ATOM      6  N   UNL     1      -3.508   2.777  25.395  0.00  0.00    -0.229 NA
ATOM      7  C   UNL     1      -3.251   2.123  24.964  0.00  0.00    +0.140 A 
ATOM      8  N   UNL     1      -2.503   2.293  24.664  0.00  0.00    -0.229 NA
ATOM     20  C   UNL     1      -2.865   4.110  25.684  0.00  0.00    +0.020 A 
ATOM     21  C   UNL     1      -2.191   4.568  25.554  0.00  0.00    -0.003 A 
ENDBRANCH   9   7
BRANCH  12  14
ATOM     14  C   UNL     1      -3.891  -0.693  24.656  0.00  0.00    +0.058 C 
ATOM     15  C   UNL     1      -4.103  -1.081  23.959  0.00  0.00    +0.016 C 
ATOM     16  C   UNL     1      -4.029  -1.900  23.904  0.00  0.00    +0.001 C 
ATOM     17  C   UNL     1      -3.743  -2.333  24.545  0.00  0.00    +0.000 C 
ATOM     18  C   UNL     1      -3.531  -1.947  25.242  0.00  0.00    +0.001 C 
ATOM     19  C   UNL     1      -3.605  -1.127  25.298  0.00  0.00    +0.016 C 
ENDBRANCH  12  14
TORSDOF 2
ENDMDL
MODEL 2
REMARK VINA RESULT:     -12.4      0.526      4.853
REMARK  Name = 
REMARK  2 active torsions:
REMARK  status: ('A' for Active; 'I' for Inactive)
REMARK    1  A    between atoms: C_7  and  C_9
REMARK    2  A    between atoms: N_12  and  C_14
REMARK                            x       y       z     vdW  Elec       q    Type
REMARK                         _______ _______ _______ _____ _____    ______ ____
ROOT
ATOM      9  C   UNL     1      -3.559   1.394  24.694  0.00  0.00    +0.076 C 
ATOM     10  C   UNL     1      -4.150   1.903  24.426  0.00  0.00    +0.026 C 
ATOM     11  C   UNL     1      -3.883   2.678  24.522  0.00  0.00    +0.073 C 
ATOM     12  N   UNL     1      -3.126   2.648  24.849  0.00  0.00    -0.274 NA
ATOM     13  C   UNL     1      -2.926   1.854  24.955  0.00  0.00    +0.080 C 
ENDROOT
BRANCH   9   7
ATOM      1  C   UNL     1      -4.022  -2.832  23.944  0.00  0.00    +0.031 C 
ATOM      2  C   UNL     1      -3.851  -2.122  24.327  0.00  0.00    -0.020 A 
ATOM      3  C   UNL     1      -3.960  -1.405  23.935  0.00  0.00    +0.016 A 
ATOM      4  C   UNL     1      -3.789  -0.694  24.318  0.00  0.00    +0.100 A 
ATOM      5  C   UNL     1      -3.509  -0.702  25.094  0.00  0.00    +0.100 A 
ATOM      6  N   UNL     1      -3.388   0.080  25.329  0.00  0.00    -0.229 NA
ATOM      7  C   UNL     1      -3.594   0.570  24.699  0.00  0.00    +0.140 A 
ATOM      8  N   UNL     1      -3.842   0.091  24.075  0.00  0.00    -0.229 NA
ATOM     20  C   UNL     1      -3.399  -1.419  25.487  0.00  0.00    +0.020 A 
ATOM     21  C   UNL     1      -3.570  -2.129  25.103  0.00  0.00    -0.003 A 
ENDBRANCH   9   7
BRANCH  12  14
ATOM     14  C   UNL     1      -2.653   3.296  25.037  0.00  0.00    +0.058 C 
ATOM     15  C   UNL     1      -1.911   3.381  24.686  0.00  0.00    +0.016 C 
ATOM     16  C   UNL     1      -1.437   4.030  24.875  0.00  0.00    +0.001 C 
ATOM     17  C   UNL     1      -1.705   4.593  25.413  0.00  0.00    +0.000 C 
ATOM     18  C   UNL     1      -2.446   4.510  25.764  0.00  0.00    +0.001 C 
ATOM     19  C   UNL     1      -2.921   3.861  25.576  0.00  0.00    +0.016 C 
ENDBRANCH  12  14
TORSDOF 2
ENDMDL
