MODEL 1
REMARK VINA RESULT:     -18.3      0.000      0.000
REMARK  Name = 
REMARK  3 active torsions:
REMARK  status: ('A' for Active; 'I' for Inactive)
REMARK    1  A    between atoms: N_9  and  C_10
REMARK    2  A    between atoms: C_10  and  C_11
REMARK    3  A    between atoms: C_21  and  C_22
REMARK                            x       y       z     vdW  Elec       q    Type
REMARK                         _______ _______ _______ _____ _____    ______ ____
ROOT
ATOM      1  O   UNL     1      -2.773   0.969  25.008  0.00  0.00    -0.267 OA
ATOM      2  C   UNL     1      -3.560   1.215  25.063  0.00  0.00    +0.261 A 
ATOM      3  N   UNL     1      -3.739   2.020  25.084  0.00  0.00    -0.299 N 
ATOM      4  C   UNL     1      -4.496   1.668  25.130  0.00  0.00    +0.110 C 
ATOM      5  C   UNL     1      -5.054   2.482  25.176  0.00  0.00    +0.039 C 
ATOM      6  C   UNL     1      -5.644   3.042  25.221  0.00  0.00    +0.011 C 
ATOM      7  C   UNL     1      -4.944   3.028  25.175  0.00  0.00    +0.054 C 
ATOM      8  C   UNL     1      -4.213   3.584  25.133  0.00  0.00    +0.078 C 
ATOM      9  N   UNL     1      -3.628   3.023  25.088  0.00  0.00    -0.269 NA
ATOM     17  C   UNL     1      -4.285   3.055  25.132  0.00  0.00    +0.074 C 
ATOM     18  C   UNL     1      -4.524   2.266  25.139  0.00  0.00    +0.041 A 
ATOM     19  C   UNL     1      -5.130   1.707  25.172  0.00  0.00    +0.013 A 
ATOM     20  C   UNL     1      -4.950   0.903  25.152  0.00  0.00    +0.006 A 
ATOM     21  C   UNL     1      -4.165   0.656  25.097  0.00  0.00    +0.056 A 
ENDROOT
BRANCH  21  22
ATOM     22  C   UNL     1      -3.985  -0.149  25.076  0.00  0.00    +0.005 A 
ATOM     23  C   UNL     1      -3.613  -0.505  25.721  0.00  0.00    +0.000 A 
ATOM     24  C   UNL     1      -3.433  -1.310  25.700  0.00  0.00    +0.000 A 
ATOM     25  C   UNL     1      -3.626  -1.759  25.034  0.00  0.00    +0.000 A 
ATOM     26  C   UNL     1      -3.446  -2.564  25.013  0.00  0.00    +0.000 A 
ATOM     27  C   UNL     1      -3.638  -3.012  24.349  0.00  0.00    +0.000 A 
ATOM     28  C   UNL     1      -4.010  -2.655  23.705  0.00  0.00    +0.000 A 
ATOM     29  C   UNL     1      -4.190  -1.851  23.725  0.00  0.00    +0.000 A 
ATOM     30  C   UNL     1      -3.998  -1.402  24.390  0.00  0.00    +0.000 A 
ATOM     31  C   UNL     1      -4.178  -0.597  24.411  0.00  0.00    +0.000 A 
ENDBRANCH  21  22
BRANCH   9  10
ATOM     10  C   UNL     1      -2.873   2.698  25.034  0.00  0.00    +0.099 C 
BRANCH  10  11
ATOM     11  C   UNL     1      -2.211   3.190  25.021  0.00  0.00    -0.006 A 
ATOM     12  C   UNL     1      -1.920   3.511  25.723  0.00  0.00    -0.003 A 
ATOM     13  C   UNL     1      -1.259   4.004  25.709  0.00  0.00    -0.000 A 
ATOM     14  C   UNL     1      -0.888   4.176  24.993  0.00  0.00    -0.000 A 
ATOM     15  C   UNL     1      -1.179   3.855  24.290  0.00  0.00    -0.000 A 
ATOM     16  C   UNL     1      -1.840   3.363  24.304  0.00  0.00    -0.003 A 
ENDBRANCH  10  11
ENDBRANCH   9  10
TORSDOF 3
ENDMDL
MODEL 2
REMARK VINA RESULT:     -16.0      0.724      4.586
REMARK  Name = 
REMARK  3 active torsions:
REMARK  status: ('A' for Active; 'I' for Inactive)
REMARK    1  A    between atoms: N_9  and  C_10
REMARK    2  A    between atoms: C_10  and  C_11
REMARK    3  A    between atoms: C_21  and  C_22
REMARK                            x       y       z     vdW  Elec       q    Type
REMARK                         _______ _______ _______ _____ _____    ______ ____
ROOT
ATOM      1  O   UNL     1      -2.643   1.371  24.785  0.00  0.00    -0.267 OA
ATOM      2  C   UNL     1      -3.353   1.775  24.904  0.00  0.00    +0.261 A 
ATOM      3  N   UNL     1      -4.064   1.359  24.938  0.00  0.00    -0.299 N 
ATOM      4  C   UNL     1      -4.316   2.148  25.046  0.00  0.00    +0.110 C 
ATOM      5  C   UNL     1      -5.289   2.001  25.136  0.00  0.00    +0.039 C 
ATOM      6  C   UNL     1      -6.097   2.049  25.229  0.00  0.00    +0.011 C 
ATOM      7  C   UNL     1      -5.615   1.549  25.126  0.00  0.00    +0.054 C 
ATOM      8  C   UNL     1      -5.530   0.639  25.023  0.00  0.00    +0.078 C 
ATOM      9  N   UNL     1      -4.725   0.595  24.931  0.00  0.00    -0.269 NA
ATOM     17  C   UNL     1      -5.190   1.052  25.029  0.00  0.00    +0.074 C 
ATOM     18  C   UNL     1      -4.773   1.762  25.056  0.00  0.00    +0.041 A 
ATOM     19  C   UNL     1      -4.771   2.583  25.140  0.00  0.00    +0.013 A 
ATOM     20  C   UNL     1      -4.061   2.999  25.106  0.00  0.00    +0.006 A 
ATOM     21  C   UNL     1      -3.351   2.596  24.987  0.00  0.00    +0.056 A 
ENDROOT
BRANCH  21  22
ATOM     22  C   UNL     1      -2.640   3.013  24.953  0.00  0.00    +0.005 A 
ATOM     23  C   UNL     1      -1.931   2.609  24.829  0.00  0.00    +0.000 A 
ATOM     24  C   UNL     1      -1.219   3.025  24.795  0.00  0.00    +0.000 A 
ATOM     25  C   UNL     1      -1.217   3.846  24.884  0.00  0.00    +0.000 A 
ATOM     26  C   UNL     1      -0.506   4.263  24.850  0.00  0.00    +0.000 A 
ATOM     27  C   UNL     1      -0.504   5.082  24.939  0.00  0.00    +0.000 A 
ATOM     28  C   UNL     1      -1.213   5.485  25.063  0.00  0.00    +0.000 A 
ATOM     29  C   UNL     1      -1.923   5.069  25.097  0.00  0.00    +0.000 A 
ATOM     30  C   UNL     1      -1.926   4.249  25.008  0.00  0.00    +0.000 A 
ATOM     31  C   UNL     1      -2.637   3.833  25.042  0.00  0.00    +0.000 A 
ENDBRANCH  21  22
BRANCH   9  10
ATOM     10  C   UNL     1      -3.977   0.268  24.817  0.00  0.00    +0.099 C 
BRANCH  10  11
ATOM     11  C   UNL     1      -3.892  -0.550  24.743  0.00  0.00    -0.006 A 
ATOM     12  C   UNL     1      -4.047  -0.918  24.022  0.00  0.00    -0.003 A 
ATOM     13  C   UNL     1      -3.962  -1.735  23.949  0.00  0.00    -0.000 A 
ATOM     14  C   UNL     1      -3.722  -2.184  24.597  0.00  0.00    -0.000 A 
ATOM     15  C   UNL     1      -3.566  -1.816  25.319  0.00  0.00    -0.000 A 
ATOM     16  C   UNL     1      -3.651  -0.999  25.393  0.00  0.00    -0.003 A 
ENDBRANCH  10  11
ENDBRANCH   9  10
TORSDOF 3
ENDMDL
MODEL 3
REMARK VINA RESULT:     -15.5      1.748      4.456
REMARK  Name = 
REMARK  3 active torsions:
REMARK  status: ('A' for Active; 'I' for Inactive)
REMARK    1  A    between atoms: N_9  and  C_10
REMARK    2  A    between atoms: C_10  and  C_11
REMARK    3  A    between atoms: C_21  and  C_22
REMARK                            x       y       z     vdW  Elec       q    Type
REMARK                         _______ _______ _______ _____ _____    ______ ____
ROOT
ATOM      1  O   UNL     1      -2.761   0.526  24.843  0.00  0.00    -0.267 OA
ATOM      2  C   UNL     1      -3.353   0.005  24.598  0.00  0.00    +0.261 A 
ATOM      3  N   UNL     1      -3.184  -0.797  24.503  0.00  0.00    -0.299 N 
ATOM      4  C   UNL     1      -3.993  -0.761  24.299  0.00  0.00    +0.110 C 
ATOM      5  C   UNL     1      -4.154  -1.714  24.092  0.00  0.00    +0.039 C 
ATOM      6  C   UNL     1      -4.445  -2.447  23.890  0.00  0.00    +0.011 C 
ATOM      7  C   UNL     1      -3.834  -2.171  24.096  0.00  0.00    +0.054 C 
ATOM      8  C   UNL     1      -2.964  -2.402  24.282  0.00  0.00    +0.078 C 
ATOM      9  N   UNL     1      -2.677  -1.670  24.484  0.00  0.00    -0.269 NA
ATOM     17  C   UNL     1      -3.243  -1.946  24.289  0.00  0.00    +0.074 C 
ATOM     18  C   UNL     1      -3.775  -1.317  24.260  0.00  0.00    +0.041 A 
ATOM     19  C   UNL     1      -4.535  -1.036  24.111  0.00  0.00    +0.013 A 
ATOM     20  C   UNL     1      -4.705  -0.235  24.205  0.00  0.00    +0.006 A 
ATOM     21  C   UNL     1      -4.114   0.286  24.449  0.00  0.00    +0.056 A 
ENDROOT
BRANCH  21  22
ATOM     22  C   UNL     1      -4.283   1.088  24.544  0.00  0.00    +0.005 A 
ATOM     23  C   UNL     1      -3.929   1.646  24.049  0.00  0.00    +0.000 A 
ATOM     24  C   UNL     1      -4.099   2.448  24.144  0.00  0.00    +0.000 A 
ATOM     25  C   UNL     1      -4.622   2.692  24.734  0.00  0.00    +0.000 A 
ATOM     26  C   UNL     1      -4.792   3.494  24.829  0.00  0.00    +0.000 A 
ATOM     27  C   UNL     1      -5.314   3.738  25.417  0.00  0.00    +0.000 A 
ATOM     28  C   UNL     1      -5.668   3.180  25.912  0.00  0.00    +0.000 A 
ATOM     29  C   UNL     1      -5.499   2.379  25.817  0.00  0.00    +0.000 A 
ATOM     30  C   UNL     1      -4.976   2.135  25.228  0.00  0.00    +0.000 A 
ATOM     31  C   UNL     1      -4.806   1.333  25.133  0.00  0.00    +0.000 A 
ENDBRANCH  21  22
BRANCH   9  10
ATOM     10  C   UNL     1      -2.145  -1.088  24.723  0.00  0.00    +0.099 C 
BRANCH  10  11
ATOM     11  C   UNL     1      -1.347  -1.274  24.822  0.00  0.00    -0.006 A 
ATOM     12  C   UNL     1      -1.092  -1.646  25.513  0.00  0.00    -0.003 A 
ATOM     13  C   UNL     1      -0.295  -1.832  25.612  0.00  0.00    -0.000 A 
ATOM     14  C   UNL     1       0.248  -1.647  25.020  0.00  0.00    -0.000 A 
ATOM     15  C   UNL     1      -0.006  -1.275  24.328  0.00  0.00    -0.000 A 
ATOM     16  C   UNL     1      -0.804  -1.089  24.229  0.00  0.00    -0.003 A 
ENDBRANCH  10  11
ENDBRANCH   9  10
TORSDOF 3
ENDMDL
MODEL 4
REMARK VINA RESULT:     -14.6      1.703      2.797
REMARK  Name = 
REMARK  3 active torsions:
REMARK  status: ('A' for Active; 'I' for Inactive)
REMARK    1  A    between atoms: N_9  and  C_10
REMARK    2  A    between atoms: C_10  and  C_11
REMARK    3  A    between atoms: C_21  and  C_22
REMARK                            x       y       z     vdW  Elec       q    Type
REMARK                         _______ _______ _______ _____ _____    ______ ____
ROOT
ATOM      1  O   UNL     1      -2.724   0.905  25.165  0.00  0.00    -0.267 OA
ATOM      2  C   UNL     1      -1.943   0.849  24.905  0.00  0.00    +0.261 A 
ATOM      3  N   UNL     1      -1.479   1.529  24.842  0.00  0.00    -0.299 N 
ATOM      4  C   UNL     1      -0.951   0.931  24.596  0.00  0.00    +0.110 C 
ATOM      5  C   UNL     1      -0.153   1.482  24.408  0.00  0.00    +0.039 C 
ATOM      6  C   UNL     1       0.576   1.787  24.211  0.00  0.00    +0.011 C 
ATOM      7  C   UNL     1      -0.042   2.027  24.441  0.00  0.00    +0.054 C 
ATOM      8  C   UNL     1      -0.470   2.805  24.677  0.00  0.00    +0.078 C 
ATOM      9  N   UNL     1      -1.196   2.497  24.873  0.00  0.00    -0.269 NA
ATOM     17  C   UNL     1      -0.609   2.289  24.657  0.00  0.00    +0.074 C 
ATOM     18  C   UNL     1      -0.699   1.473  24.583  0.00  0.00    +0.041 A 
ATOM     19  C   UNL     1      -0.381   0.738  24.388  0.00  0.00    +0.013 A 
ATOM     20  C   UNL     1      -0.843   0.059  24.451  0.00  0.00    +0.006 A 
ATOM     21  C   UNL     1      -1.624   0.114  24.710  0.00  0.00    +0.056 A 
ENDROOT
BRANCH  21  22
ATOM     22  C   UNL     1      -2.088  -0.566  24.773  0.00  0.00    +0.005 A 
ATOM     23  C   UNL     1      -1.948  -1.105  25.383  0.00  0.00    +0.000 A 
ATOM     24  C   UNL     1      -2.411  -1.785  25.447  0.00  0.00    +0.000 A 
ATOM     25  C   UNL     1      -3.014  -1.926  24.901  0.00  0.00    +0.000 A 
ATOM     26  C   UNL     1      -3.477  -2.606  24.964  0.00  0.00    +0.000 A 
ATOM     27  C   UNL     1      -4.079  -2.747  24.419  0.00  0.00    +0.000 A 
ATOM     28  C   UNL     1      -4.219  -2.208  23.811  0.00  0.00    +0.000 A 
ATOM     29  C   UNL     1      -3.756  -1.529  23.747  0.00  0.00    +0.000 A 
ATOM     30  C   UNL     1      -3.153  -1.387  24.292  0.00  0.00    +0.000 A 
ATOM     31  C   UNL     1      -2.690  -0.707  24.228  0.00  0.00    +0.000 A 
ENDBRANCH  21  22
BRANCH   9  10
ATOM     10  C   UNL     1      -1.981   2.468  25.122  0.00  0.00    +0.099 C 
BRANCH  10  11
ATOM     11  C   UNL     1      -2.380   3.166  25.309  0.00  0.00    -0.006 A 
ATOM     12  C   UNL     1      -2.297   3.501  26.058  0.00  0.00    -0.003 A 
ATOM     13  C   UNL     1      -2.696   4.198  26.245  0.00  0.00    -0.000 A 
ATOM     14  C   UNL     1      -3.178   4.561  25.683  0.00  0.00    -0.000 A 
ATOM     15  C   UNL     1      -3.262   4.226  24.933  0.00  0.00    -0.000 A 
ATOM     16  C   UNL     1      -2.863   3.528  24.746  0.00  0.00    -0.003 A 
ENDBRANCH  10  11
ENDBRANCH   9  10
TORSDOF 3
ENDMDL
MODEL 5
REMARK VINA RESULT:     -14.6      1.390      2.358
REMARK  Name = 
REMARK  3 active torsions:
REMARK  status: ('A' for Active; 'I' for Inactive)
REMARK    1  A    between atoms: N_9  and  C_10
REMARK    2  A    between atoms: C_10  and  C_11
REMARK    3  A    between atoms: C_21  and  C_22
REMARK                            x       y       z     vdW  Elec       q    Type
REMARK                         _______ _______ _______ _____ _____    ______ ____
ROOT
ATOM      1  O   UNL     1      -4.041   0.729  25.069  0.00  0.00    -0.267 OA
ATOM      2  C   UNL     1      -3.617   0.911  24.385  0.00  0.00    +0.261 A 
ATOM      3  N   UNL     1      -3.622   1.682  24.090  0.00  0.00    -0.299 N 
ATOM      4  C   UNL     1      -3.133   1.285  23.541  0.00  0.00    +0.110 C 
ATOM      5  C   UNL     1      -2.918   2.036  22.937  0.00  0.00    +0.039 C 
ATOM      6  C   UNL     1      -2.651   2.539  22.354  0.00  0.00    +0.011 C 
ATOM      7  C   UNL     1      -3.057   2.576  22.925  0.00  0.00    +0.054 C 
ATOM      8  C   UNL     1      -3.558   3.170  23.416  0.00  0.00    +0.078 C 
ATOM      9  N   UNL     1      -3.823   2.666  23.995  0.00  0.00    -0.269 NA
ATOM     17  C   UNL     1      -3.444   2.649  23.456  0.00  0.00    +0.074 C 
ATOM     18  C   UNL     1      -3.198   1.864  23.407  0.00  0.00    +0.041 A 
ATOM     19  C   UNL     1      -2.769   1.277  23.019  0.00  0.00    +0.013 A 
ATOM     20  C   UNL     1      -2.764   0.507  23.313  0.00  0.00    +0.006 A 
ATOM     21  C   UNL     1      -3.188   0.324  23.996  0.00  0.00    +0.056 A 
ENDROOT
BRANCH  21  22
ATOM     22  C   UNL     1      -3.184  -0.447  24.291  0.00  0.00    +0.005 A 
ATOM     23  C   UNL     1      -2.713  -0.637  24.943  0.00  0.00    +0.000 A 
ATOM     24  C   UNL     1      -2.709  -1.407  25.237  0.00  0.00    +0.000 A 
ATOM     25  C   UNL     1      -3.174  -1.988  24.881  0.00  0.00    +0.000 A 
ATOM     26  C   UNL     1      -3.170  -2.759  25.176  0.00  0.00    +0.000 A 
ATOM     27  C   UNL     1      -3.635  -3.339  24.820  0.00  0.00    +0.000 A 
ATOM     28  C   UNL     1      -4.105  -3.149  24.170  0.00  0.00    +0.000 A 
ATOM     29  C   UNL     1      -4.110  -2.380  23.875  0.00  0.00    +0.000 A 
ATOM     30  C   UNL     1      -3.644  -1.799  24.230  0.00  0.00    +0.000 A 
ATOM     31  C   UNL     1      -3.649  -1.028  23.936  0.00  0.00    +0.000 A 
ENDBRANCH  21  22
BRANCH   9  10
ATOM     10  C   UNL     1      -4.218   2.404  24.669  0.00  0.00    +0.099 C 
BRANCH  10  11
ATOM     11  C   UNL     1      -4.671   2.932  25.113  0.00  0.00    -0.006 A 
ATOM     12  C   UNL     1      -4.300   3.508  25.573  0.00  0.00    -0.003 A 
ATOM     13  C   UNL     1      -4.753   4.035  26.017  0.00  0.00    -0.000 A 
ATOM     14  C   UNL     1      -5.576   3.987  26.002  0.00  0.00    -0.000 A 
ATOM     15  C   UNL     1      -5.947   3.411  25.542  0.00  0.00    -0.000 A 
ATOM     16  C   UNL     1      -5.494   2.883  25.098  0.00  0.00    -0.003 A 
ENDBRANCH  10  11
ENDBRANCH   9  10
TORSDOF 3
ENDMDL
