REMARK  Name = 
REMARK  6 active torsions:
REMARK  status: ('A' for Active; 'I' for Inactive)
REMARK    1  A    between atoms: C_2  and  C_4
REMARK    2  A    between atoms: C_4  and  C_5
REMARK    3  A    between atoms: C_5  and  C_6
REMARK    4  A    between atoms: C_17  and  N_18
REMARK    5  A    between atoms: N_18  and  S_19
REMARK    6  A    between atoms: S_19  and  C_22
REMARK                            x       y       z     vdW  Elec       q    Type
REMARK                         _______ _______ _______ _____ _____    ______ ____
ROOT
ATOM      6  C   UNL     1       0.125  -2.547   0.000  0.00  0.00    +0.226 C 
ATOM      7  O   UNL     1      -0.614  -2.179   0.000  0.00  0.00    -0.275 OA
ATOM      8  N   UNL     1       0.813  -2.091   0.000  0.00  0.00    -0.279 N 
ATOM      9  C   UNL     1       1.629  -1.912   0.000  0.00  0.00    +0.095 C 
ATOM     10  C   UNL     1       1.582  -0.925   0.000  0.00  0.00    +0.043 C 
ATOM     11  C   UNL     1       1.713  -0.121   0.000  0.00  0.00    +0.011 C 
ATOM     12  C   UNL     1       1.163  -0.557   0.000  0.00  0.00    +0.058 C 
ATOM     13  C   UNL     1       1.225  -1.510   0.000  0.00  0.00    +0.099 C 
ATOM     14  C   UNL     1       0.244  -0.558   0.000  0.00  0.00    +0.041 A 
ATOM     15  C   UNL     1      -0.397  -0.039   0.000  0.00  0.00    +0.014 A 
ATOM     16  C   UNL     1      -1.167  -0.335   0.000  0.00  0.00    +0.024 A 
ATOM     17  C   UNL     1      -1.296  -1.150   0.000  0.00  0.00    +0.147 A 
ATOM     27  C   UNL     1      -0.655  -1.669   0.000  0.00  0.00    +0.277 A 
ATOM     28  O   UNL     1      -1.029  -2.404   0.000  0.00  0.00    -0.266 OA
ATOM     29  N   UNL     1       0.115  -1.373   0.000  0.00  0.00    -0.298 N 
ATOM     30  C   UNL     1       0.622  -0.936   0.000  0.00  0.00    +0.110 C 
ENDROOT
BRANCH   6   5
ATOM      5  C   UNL     1       0.176  -3.370   0.000  0.00  0.00    +0.097 C 
BRANCH   5   4
ATOM      4  C   UNL     1       0.914  -3.738   0.000  0.00  0.00    +0.124 C 
BRANCH   4   2
ATOM      1  O   UNL     1       2.340  -3.650   0.000  0.00  0.00    -0.246 OA
ATOM      2  C   UNL     1       1.602  -3.283   0.000  0.00  0.00    +0.365 C 
ATOM      3  O   UNL     1       1.551  -2.459   0.000  0.00  0.00    -0.246 OA
ENDBRANCH   4   2
ENDBRANCH   5   4
ENDBRANCH   6   5
BRANCH  17  18
ATOM     18  N   UNL     1      -2.066  -1.445   0.000  0.00  0.00    -0.091 NA
BRANCH  18  19
ATOM     19  S   UNL     1      -2.707  -0.926   0.000  0.00  0.00    +0.099 S 
ATOM     20  O   UNL     1      -2.188  -0.285   0.000  0.00  0.00    -0.148 OA
ATOM     21  O   UNL     1      -3.226  -1.567   0.000  0.00  0.00    -0.148 OA
BRANCH  19  22
ATOM     22  C   UNL     1      -3.349  -0.407   0.000  0.00  0.00    +0.156 A 
ATOM     23  C   UNL     1      -4.145  -0.621   0.000  0.00  0.00    +0.027 A 
ATOM     24  C   UNL     1      -4.595   0.071   0.000  0.00  0.00    +0.009 A 
ATOM     25  C   UNL     1      -4.076   0.712   0.000  0.00  0.00    +0.037 A 
ATOM     26  S   UNL     1      -3.305   0.417   0.000  0.00  0.00    -0.066 S 
ENDBRANCH  19  22
ENDBRANCH  18  19
ENDBRANCH  17  18
TORSDOF 6
