MODEL 1
REMARK VINA RESULT:      -9.7      0.000      0.000
REMARK  Name = 
REMARK  1 active torsions:
REMARK  status: ('A' for Active; 'I' for Inactive)
REMARK    1  A    between atoms: C_5  and  C_7
REMARK                            x       y       z     vdW  Elec       q    Type
REMARK                         _______ _______ _______ _____ _____    ______ ____
ROOT
ATOM      7  C   UNL     1      -4.147   0.066  24.626  0.00  0.00    +0.089 A 
ATOM      8  N   UNL     1      -4.355  -0.468  24.033  0.00  0.00    -0.243 NA
ATOM      9  C   UNL     1      -4.080  -1.213  24.253  0.00  0.00    +0.087 A 
ATOM     10  C   UNL     1      -3.702  -1.140  24.983  0.00  0.00    +0.048 A 
ATOM     11  S   UNL     1      -3.743  -0.350  25.213  0.00  0.00    -0.071 S 
ATOM     12  C   UNL     1      -3.369  -1.805  25.342  0.00  0.00    +0.008 A 
ATOM     13  C   UNL     1      -3.414  -2.540  24.973  0.00  0.00    +0.001 A 
ATOM     14  C   UNL     1      -3.793  -2.613  24.243  0.00  0.00    +0.002 A 
ATOM     15  C   UNL     1      -4.126  -1.950  23.883  0.00  0.00    +0.020 A 
ENDROOT
BRANCH   7   5
ATOM      1  C   UNL     1      -3.976   2.924  24.140  0.00  0.00    +0.090 C 
ATOM      2  N   UNL     1      -4.235   2.188  24.408  0.00  0.00    -0.271 NA
ATOM      3  C   UNL     1      -4.903   2.048  24.872  0.00  0.00    +0.073 C 
ATOM      4  C   UNL     1      -4.951   1.236  25.010  0.00  0.00    +0.025 C 
ATOM      5  C   UNL     1      -4.313   0.874  24.631  0.00  0.00    +0.064 C 
ATOM      6  C   UNL     1      -3.870   1.463  24.260  0.00  0.00    +0.079 C 
ENDBRANCH   7   5
TORSDOF 1
ENDMDL
MODEL 2
REMARK VINA RESULT:      -9.0      0.839      3.641
REMARK  Name = 
REMARK  1 active torsions:
REMARK  status: ('A' for Active; 'I' for Inactive)
REMARK    1  A    between atoms: C_5  and  C_7
REMARK                            x       y       z     vdW  Elec       q    Type
REMARK                         _______ _______ _______ _____ _____    ______ ____
ROOT
ATOM      7  C   UNL     1      -4.207   0.148  24.632  0.00  0.00    +0.089 A 
ATOM      8  N   UNL     1      -4.835   0.490  25.042  0.00  0.00    -0.243 NA
ATOM      9  C   UNL     1      -4.776   1.309  24.962  0.00  0.00    +0.087 A 
ATOM     10  C   UNL     1      -4.111   1.473  24.503  0.00  0.00    +0.048 A 
ATOM     11  S   UNL     1      -3.758   0.756  24.299  0.00  0.00    -0.071 S 
ATOM     12  C   UNL     1      -3.912   2.255  24.330  0.00  0.00    +0.008 A 
ATOM     13  C   UNL     1      -4.377   2.872  24.616  0.00  0.00    +0.001 A 
ATOM     14  C   UNL     1      -5.043   2.708  25.075  0.00  0.00    +0.002 A 
ATOM     15  C   UNL     1      -5.243   1.927  25.248  0.00  0.00    +0.020 A 
ENDROOT
BRANCH   7   5
ATOM      1  C   UNL     1      -3.313  -2.550  25.226  0.00  0.00    +0.090 C 
ATOM      2  N   UNL     1      -3.642  -1.901  24.839  0.00  0.00    -0.271 NA
ATOM      3  C   UNL     1      -3.990  -1.906  24.091  0.00  0.00    +0.073 C 
ATOM      4  C   UNL     1      -4.244  -1.139  23.922  0.00  0.00    +0.025 C 
ATOM      5  C   UNL     1      -4.053  -0.660  24.566  0.00  0.00    +0.064 C 
ATOM      6  C   UNL     1      -3.681  -1.130  25.133  0.00  0.00    +0.079 C 
ENDBRANCH   7   5
TORSDOF 1
ENDMDL
MODEL 3
REMARK VINA RESULT:      -8.4      3.064      4.624
REMARK  Name = 
REMARK  1 active torsions:
REMARK  status: ('A' for Active; 'I' for Inactive)
REMARK    1  A    between atoms: C_5  and  C_7
REMARK                            x       y       z     vdW  Elec       q    Type
REMARK                         _______ _______ _______ _____ _____    ______ ____
ROOT
ATOM      7  C   UNL     1      -3.276   3.200  25.024  0.00  0.00    +0.089 A 
ATOM      8  N   UNL     1      -3.159   4.011  25.119  0.00  0.00    -0.243 NA
ATOM      9  C   UNL     1      -2.347   4.155  25.105  0.00  0.00    +0.087 A 
ATOM     10  C   UNL     1      -1.962   3.433  25.001  0.00  0.00    +0.048 A 
ATOM     11  S   UNL     1      -2.535   2.843  24.951  0.00  0.00    -0.071 S 
ATOM     12  C   UNL     1      -1.138   3.407  24.966  0.00  0.00    +0.008 A 
ATOM     13  C   UNL     1      -0.700   4.102  25.035  0.00  0.00    +0.001 A 
ATOM     14  C   UNL     1      -1.085   4.824  25.139  0.00  0.00    +0.002 A 
ATOM     15  C   UNL     1      -1.909   4.851  25.174  0.00  0.00    +0.020 A 
ENDROOT
BRANCH   7   5
ATOM      1  C   UNL     1      -5.908   2.230  25.773  0.00  0.00    +0.090 C 
ATOM      2  N   UNL     1      -5.215   2.368  25.348  0.00  0.00    -0.271 NA
ATOM      3  C   UNL     1      -5.037   2.070  24.600  0.00  0.00    +0.073 C 
ATOM      4  C   UNL     1      -4.289   2.346  24.387  0.00  0.00    +0.025 C 
ATOM      5  C   UNL     1      -4.004   2.814  25.004  0.00  0.00    +0.064 C 
ATOM      6  C   UNL     1      -4.576   2.827  25.598  0.00  0.00    +0.079 C 
ENDBRANCH   7   5
TORSDOF 1
ENDMDL
MODEL 4
REMARK VINA RESULT:      -8.4      2.253      2.555
REMARK  Name = 
REMARK  1 active torsions:
REMARK  status: ('A' for Active; 'I' for Inactive)
REMARK    1  A    between atoms: C_5  and  C_7
REMARK                            x       y       z     vdW  Elec       q    Type
REMARK                         _______ _______ _______ _____ _____    ______ ____
ROOT
ATOM      7  C   UNL     1      -2.116  -0.461  24.688  0.00  0.00    +0.089 A 
ATOM      8  N   UNL     1      -2.862  -0.326  24.363  0.00  0.00    -0.243 NA
ATOM      9  C   UNL     1      -3.250  -1.052  24.307  0.00  0.00    +0.087 A 
ATOM     10  C   UNL     1      -2.743  -1.635  24.597  0.00  0.00    +0.048 A 
ATOM     11  S   UNL     1      -2.043  -1.270  24.832  0.00  0.00    -0.071 S 
ATOM     12  C   UNL     1      -2.987  -2.424  24.608  0.00  0.00    +0.008 A 
ATOM     13  C   UNL     1      -3.735  -2.629  24.330  0.00  0.00    +0.001 A 
ATOM     14  C   UNL     1      -4.242  -2.046  24.040  0.00  0.00    +0.002 A 
ATOM     15  C   UNL     1      -4.000  -1.257  24.028  0.00  0.00    +0.020 A 
ENDROOT
BRANCH   7   5
ATOM      1  C   UNL     1       0.003   1.492  24.330  0.00  0.00    +0.090 C 
ATOM      2  N   UNL     1      -0.569   1.011  24.677  0.00  0.00    -0.271 NA
ATOM      3  C   UNL     1      -0.755   0.981  25.481  0.00  0.00    +0.073 C 
ATOM      4  C   UNL     1      -1.358   0.426  25.583  0.00  0.00    +0.025 C 
ATOM      5  C   UNL     1      -1.544   0.113  24.842  0.00  0.00    +0.064 C 
ATOM      6  C   UNL     1      -1.057   0.474  24.283  0.00  0.00    +0.079 C 
ENDBRANCH   7   5
TORSDOF 1
ENDMDL
MODEL 5
REMARK VINA RESULT:      -8.3      2.817      3.978
REMARK  Name = 
REMARK  1 active torsions:
REMARK  status: ('A' for Active; 'I' for Inactive)
REMARK    1  A    between atoms: C_5  and  C_7
REMARK                            x       y       z     vdW  Elec       q    Type
REMARK                         _______ _______ _______ _____ _____    ______ ____
ROOT
ATOM      7  C   UNL     1      -3.360   3.261  25.202  0.00  0.00    +0.089 A 
ATOM      8  N   UNL     1      -3.501   2.524  24.861  0.00  0.00    -0.243 NA
ATOM      9  C   UNL     1      -4.295   2.336  24.980  0.00  0.00    +0.087 A 
ATOM     10  C   UNL     1      -4.645   2.957  25.395  0.00  0.00    +0.048 A 
ATOM     11  S   UNL     1      -4.067   3.529  25.533  0.00  0.00    -0.071 S 
ATOM     12  C   UNL     1      -5.445   2.921  25.594  0.00  0.00    +0.008 A 
ATOM     13  C   UNL     1      -5.895   2.265  25.378  0.00  0.00    +0.001 A 
ATOM     14  C   UNL     1      -5.545   1.643  24.963  0.00  0.00    +0.002 A 
ATOM     15  C   UNL     1      -4.745   1.678  24.764  0.00  0.00    +0.020 A 
ENDROOT
BRANCH   7   5
ATOM      1  C   UNL     1      -0.537   3.872  24.903  0.00  0.00    +0.090 C 
ATOM      2  N   UNL     1      -1.340   3.942  25.075  0.00  0.00    -0.271 NA
ATOM      3  C   UNL     1      -1.715   4.611  25.380  0.00  0.00    +0.073 C 
ATOM      4  C   UNL     1      -2.517   4.437  25.465  0.00  0.00    +0.025 C 
ATOM      5  C   UNL     1      -2.638   3.661  25.212  0.00  0.00    +0.064 C 
ATOM      6  C   UNL     1      -1.911   3.355  24.971  0.00  0.00    +0.079 C 
ENDBRANCH   7   5
TORSDOF 1
ENDMDL
MODEL 6
REMARK VINA RESULT:      -7.9      2.637      3.676
REMARK  Name = 
REMARK  1 active torsions:
REMARK  status: ('A' for Active; 'I' for Inactive)
REMARK    1  A    between atoms: C_5  and  C_7
REMARK                            x       y       z     vdW  Elec       q    Type
REMARK                         _______ _______ _______ _____ _____    ______ ____
ROOT
ATOM      7  C   UNL     1      -3.482   1.971  24.297  0.00  0.00    +0.089 A 
ATOM      8  N   UNL     1      -4.133   1.469  24.367  0.00  0.00    -0.243 NA
ATOM      9  C   UNL     1      -4.724   1.874  24.775  0.00  0.00    +0.087 A 
ATOM     10  C   UNL     1      -4.439   2.626  24.957  0.00  0.00    +0.048 A 
ATOM     11  S   UNL     1      -3.672   2.687  24.662  0.00  0.00    -0.071 S 
ATOM     12  C   UNL     1      -4.917   3.159  25.368  0.00  0.00    +0.008 A 
ATOM     13  C   UNL     1      -5.678   2.940  25.597  0.00  0.00    +0.001 A 
ATOM     14  C   UNL     1      -5.962   2.187  25.415  0.00  0.00    +0.002 A 
ATOM     15  C   UNL     1      -5.486   1.654  25.004  0.00  0.00    +0.020 A 
ENDROOT
BRANCH   7   5
ATOM      1  C   UNL     1      -0.808   0.951  23.804  0.00  0.00    +0.090 C 
ATOM      2  N   UNL     1      -1.538   1.321  23.700  0.00  0.00    -0.271 NA
ATOM      3  C   UNL     1      -1.796   1.702  23.015  0.00  0.00    +0.073 C 
ATOM      4  C   UNL     1      -2.556   1.992  23.155  0.00  0.00    +0.025 C 
ATOM      5  C   UNL     1      -2.767   1.790  23.927  0.00  0.00    +0.064 C 
ATOM      6  C   UNL     1      -2.138   1.376  24.264  0.00  0.00    +0.079 C 
ENDBRANCH   7   5
TORSDOF 1
ENDMDL
MODEL 7
REMARK VINA RESULT:      -7.8      2.912      5.072
REMARK  Name = 
REMARK  1 active torsions:
REMARK  status: ('A' for Active; 'I' for Inactive)
REMARK    1  A    between atoms: C_5  and  C_7
REMARK                            x       y       z     vdW  Elec       q    Type
REMARK                         _______ _______ _______ _____ _____    ______ ____
ROOT
ATOM      7  C   UNL     1      -1.588   2.251  25.064  0.00  0.00    +0.089 A 
ATOM      8  N   UNL     1      -2.154   2.777  25.351  0.00  0.00    -0.243 NA
ATOM      9  C   UNL     1      -1.856   3.541  25.270  0.00  0.00    +0.087 A 
ATOM     10  C   UNL     1      -1.105   3.487  24.933  0.00  0.00    +0.048 A 
ATOM     11  S   UNL     1      -0.939   2.690  24.805  0.00  0.00    -0.071 S 
ATOM     12  C   UNL     1      -0.669   4.173  24.785  0.00  0.00    +0.008 A 
ATOM     13  C   UNL     1      -0.984   4.911  24.975  0.00  0.00    +0.001 A 
ATOM     14  C   UNL     1      -1.734   4.965  25.313  0.00  0.00    +0.002 A 
ATOM     15  C   UNL     1      -2.171   4.280  25.461  0.00  0.00    +0.020 A 
ENDROOT
BRANCH   7   5
ATOM      1  C   UNL     1      -1.141  -0.576  25.560  0.00  0.00    +0.090 C 
ATOM      2  N   UNL     1      -1.453   0.129  25.267  0.00  0.00    -0.271 NA
ATOM      3  C   UNL     1      -2.080   0.199  24.735  0.00  0.00    +0.073 C 
ATOM      4  C   UNL     1      -2.207   1.002  24.594  0.00  0.00    +0.025 C 
ATOM      5  C   UNL     1      -1.658   1.429  25.039  0.00  0.00    +0.064 C 
ATOM      6  C   UNL     1      -1.193   0.890  25.455  0.00  0.00    +0.079 C 
ENDBRANCH   7   5
TORSDOF 1
ENDMDL
MODEL 8
REMARK VINA RESULT:      -7.3      2.142      3.753
REMARK  Name = 
REMARK  1 active torsions:
REMARK  status: ('A' for Active; 'I' for Inactive)
REMARK    1  A    between atoms: C_5  and  C_7
REMARK                            x       y       z     vdW  Elec       q    Type
REMARK                         _______ _______ _______ _____ _____    ______ ____
ROOT
ATOM      7  C   UNL     1      -2.414   0.210  25.052  0.00  0.00    +0.089 A 
ATOM      8  N   UNL     1      -2.639   1.000  24.981  0.00  0.00    -0.243 NA
ATOM      9  C   UNL     1      -1.969   1.467  25.098  0.00  0.00    +0.087 A 
ATOM     10  C   UNL     1      -1.330   0.965  25.242  0.00  0.00    +0.048 A 
ATOM     11  S   UNL     1      -1.605   0.188  25.213  0.00  0.00    -0.071 S 
ATOM     12  C   UNL     1      -0.581   1.281  25.380  0.00  0.00    +0.008 A 
ATOM     13  C   UNL     1      -0.470   2.098  25.374  0.00  0.00    +0.001 A 
ATOM     14  C   UNL     1      -1.108   2.600  25.230  0.00  0.00    +0.002 A 
ATOM     15  C   UNL     1      -1.858   2.285  25.092  0.00  0.00    +0.020 A 
ENDROOT
BRANCH   7   5
ATOM      1  C   UNL     1      -4.201  -1.785  23.929  0.00  0.00    +0.090 C 
ATOM      2  N   UNL     1      -3.732  -1.362  24.460  0.00  0.00    -0.271 NA
ATOM      3  C   UNL     1      -3.619  -1.541  25.257  0.00  0.00    +0.073 C 
ATOM      4  C   UNL     1      -3.111  -0.974  25.576  0.00  0.00    +0.025 C 
ATOM      5  C   UNL     1      -2.911  -0.445  24.976  0.00  0.00    +0.064 C 
ATOM      6  C   UNL     1      -3.295  -0.684  24.286  0.00  0.00    +0.079 C 
ENDBRANCH   7   5
TORSDOF 1
ENDMDL
MODEL 9
REMARK VINA RESULT:      -7.3      1.983      2.311
REMARK  Name = 
REMARK  1 active torsions:
REMARK  status: ('A' for Active; 'I' for Inactive)
REMARK    1  A    between atoms: C_5  and  C_7
REMARK                            x       y       z     vdW  Elec       q    Type
REMARK                         _______ _______ _______ _____ _____    ______ ____
ROOT
ATOM      7  C   UNL     1      -2.493   1.131  24.549  0.00  0.00    +0.089 A 
ATOM      8  N   UNL     1      -2.765   0.463  24.949  0.00  0.00    -0.243 NA
ATOM      9  C   UNL     1      -2.134  -0.062  25.028  0.00  0.00    +0.087 A 
ATOM     10  C   UNL     1      -1.471   0.282  24.676  0.00  0.00    +0.048 A 
ATOM     11  S   UNL     1      -1.693   1.019  24.380  0.00  0.00    -0.071 S 
ATOM     12  C   UNL     1      -0.752  -0.122  24.672  0.00  0.00    +0.008 A 
ATOM     13  C   UNL     1      -0.694  -0.868  25.018  0.00  0.00    +0.001 A 
ATOM     14  C   UNL     1      -1.357  -1.211  25.369  0.00  0.00    +0.002 A 
ATOM     15  C   UNL     1      -2.077  -0.809  25.374  0.00  0.00    +0.020 A 
ENDROOT
BRANCH   7   5
ATOM      1  C   UNL     1      -3.923   3.652  24.731  0.00  0.00    +0.090 C 
ATOM      2  N   UNL     1      -3.599   2.953  24.435  0.00  0.00    -0.271 NA
ATOM      3  C   UNL     1      -3.665   2.679  23.660  0.00  0.00    +0.073 C 
ATOM      4  C   UNL     1      -3.259   1.962  23.608  0.00  0.00    +0.025 C 
ATOM      5  C   UNL     1      -2.942   1.794  24.351  0.00  0.00    +0.064 C 
ATOM      6  C   UNL     1      -3.152   2.407  24.862  0.00  0.00    +0.079 C 
ENDBRANCH   7   5
TORSDOF 1
ENDMDL
MODEL 10
REMARK VINA RESULT:      -7.0      2.402      3.587
REMARK  Name = 
REMARK  1 active torsions:
REMARK  status: ('A' for Active; 'I' for Inactive)
REMARK    1  A    between atoms: C_5  and  C_7
REMARK                            x       y       z     vdW  Elec       q    Type
REMARK                         _______ _______ _______ _____ _____    ______ ____
ROOT
ATOM      7  C   UNL     1      -2.603   1.626  24.827  0.00  0.00    +0.089 A 
ATOM      8  N   UNL     1      -2.198   2.045  25.410  0.00  0.00    -0.243 NA
ATOM      9  C   UNL     1      -1.401   2.066  25.202  0.00  0.00    +0.087 A 
ATOM     10  C   UNL     1      -1.312   1.659  24.489  0.00  0.00    +0.048 A 
ATOM     11  S   UNL     1      -2.055   1.387  24.257  0.00  0.00    -0.071 S 
ATOM     12  C   UNL     1      -0.566   1.590  24.144  0.00  0.00    +0.008 A 
ATOM     13  C   UNL     1       0.091   1.926  24.511  0.00  0.00    +0.001 A 
ATOM     14  C   UNL     1       0.003   2.333  25.223  0.00  0.00    +0.002 A 
ATOM     15  C   UNL     1      -0.743   2.403  25.569  0.00  0.00    +0.020 A 
ENDROOT
BRANCH   7   5
ATOM      1  C   UNL     1      -5.484   1.990  24.822  0.00  0.00    +0.090 C 
ATOM      2  N   UNL     1      -4.738   1.639  24.812  0.00  0.00    -0.271 NA
ATOM      3  C   UNL     1      -4.584   0.829  24.778  0.00  0.00    +0.073 C 
ATOM      4  C   UNL     1      -3.765   0.726  24.779  0.00  0.00    +0.025 C 
ATOM      5  C   UNL     1      -3.414   1.472  24.814  0.00  0.00    +0.064 C 
ATOM      6  C   UNL     1      -4.015   2.036  24.834  0.00  0.00    +0.079 C 
ENDBRANCH   7   5
TORSDOF 1
ENDMDL
