REMARK  Name = 
REMARK  5 active torsions:
REMARK  status: ('A' for Active; 'I' for Inactive)
REMARK    1  A    between atoms: C_4  and  C_8
REMARK    2  A    between atoms: N_13  and  C_14
REMARK    3  A    between atoms: C_18  and  N_22
REMARK    4  A    between atoms: N_25  and  C_26
REMARK    5  A    between atoms: C_26  and  C_27
REMARK                            x       y       z     vdW  Elec       q    Type
REMARK                         _______ _______ _______ _____ _____    ______ ____
ROOT
ATOM     14  C   UNL     1      -2.361   1.740   0.000  0.00  0.00    +0.154 C 
ATOM     15  C   UNL     1      -1.608   2.076   0.000  0.00  0.00    +0.166 C 
ATOM     16  O   UNL     1      -1.056   1.462   0.000  0.00  0.00    -0.350 OA
ATOM     17  C   UNL     1      -1.468   0.748   0.000  0.00  0.00    +0.166 C 
ATOM     18  C   UNL     1      -1.382  -0.072   0.000  0.00  0.00    +0.156 C 
ATOM     19  C   UNL     1      -2.136  -0.408   0.000  0.00  0.00    +0.166 C 
ATOM     20  O   UNL     1      -2.688   0.205   0.000  0.00  0.00    -0.350 OA
ATOM     21  C   UNL     1      -2.275   0.920   0.000  0.00  0.00    +0.166 C 
ENDROOT
BRANCH  14  13
ATOM      8  C   UNL     1      -3.790   4.215   0.000  0.00  0.00    +0.086 A 
ATOM      9  C   UNL     1      -3.076   4.628   0.000  0.00  0.00    +0.040 A 
ATOM     10  C   UNL     1      -2.361   4.215   0.000  0.00  0.00    +0.103 A 
ATOM     11  N   UNL     1      -2.361   3.390   0.000  0.00  0.00    -0.211 NA
ATOM     12  C   UNL     1      -3.076   2.978   0.000  0.00  0.00    +0.237 A 
ATOM     13  N   UNL     1      -3.076   2.153   0.000  0.00  0.00    -0.200 NA
ATOM     29  N   UNL     1      -3.790   3.390   0.000  0.00  0.00    -0.212 NA
BRANCH   8   4
ATOM      1  F   UNL     1      -5.219   6.690   0.000  0.00  0.00    -0.204 F 
ATOM      2  C   UNL     1      -5.219   5.865   0.000  0.00  0.00    +0.140 A 
ATOM      3  C   UNL     1      -4.505   5.453   0.000  0.00  0.00    +0.031 A 
ATOM      4  C   UNL     1      -4.505   4.628   0.000  0.00  0.00    +0.020 A 
ATOM      5  C   UNL     1      -5.219   4.215   0.000  0.00  0.00    +0.002 A 
ATOM      6  C   UNL     1      -5.934   4.628   0.000  0.00  0.00    +0.002 A 
ATOM      7  C   UNL     1      -5.934   5.453   0.000  0.00  0.00    +0.030 A 
ENDBRANCH   8   4
ENDBRANCH  14  13
BRANCH  18  22
ATOM     22  N   UNL     1      -0.667  -0.485   0.000  0.00  0.00    -0.184 NA
ATOM     23  C   UNL     1       0.047  -0.072   0.000  0.00  0.00    +0.340 C 
ATOM     24  O   UNL     1       0.047   0.753   0.000  0.00  0.00    -0.249 OA
ATOM     25  N   UNL     1       0.761  -0.485   0.000  0.00  0.00    -0.182 NA
BRANCH  25  26
ATOM     26  C   UNL     1       1.476  -0.072   0.000  0.00  0.00    +0.143 C 
BRANCH  26  27
ATOM     27  C   UNL     1       2.190  -0.485   0.000  0.00  0.00    -0.003 C 
ATOM     28  C   UNL     1       2.905  -0.072   0.000  0.00  0.00    -0.003 C 
ENDBRANCH  26  27
ENDBRANCH  25  26
ENDBRANCH  18  22
TORSDOF 5
