MODEL 1
REMARK VINA RESULT:     -10.2      0.000      0.000
REMARK  Name = 
REMARK  9 active torsions:
REMARK  status: ('A' for Active; 'I' for Inactive)
REMARK    1  A    between atoms: O_2  and  C_3
REMARK    2  A    between atoms: C_3  and  C_4
REMARK    3  A    between atoms: C_6  and  C_7
REMARK    4  A    between atoms: C_7  and  C_8
REMARK    5  A    between atoms: C_13  and  C_14
REMARK    6  A    between atoms: C_14  and  N_15
REMARK    7  A    between atoms: N_15  and  C_16
REMARK    8  A    between atoms: C_16  and  C_17
REMARK    9  A    between atoms: C_22  and  O_23
REMARK                            x       y       z     vdW  Elec       q    Type
REMARK                         _______ _______ _______ _____ _____    ______ ____
ROOT
ATOM      8  C   UNL     1      -4.287   3.218  24.926  0.00  0.00    +0.121 C 
ATOM      9  C   UNL     1      -4.880   3.578  25.370  0.00  0.00    +0.033 C 
ATOM     10  C   UNL     1      -5.531   3.138  25.623  0.00  0.00    +0.038 C 
ATOM     11  C   UNL     1      -5.587   2.337  25.431  0.00  0.00    +0.180 C 
ATOM     12  O   UNL     1      -6.236   1.896  25.684  0.00  0.00    -0.220 OA
ATOM     13  C   UNL     1      -4.992   1.977  24.986  0.00  0.00    +0.163 C 
ATOM     25  O   UNL     1      -4.342   2.417  24.733  0.00  0.00    -0.354 OA
ENDROOT
BRANCH   8   7
ATOM      7  C   UNL     1      -3.636   3.659  24.672  0.00  0.00    +0.079 C 
BRANCH   7   6
ATOM      4  C   UNL     1      -1.706   3.505  25.571  0.00  0.00    +0.184 A 
ATOM      5  C   UNL     1      -2.231   3.335  24.957  0.00  0.00    +0.056 A 
ATOM      6  C   UNL     1      -2.954   3.688  25.136  0.00  0.00    +0.103 A 
ATOM     26  N   UNL     1      -2.877   4.076  25.860  0.00  0.00    -0.082 NA
ATOM     27  O   UNL     1      -2.106   3.963  26.129  0.00  0.00    -0.356 OA
BRANCH   4   3
ATOM      3  C   UNL     1      -0.920   3.260  25.619  0.00  0.00    +0.209 C 
BRANCH   3   2
ATOM      1  C   UNL     1       0.074   2.384  26.157  0.00  0.00    +0.175 C 
ATOM      2  O   UNL     1      -0.714   2.625  26.103  0.00  0.00    -0.343 OA
ENDBRANCH   3   2
ENDBRANCH   4   3
ENDBRANCH   7   6
ENDBRANCH   8   7
BRANCH  13  14
ATOM     14  C   UNL     1      -5.048   1.177  24.794  0.00  0.00    +0.121 C 
BRANCH  14  15
ATOM     15  N   UNL     1      -4.421   0.667  24.961  0.00  0.00    -0.211 NA
BRANCH  15  16
ATOM     16  C   UNL     1      -4.405  -0.089  24.634  0.00  0.00    +0.118 C 
BRANCH  16  17
ATOM     17  C   UNL     1      -3.859  -0.645  24.906  0.00  0.00    +0.029 A 
ATOM     18  C   UNL     1      -3.329  -0.443  25.505  0.00  0.00    +0.000 A 
ATOM     19  C   UNL     1      -2.782  -0.998  25.777  0.00  0.00    -0.000 A 
ATOM     20  C   UNL     1      -2.767  -1.755  25.450  0.00  0.00    +0.003 A 
ATOM     21  C   UNL     1      -3.297  -1.958  24.851  0.00  0.00    +0.037 A 
ATOM     22  C   UNL     1      -3.843  -1.402  24.579  0.00  0.00    +0.136 A 
BRANCH  22  23
ATOM     23  O   UNL     1      -4.373  -1.604  23.981  0.00  0.00    -0.472 OA
ATOM     24  C   UNL     1      -4.360  -2.363  23.657  0.00  0.00    +0.252 C 
ENDBRANCH  22  23
ENDBRANCH  16  17
ENDBRANCH  15  16
ENDBRANCH  14  15
ENDBRANCH  13  14
TORSDOF 9
ENDMDL
MODEL 2
REMARK VINA RESULT:      -9.6      1.639      4.230
REMARK  Name = 
REMARK  9 active torsions:
REMARK  status: ('A' for Active; 'I' for Inactive)
REMARK    1  A    between atoms: O_2  and  C_3
REMARK    2  A    between atoms: C_3  and  C_4
REMARK    3  A    between atoms: C_6  and  C_7
REMARK    4  A    between atoms: C_7  and  C_8
REMARK    5  A    between atoms: C_13  and  C_14
REMARK    6  A    between atoms: C_14  and  N_15
REMARK    7  A    between atoms: N_15  and  C_16
REMARK    8  A    between atoms: C_16  and  C_17
REMARK    9  A    between atoms: C_22  and  O_23
REMARK                            x       y       z     vdW  Elec       q    Type
REMARK                         _______ _______ _______ _____ _____    ______ ____
ROOT
ATOM      8  C   UNL     1      -2.432  -1.493  24.977  0.00  0.00    +0.121 C 
ATOM      9  C   UNL     1      -2.598  -2.221  24.627  0.00  0.00    +0.033 C 
ATOM     10  C   UNL     1      -3.332  -2.350  24.271  0.00  0.00    +0.038 C 
ATOM     11  C   UNL     1      -3.899  -1.750  24.266  0.00  0.00    +0.180 C 
ATOM     12  O   UNL     1      -4.632  -1.879  23.911  0.00  0.00    -0.220 OA
ATOM     13  C   UNL     1      -3.732  -1.022  24.616  0.00  0.00    +0.163 C 
ATOM     25  O   UNL     1      -2.999  -0.893  24.971  0.00  0.00    -0.354 OA
ENDROOT
BRANCH   8   7
ATOM      7  C   UNL     1      -1.699  -1.363  25.332  0.00  0.00    +0.079 C 
BRANCH   7   6
ATOM      4  C   UNL     1      -0.372   0.175  24.675  0.00  0.00    +0.184 A 
ATOM      5  C   UNL     1      -0.949  -0.106  25.195  0.00  0.00    +0.056 A 
ATOM      6  C   UNL     1      -1.145  -0.874  24.966  0.00  0.00    +0.103 A 
ATOM     26  N   UNL     1      -0.690  -1.067  24.305  0.00  0.00    -0.082 NA
ATOM     27  O   UNL     1      -0.213  -0.419  24.126  0.00  0.00    -0.356 OA
BRANCH   4   3
ATOM      3  C   UNL     1      -0.018   0.920  24.702  0.00  0.00    +0.209 C 
BRANCH   3   2
ATOM      1  C   UNL     1      -0.055   2.318  24.411  0.00  0.00    +0.175 C 
ATOM      2  O   UNL     1      -0.395   1.569  24.360  0.00  0.00    -0.343 OA
ENDBRANCH   3   2
ENDBRANCH   4   3
ENDBRANCH   7   6
ENDBRANCH   8   7
BRANCH  13  14
ATOM     14  C   UNL     1      -4.299  -0.423  24.610  0.00  0.00    +0.121 C 
BRANCH  14  15
ATOM     15  N   UNL     1      -4.073   0.357  24.464  0.00  0.00    -0.211 NA
BRANCH  15  16
ATOM     16  C   UNL     1      -4.577   0.978  24.670  0.00  0.00    +0.118 C 
BRANCH  16  17
ATOM     17  C   UNL     1      -4.368   1.755  24.488  0.00  0.00    +0.029 A 
ATOM     18  C   UNL     1      -3.845   1.907  23.868  0.00  0.00    +0.000 A 
ATOM     19  C   UNL     1      -3.636   2.684  23.686  0.00  0.00    -0.000 A 
ATOM     20  C   UNL     1      -3.951   3.309  24.124  0.00  0.00    +0.003 A 
ATOM     21  C   UNL     1      -4.474   3.157  24.743  0.00  0.00    +0.037 A 
ATOM     22  C   UNL     1      -4.682   2.380  24.925  0.00  0.00    +0.136 A 
BRANCH  22  23
ATOM     23  O   UNL     1      -5.205   2.228  25.545  0.00  0.00    -0.472 OA
ATOM     24  C   UNL     1      -5.565   2.853  25.944  0.00  0.00    +0.252 C 
ENDBRANCH  22  23
ENDBRANCH  16  17
ENDBRANCH  15  16
ENDBRANCH  14  15
ENDBRANCH  13  14
TORSDOF 9
ENDMDL
MODEL 3
REMARK VINA RESULT:      -9.6      1.208      3.255
REMARK  Name = 
REMARK  9 active torsions:
REMARK  status: ('A' for Active; 'I' for Inactive)
REMARK    1  A    between atoms: O_2  and  C_3
REMARK    2  A    between atoms: C_3  and  C_4
REMARK    3  A    between atoms: C_6  and  C_7
REMARK    4  A    between atoms: C_7  and  C_8
REMARK    5  A    between atoms: C_13  and  C_14
REMARK    6  A    between atoms: C_14  and  N_15
REMARK    7  A    between atoms: N_15  and  C_16
REMARK    8  A    between atoms: C_16  and  C_17
REMARK    9  A    between atoms: C_22  and  O_23
REMARK                            x       y       z     vdW  Elec       q    Type
REMARK                         _______ _______ _______ _____ _____    ______ ____
ROOT
ATOM      8  C   UNL     1      -1.833   3.069  25.025  0.00  0.00    +0.121 C 
ATOM      9  C   UNL     1      -1.266   3.520  25.418  0.00  0.00    +0.033 C 
ATOM     10  C   UNL     1      -0.625   3.151  25.784  0.00  0.00    +0.038 C 
ATOM     11  C   UNL     1      -0.552   2.329  25.755  0.00  0.00    +0.180 C 
ATOM     12  O   UNL     1       0.089   1.959  26.120  0.00  0.00    -0.220 OA
ATOM     13  C   UNL     1      -1.119   1.878  25.361  0.00  0.00    +0.163 C 
ATOM     25  O   UNL     1      -1.759   2.247  24.996  0.00  0.00    -0.354 OA
ENDROOT
BRANCH   8   7
ATOM      7  C   UNL     1      -2.474   3.439  24.659  0.00  0.00    +0.079 C 
BRANCH   7   6
ATOM      4  C   UNL     1      -4.498   3.223  25.303  0.00  0.00    +0.184 A 
ATOM      5  C   UNL     1      -3.893   3.069  24.763  0.00  0.00    +0.056 A 
ATOM      6  C   UNL     1      -3.211   3.446  25.030  0.00  0.00    +0.103 A 
ATOM     26  N   UNL     1      -3.393   3.833  25.736  0.00  0.00    -0.082 NA
ATOM     27  O   UNL     1      -4.188   3.695  25.904  0.00  0.00    -0.356 OA
BRANCH   4   3
ATOM      3  C   UNL     1      -5.275   2.952  25.251  0.00  0.00    +0.209 C 
BRANCH   3   2
ATOM      1  C   UNL     1      -6.219   1.885  25.360  0.00  0.00    +0.175 C 
ATOM      2  O   UNL     1      -5.463   2.187  25.494  0.00  0.00    -0.343 OA
ENDBRANCH   3   2
ENDBRANCH   4   3
ENDBRANCH   7   6
ENDBRANCH   8   7
BRANCH  13  14
ATOM     14  C   UNL     1      -1.045   1.057  25.332  0.00  0.00    +0.121 C 
BRANCH  14  15
ATOM     15  N   UNL     1      -1.720   0.582  25.319  0.00  0.00    -0.211 NA
BRANCH  15  16
ATOM     16  C   UNL     1      -1.648  -0.235  25.229  0.00  0.00    +0.118 C 
BRANCH  16  17
ATOM     17  C   UNL     1      -2.324  -0.709  25.215  0.00  0.00    +0.029 A 
ATOM     18  C   UNL     1      -3.035  -0.422  25.519  0.00  0.00    +0.000 A 
ATOM     19  C   UNL     1      -3.710  -0.896  25.506  0.00  0.00    -0.000 A 
ATOM     20  C   UNL     1      -3.674  -1.656  25.187  0.00  0.00    +0.003 A 
ATOM     21  C   UNL     1      -2.963  -1.943  24.882  0.00  0.00    +0.037 A 
ATOM     22  C   UNL     1      -2.288  -1.469  24.896  0.00  0.00    +0.136 A 
BRANCH  22  23
ATOM     23  O   UNL     1      -1.577  -1.755  24.592  0.00  0.00    -0.472 OA
ATOM     24  C   UNL     1      -1.534  -2.525  24.297  0.00  0.00    +0.252 C 
ENDBRANCH  22  23
ENDBRANCH  16  17
ENDBRANCH  15  16
ENDBRANCH  14  15
ENDBRANCH  13  14
TORSDOF 9
ENDMDL
MODEL 4
REMARK VINA RESULT:      -9.6      1.192      4.251
REMARK  Name = 
REMARK  9 active torsions:
REMARK  status: ('A' for Active; 'I' for Inactive)
REMARK    1  A    between atoms: O_2  and  C_3
REMARK    2  A    between atoms: C_3  and  C_4
REMARK    3  A    between atoms: C_6  and  C_7
REMARK    4  A    between atoms: C_7  and  C_8
REMARK    5  A    between atoms: C_13  and  C_14
REMARK    6  A    between atoms: C_14  and  N_15
REMARK    7  A    between atoms: N_15  and  C_16
REMARK    8  A    between atoms: C_16  and  C_17
REMARK    9  A    between atoms: C_22  and  O_23
REMARK                            x       y       z     vdW  Elec       q    Type
REMARK                         _______ _______ _______ _____ _____    ______ ____
ROOT
ATOM      8  C   UNL     1      -4.751   1.645  24.775  0.00  0.00    +0.121 C 
ATOM      9  C   UNL     1      -5.561   1.691  24.919  0.00  0.00    +0.033 C 
ATOM     10  C   UNL     1      -5.867   2.318  25.360  0.00  0.00    +0.038 C 
ATOM     11  C   UNL     1      -5.361   2.900  25.655  0.00  0.00    +0.180 C 
ATOM     12  O   UNL     1      -5.666   3.527  26.095  0.00  0.00    -0.220 OA
ATOM     13  C   UNL     1      -4.550   2.853  25.510  0.00  0.00    +0.163 C 
ATOM     25  O   UNL     1      -4.245   2.226  25.070  0.00  0.00    -0.354 OA
ENDROOT
BRANCH   8   7
ATOM      7  C   UNL     1      -4.444   1.017  24.334  0.00  0.00    +0.079 C 
BRANCH   7   6
ATOM      4  C   UNL     1      -3.085  -0.454  25.071  0.00  0.00    +0.184 A 
ATOM      5  C   UNL     1      -3.263   0.175  24.566  0.00  0.00    +0.056 A 
ATOM      6  C   UNL     1      -4.040   0.407  24.714  0.00  0.00    +0.103 A 
ATOM     26  N   UNL     1      -4.342  -0.077  25.310  0.00  0.00    -0.082 NA
ATOM     27  O   UNL     1      -3.752  -0.609  25.530  0.00  0.00    -0.356 OA
BRANCH   4   3
ATOM      3  C   UNL     1      -2.366  -0.856  25.109  0.00  0.00    +0.209 C 
BRANCH   3   2
ATOM      1  C   UNL     1      -1.071  -1.024  25.691  0.00  0.00    +0.175 C 
ATOM      2  O   UNL     1      -1.806  -0.650  25.679  0.00  0.00    -0.343 OA
ENDBRANCH   3   2
ENDBRANCH   4   3
ENDBRANCH   7   6
ENDBRANCH   8   7
BRANCH  13  14
ATOM     14  C   UNL     1      -4.045   3.434  25.806  0.00  0.00    +0.121 C 
BRANCH  14  15
ATOM     15  N   UNL     1      -3.318   3.574  25.441  0.00  0.00    -0.211 NA
BRANCH  15  16
ATOM     16  C   UNL     1      -2.648   3.722  25.899  0.00  0.00    +0.118 C 
BRANCH  16  17
ATOM     17  C   UNL     1      -1.988   4.084  25.560  0.00  0.00    +0.029 A 
ATOM     18  C   UNL     1      -2.058   4.833  25.221  0.00  0.00    +0.000 A 
ATOM     19  C   UNL     1      -1.399   5.195  24.882  0.00  0.00    -0.000 A 
ATOM     20  C   UNL     1      -0.670   4.807  24.881  0.00  0.00    +0.003 A 
ATOM     21  C   UNL     1      -0.601   4.058  25.219  0.00  0.00    +0.037 A 
ATOM     22  C   UNL     1      -1.260   3.697  25.559  0.00  0.00    +0.136 A 
BRANCH  22  23
ATOM     23  O   UNL     1      -1.191   2.948  25.897  0.00  0.00    -0.472 OA
ATOM     24  C   UNL     1      -0.447   2.604  25.990  0.00  0.00    +0.252 C 
ENDBRANCH  22  23
ENDBRANCH  16  17
ENDBRANCH  15  16
ENDBRANCH  14  15
ENDBRANCH  13  14
TORSDOF 9
ENDMDL
MODEL 5
REMARK VINA RESULT:      -9.0      1.648      4.715
REMARK  Name = 
REMARK  9 active torsions:
REMARK  status: ('A' for Active; 'I' for Inactive)
REMARK    1  A    between atoms: O_2  and  C_3
REMARK    2  A    between atoms: C_3  and  C_4
REMARK    3  A    between atoms: C_6  and  C_7
REMARK    4  A    between atoms: C_7  and  C_8
REMARK    5  A    between atoms: C_13  and  C_14
REMARK    6  A    between atoms: C_14  and  N_15
REMARK    7  A    between atoms: N_15  and  C_16
REMARK    8  A    between atoms: C_16  and  C_17
REMARK    9  A    between atoms: C_22  and  O_23
REMARK                            x       y       z     vdW  Elec       q    Type
REMARK                         _______ _______ _______ _____ _____    ______ ____
ROOT
ATOM      8  C   UNL     1      -0.874   0.933  25.285  0.00  0.00    +0.121 C 
ATOM      9  C   UNL     1      -0.164   1.198  24.961  0.00  0.00    +0.033 C 
ATOM     10  C   UNL     1      -0.134   1.927  24.574  0.00  0.00    +0.038 C 
ATOM     11  C   UNL     1      -0.815   2.389  24.512  0.00  0.00    +0.180 C 
ATOM     12  O   UNL     1      -0.785   3.117  24.125  0.00  0.00    -0.220 OA
ATOM     13  C   UNL     1      -1.525   2.123  24.836  0.00  0.00    +0.163 C 
ATOM     25  O   UNL     1      -1.555   1.395  25.223  0.00  0.00    -0.354 OA
ENDROOT
BRANCH   8   7
ATOM      7  C   UNL     1      -0.905   0.204  25.672  0.00  0.00    +0.079 C 
BRANCH   7   6
ATOM      4  C   UNL     1      -1.773  -1.554  24.829  0.00  0.00    +0.184 A 
ATOM      5  C   UNL     1      -1.791  -0.928  25.366  0.00  0.00    +0.056 A 
ATOM      6  C   UNL     1      -1.111  -0.476  25.253  0.00  0.00    +0.103 A 
ATOM     26  N   UNL     1      -0.672  -0.822  24.647  0.00  0.00    -0.082 NA
ATOM     27  O   UNL     1      -1.081  -1.489  24.385  0.00  0.00    -0.356 OA
BRANCH   4   3
ATOM      3  C   UNL     1      -2.346  -2.143  24.751  0.00  0.00    +0.209 C 
BRANCH   3   2
ATOM      1  C   UNL     1      -3.658  -2.542  24.349  0.00  0.00    +0.175 C 
ATOM      2  O   UNL     1      -3.053  -1.981  24.359  0.00  0.00    -0.343 OA
ENDBRANCH   3   2
ENDBRANCH   4   3
ENDBRANCH   7   6
ENDBRANCH   8   7
BRANCH  13  14
ATOM     14  C   UNL     1      -2.205   2.585  24.774  0.00  0.00    +0.121 C 
BRANCH  14  15
ATOM     15  N   UNL     1      -2.950   2.233  24.826  0.00  0.00    -0.211 NA
BRANCH  15  16
ATOM     16  C   UNL     1      -3.628   2.702  24.839  0.00  0.00    +0.118 C 
BRANCH  16  17
ATOM     17  C   UNL     1      -4.369   2.353  24.941  0.00  0.00    +0.029 A 
ATOM     18  C   UNL     1      -4.466   1.545  24.806  0.00  0.00    +0.000 A 
ATOM     19  C   UNL     1      -5.206   1.196  24.908  0.00  0.00    -0.000 A 
ATOM     20  C   UNL     1      -5.850   1.655  25.145  0.00  0.00    +0.003 A 
ATOM     21  C   UNL     1      -5.753   2.463  25.280  0.00  0.00    +0.037 A 
ATOM     22  C   UNL     1      -5.012   2.812  25.178  0.00  0.00    +0.136 A 
BRANCH  22  23
ATOM     23  O   UNL     1      -4.915   3.620  25.313  0.00  0.00    -0.472 OA
ATOM     24  C   UNL     1      -5.546   4.070  25.595  0.00  0.00    +0.252 C 
ENDBRANCH  22  23
ENDBRANCH  16  17
ENDBRANCH  15  16
ENDBRANCH  14  15
ENDBRANCH  13  14
TORSDOF 9
ENDMDL
