MODEL 1
REMARK VINA RESULT:     -12.9      0.000      0.000
REMARK  Name = 
REMARK  8 active torsions:
REMARK  status: ('A' for Active; 'I' for Inactive)
REMARK    1  A    between atoms: C_2  and  C_3
REMARK    2  A    between atoms: C_2  and  C_26
REMARK    3  A    between atoms: C_10  and  N_11
REMARK    4  A    between atoms: C_12  and  C_14
REMARK    5  A    between atoms: C_14  and  C_15
REMARK    6  A    between atoms: N_28  and  C_29
REMARK    7  A    between atoms: C_29  and  C_30
REMARK    8  A    between atoms: C_30  and  N_31
REMARK                            x       y       z     vdW  Elec       q    Type
REMARK                         _______ _______ _______ _____ _____    ______ ____
ROOT
ATOM      3  C   UNL     1      -4.063   3.355  24.927  0.00  0.00    +0.039 C 
ATOM      4  C   UNL     1      -4.666   3.374  25.491  0.00  0.00    +0.003 C 
ATOM      5  C   UNL     1      -5.110   2.696  25.642  0.00  0.00    +0.000 C 
ATOM      6  C   UNL     1      -4.953   1.999  25.230  0.00  0.00    +0.002 C 
ATOM      7  C   UNL     1      -5.554   2.018  25.793  0.00  0.00    +0.000 C 
ATOM      8  C   UNL     1      -5.397   1.321  25.381  0.00  0.00    +0.002 C 
ATOM      9  C   UNL     1      -5.240   0.623  24.969  0.00  0.00    +0.022 C 
ATOM     10  C   UNL     1      -4.637   0.605  24.404  0.00  0.00    +0.095 C 
ATOM     21  C   UNL     1      -4.193   1.283  24.254  0.00  0.00    +0.022 C 
ATOM     22  C   UNL     1      -3.591   1.265  23.690  0.00  0.00    +0.002 C 
ATOM     23  C   UNL     1      -4.350   1.981  24.666  0.00  0.00    +0.032 C 
ATOM     24  C   UNL     1      -3.906   2.659  24.515  0.00  0.00    +0.152 C 
ATOM     25  O   UNL     1      -3.304   2.640  23.951  0.00  0.00    -0.223 OA
ENDROOT
BRANCH  10  11
ATOM     11  N   UNL     1      -4.480  -0.092  23.992  0.00  0.00    -0.207 NA
ATOM     12  C   UNL     1      -4.321  -0.788  24.404  0.00  0.00    +0.246 C 
ATOM     13  O   UNL     1      -4.319  -0.788  25.230  0.00  0.00    -0.273 OA
BRANCH  12  14
ATOM     14  C   UNL     1      -4.163  -1.485  23.992  0.00  0.00    +0.113 C 
BRANCH  14  15
ATOM     15  C   UNL     1      -3.575  -1.998  24.258  0.00  0.00    -0.013 A 
ATOM     16  C   UNL     1      -2.779  -1.801  24.158  0.00  0.00    -0.004 A 
ATOM     17  C   UNL     1      -2.191  -2.315  24.424  0.00  0.00    -0.000 A 
ATOM     18  C   UNL     1      -2.397  -3.024  24.790  0.00  0.00    -0.000 A 
ATOM     19  C   UNL     1      -3.192  -3.221  24.890  0.00  0.00    -0.000 A 
ATOM     20  C   UNL     1      -3.781  -2.709  24.624  0.00  0.00    -0.004 A 
ENDBRANCH  14  15
ENDBRANCH  12  14
ENDBRANCH  10  11
BRANCH   3   2
ATOM      1  C   UNL     1      -3.838   4.542  24.164  0.00  0.00    +0.010 C 
ATOM      2  C   UNL     1      -3.619   4.034  24.776  0.00  0.00    +0.081 C 
BRANCH   2  26
ATOM     26  C   UNL     1      -2.957   4.205  25.236  0.00  0.00    +0.241 C 
ATOM     27  O   UNL     1      -3.051   4.527  25.991  0.00  0.00    -0.273 OA
ATOM     28  N   UNL     1      -2.200   4.055  24.944  0.00  0.00    -0.204 NA
BRANCH  28  29
ATOM     29  C   UNL     1      -1.538   4.225  25.404  0.00  0.00    +0.132 C 
BRANCH  29  30
ATOM     30  C   UNL     1      -0.781   4.126  25.092  0.00  0.00    +0.096 C 
BRANCH  30  31
ATOM     31  N   UNL     1      -0.368   3.425  25.224  0.00  0.00    -0.267 NA
ATOM     32  C   UNL     1      -0.230   3.166  25.995  0.00  0.00    +0.105 C 
ATOM     33  C   UNL     1       0.183   2.464  26.127  0.00  0.00    +0.159 C 
ATOM     34  O   UNL     1       0.458   2.021  25.486  0.00  0.00    -0.351 OA
ATOM     35  C   UNL     1       0.320   2.279  24.716  0.00  0.00    +0.159 C 
ATOM     36  C   UNL     1      -0.093   2.982  24.584  0.00  0.00    +0.105 C 
ENDBRANCH  30  31
ENDBRANCH  29  30
ENDBRANCH  28  29
ENDBRANCH   2  26
ENDBRANCH   3   2
TORSDOF 8
ENDMDL
MODEL 2
REMARK VINA RESULT:     -12.0      1.665      3.866
REMARK  Name = 
REMARK  8 active torsions:
REMARK  status: ('A' for Active; 'I' for Inactive)
REMARK    1  A    between atoms: C_2  and  C_3
REMARK    2  A    between atoms: C_2  and  C_26
REMARK    3  A    between atoms: C_10  and  N_11
REMARK    4  A    between atoms: C_12  and  C_14
REMARK    5  A    between atoms: C_14  and  C_15
REMARK    6  A    between atoms: N_28  and  C_29
REMARK    7  A    between atoms: C_29  and  C_30
REMARK    8  A    between atoms: C_30  and  N_31
REMARK                            x       y       z     vdW  Elec       q    Type
REMARK                         _______ _______ _______ _____ _____    ______ ____
ROOT
ATOM      3  C   UNL     1      -0.169   2.181  25.188  0.00  0.00    +0.039 C 
ATOM      4  C   UNL     1       0.268   2.240  24.490  0.00  0.00    +0.003 C 
ATOM      5  C   UNL     1       0.379   1.575  24.016  0.00  0.00    +0.000 C 
ATOM      6  C   UNL     1       0.054   0.851  24.239  0.00  0.00    +0.002 C 
ATOM      7  C   UNL     1       0.490   0.909  23.542  0.00  0.00    +0.000 C 
ATOM      8  C   UNL     1       0.165   0.184  23.765  0.00  0.00    +0.002 C 
ATOM      9  C   UNL     1      -0.161  -0.541  23.988  0.00  0.00    +0.022 C 
ATOM     10  C   UNL     1      -0.598  -0.599  24.686  0.00  0.00    +0.095 C 
ATOM     21  C   UNL     1      -0.709   0.067  25.160  0.00  0.00    +0.022 C 
ATOM     22  C   UNL     1      -1.146   0.008  25.857  0.00  0.00    +0.002 C 
ATOM     23  C   UNL     1      -0.383   0.792  24.937  0.00  0.00    +0.032 C 
ATOM     24  C   UNL     1      -0.494   1.457  25.411  0.00  0.00    +0.152 C 
ATOM     25  O   UNL     1      -0.931   1.399  26.108  0.00  0.00    -0.223 OA
ENDROOT
BRANCH  10  11
ATOM     11  N   UNL     1      -0.923  -1.323  24.909  0.00  0.00    -0.207 NA
ATOM     12  C   UNL     1      -1.343  -1.773  24.360  0.00  0.00    +0.246 C 
ATOM     13  O   UNL     1      -1.438  -1.498  23.587  0.00  0.00    -0.273 OA
BRANCH  12  14
ATOM     14  C   UNL     1      -1.669  -2.498  24.583  0.00  0.00    +0.113 C 
BRANCH  14  15
ATOM     15  C   UNL     1      -2.485  -2.611  24.552  0.00  0.00    -0.013 A 
ATOM     16  C   UNL     1      -2.940  -2.517  25.235  0.00  0.00    -0.004 A 
ATOM     17  C   UNL     1      -3.757  -2.630  25.204  0.00  0.00    -0.000 A 
ATOM     18  C   UNL     1      -4.119  -2.836  24.493  0.00  0.00    -0.000 A 
ATOM     19  C   UNL     1      -3.664  -2.929  23.810  0.00  0.00    -0.000 A 
ATOM     20  C   UNL     1      -2.848  -2.816  23.840  0.00  0.00    -0.004 A 
ENDBRANCH  14  15
ENDBRANCH  12  14
ENDBRANCH  10  11
BRANCH   3   2
ATOM      1  C   UNL     1       0.126   2.917  26.377  0.00  0.00    +0.010 C 
ATOM      2  C   UNL     1      -0.280   2.848  25.662  0.00  0.00    +0.081 C 
BRANCH   2  26
ATOM     26  C   UNL     1      -0.796   3.444  25.422  0.00  0.00    +0.241 C 
ATOM     27  O   UNL     1      -0.533   4.034  24.907  0.00  0.00    -0.273 OA
ATOM     28  N   UNL     1      -1.574   3.452  25.696  0.00  0.00    -0.204 NA
BRANCH  28  29
ATOM     29  C   UNL     1      -2.090   4.049  25.456  0.00  0.00    +0.132 C 
BRANCH  29  30
ATOM     30  C   UNL     1      -2.806   4.160  25.851  0.00  0.00    +0.096 C 
BRANCH  30  31
ATOM     31  N   UNL     1      -3.513   3.921  25.499  0.00  0.00    -0.267 NA
ATOM     32  C   UNL     1      -3.631   4.035  24.691  0.00  0.00    +0.105 C 
ATOM     33  C   UNL     1      -4.338   3.796  24.339  0.00  0.00    +0.159 C 
ATOM     34  O   UNL     1      -4.928   3.443  24.797  0.00  0.00    -0.351 OA
ATOM     35  C   UNL     1      -4.810   3.330  25.605  0.00  0.00    +0.159 C 
ATOM     36  C   UNL     1      -4.103   3.568  25.957  0.00  0.00    +0.105 C 
ENDBRANCH  30  31
ENDBRANCH  29  30
ENDBRANCH  28  29
ENDBRANCH   2  26
ENDBRANCH   3   2
TORSDOF 8
ENDMDL
MODEL 3
REMARK VINA RESULT:     -11.8      2.325      4.816
REMARK  Name = 
REMARK  8 active torsions:
REMARK  status: ('A' for Active; 'I' for Inactive)
REMARK    1  A    between atoms: C_2  and  C_3
REMARK    2  A    between atoms: C_2  and  C_26
REMARK    3  A    between atoms: C_10  and  N_11
REMARK    4  A    between atoms: C_12  and  C_14
REMARK    5  A    between atoms: C_14  and  C_15
REMARK    6  A    between atoms: N_28  and  C_29
REMARK    7  A    between atoms: C_29  and  C_30
REMARK    8  A    between atoms: C_30  and  N_31
REMARK                            x       y       z     vdW  Elec       q    Type
REMARK                         _______ _______ _______ _____ _____    ______ ____
ROOT
ATOM      3  C   UNL     1      -1.845  -1.406  24.797  0.00  0.00    +0.039 C 
ATOM      4  C   UNL     1      -2.246  -1.982  24.361  0.00  0.00    +0.003 C 
ATOM      5  C   UNL     1      -3.054  -1.903  24.220  0.00  0.00    +0.000 C 
ATOM      6  C   UNL     1      -3.463  -1.250  24.513  0.00  0.00    +0.002 C 
ATOM      7  C   UNL     1      -3.862  -1.825  24.078  0.00  0.00    +0.000 C 
ATOM      8  C   UNL     1      -4.272  -1.171  24.372  0.00  0.00    +0.002 C 
ATOM      9  C   UNL     1      -4.681  -0.518  24.665  0.00  0.00    +0.022 C 
ATOM     10  C   UNL     1      -4.281   0.058  25.101  0.00  0.00    +0.095 C 
ATOM     21  C   UNL     1      -3.471  -0.020  25.242  0.00  0.00    +0.022 C 
ATOM     22  C   UNL     1      -3.071   0.555  25.677  0.00  0.00    +0.002 C 
ATOM     23  C   UNL     1      -3.062  -0.674  24.949  0.00  0.00    +0.032 C 
ATOM     24  C   UNL     1      -2.254  -0.752  25.090  0.00  0.00    +0.152 C 
ATOM     25  O   UNL     1      -1.853  -0.177  25.525  0.00  0.00    -0.223 OA
ENDROOT
BRANCH  10  11
ATOM     11  N   UNL     1      -4.689   0.712  25.394  0.00  0.00    -0.207 NA
ATOM     12  C   UNL     1      -5.049   1.240  24.874  0.00  0.00    +0.246 C 
ATOM     13  O   UNL     1      -5.001   1.116  24.059  0.00  0.00    -0.273 OA
BRANCH  12  14
ATOM     14  C   UNL     1      -5.459   1.894  25.168  0.00  0.00    +0.113 C 
BRANCH  14  15
ATOM     15  C   UNL     1      -5.116   2.644  25.136  0.00  0.00    -0.013 A 
ATOM     16  C   UNL     1      -5.078   3.109  25.818  0.00  0.00    -0.004 A 
ATOM     17  C   UNL     1      -4.735   3.859  25.786  0.00  0.00    -0.000 A 
ATOM     18  C   UNL     1      -4.431   4.144  25.075  0.00  0.00    -0.000 A 
ATOM     19  C   UNL     1      -4.470   3.679  24.393  0.00  0.00    -0.000 A 
ATOM     20  C   UNL     1      -4.812   2.930  24.425  0.00  0.00    -0.004 A 
ENDBRANCH  14  15
ENDBRANCH  12  14
ENDBRANCH  10  11
BRANCH   3   2
ATOM      1  C   UNL     1      -0.762  -1.607  25.706  0.00  0.00    +0.010 C 
ATOM      2  C   UNL     1      -1.036  -1.484  24.938  0.00  0.00    +0.081 C 
BRANCH   2  26
ATOM     26  C   UNL     1      -0.501  -1.441  24.312  0.00  0.00    +0.241 C 
ATOM     27  O   UNL     1      -0.381  -2.097  23.825  0.00  0.00    -0.273 OA
ATOM     28  N   UNL     1      -0.086  -0.742  24.171  0.00  0.00    -0.204 NA
BRANCH  28  29
ATOM     29  C   UNL     1       0.449  -0.698  23.545  0.00  0.00    +0.132 C 
BRANCH  29  30
ATOM     30  C   UNL     1       0.755   0.033  23.314  0.00  0.00    +0.096 C 
BRANCH  30  31
ATOM     31  N   UNL     1       1.444   0.067  22.863  0.00  0.00    -0.267 NA
ATOM     32  C   UNL     1       2.122   0.424  23.171  0.00  0.00    +0.105 C 
ATOM     33  C   UNL     1       2.811   0.459  22.721  0.00  0.00    +0.159 C 
ATOM     34  O   UNL     1       2.825   0.136  21.960  0.00  0.00    -0.351 OA
ATOM     35  C   UNL     1       2.148  -0.220  21.652  0.00  0.00    +0.159 C 
ATOM     36  C   UNL     1       1.458  -0.255  22.103  0.00  0.00    +0.105 C 
ENDBRANCH  30  31
ENDBRANCH  29  30
ENDBRANCH  28  29
ENDBRANCH   2  26
ENDBRANCH   3   2
TORSDOF 8
ENDMDL
MODEL 4
REMARK VINA RESULT:     -11.6      2.769      5.077
REMARK  Name = 
REMARK  8 active torsions:
REMARK  status: ('A' for Active; 'I' for Inactive)
REMARK    1  A    between atoms: C_2  and  C_3
REMARK    2  A    between atoms: C_2  and  C_26
REMARK    3  A    between atoms: C_10  and  N_11
REMARK    4  A    between atoms: C_12  and  C_14
REMARK    5  A    between atoms: C_14  and  C_15
REMARK    6  A    between atoms: N_28  and  C_29
REMARK    7  A    between atoms: C_29  and  C_30
REMARK    8  A    between atoms: C_30  and  N_31
REMARK                            x       y       z     vdW  Elec       q    Type
REMARK                         _______ _______ _______ _____ _____    ______ ____
ROOT
ATOM      3  C   UNL     1      -0.124   0.830  24.016  0.00  0.00    +0.039 C 
ATOM      4  C   UNL     1       0.346   1.349  24.454  0.00  0.00    +0.003 C 
ATOM      5  C   UNL     1       0.025   2.050  24.745  0.00  0.00    +0.000 C 
ATOM      6  C   UNL     1      -0.765   2.233  24.601  0.00  0.00    +0.002 C 
ATOM      7  C   UNL     1      -0.296   2.751  25.037  0.00  0.00    +0.000 C 
ATOM      8  C   UNL     1      -1.087   2.935  24.893  0.00  0.00    +0.002 C 
ATOM      9  C   UNL     1      -1.878   3.119  24.748  0.00  0.00    +0.022 C 
ATOM     10  C   UNL     1      -2.349   2.600  24.310  0.00  0.00    +0.095 C 
ATOM     21  C   UNL     1      -2.027   1.899  24.018  0.00  0.00    +0.022 C 
ATOM     22  C   UNL     1      -2.497   1.381  23.581  0.00  0.00    +0.002 C 
ATOM     23  C   UNL     1      -1.236   1.715  24.163  0.00  0.00    +0.032 C 
ATOM     24  C   UNL     1      -0.915   1.014  23.871  0.00  0.00    +0.152 C 
ATOM     25  O   UNL     1      -1.385   0.495  23.434  0.00  0.00    -0.223 OA
ENDROOT
BRANCH  10  11
ATOM     11  N   UNL     1      -3.139   2.784  24.165  0.00  0.00    -0.207 NA
ATOM     12  C   UNL     1      -3.614   3.071  24.775  0.00  0.00    +0.246 C 
ATOM     13  O   UNL     1      -3.298   3.176  25.530  0.00  0.00    -0.273 OA
BRANCH  12  14
ATOM     14  C   UNL     1      -4.406   3.255  24.630  0.00  0.00    +0.113 C 
BRANCH  14  15
ATOM     15  C   UNL     1      -5.003   2.844  25.022  0.00  0.00    -0.013 A 
ATOM     16  C   UNL     1      -5.371   2.202  24.655  0.00  0.00    -0.004 A 
ATOM     17  C   UNL     1      -5.969   1.790  25.047  0.00  0.00    -0.000 A 
ATOM     18  C   UNL     1      -6.200   2.020  25.805  0.00  0.00    -0.000 A 
ATOM     19  C   UNL     1      -5.832   2.662  26.171  0.00  0.00    -0.000 A 
ATOM     20  C   UNL     1      -5.235   3.073  25.780  0.00  0.00    -0.004 A 
ENDBRANCH  14  15
ENDBRANCH  12  14
ENDBRANCH  10  11
BRANCH   3   2
ATOM      1  C   UNL     1      -0.081  -0.598  23.999  0.00  0.00    +0.010 C 
ATOM      2  C   UNL     1       0.197   0.129  23.724  0.00  0.00    +0.081 C 
BRANCH   2  26
ATOM     26  C   UNL     1       0.796   0.153  23.158  0.00  0.00    +0.241 C 
ATOM     27  O   UNL     1       0.614   0.330  22.372  0.00  0.00    -0.273 OA
ATOM     28  N   UNL     1       1.577   0.001  23.376  0.00  0.00    -0.204 NA
BRANCH  28  29
ATOM     29  C   UNL     1       2.176   0.025  22.810  0.00  0.00    +0.132 C 
BRANCH  29  30
ATOM     30  C   UNL     1       2.856  -0.432  22.907  0.00  0.00    +0.096 C 
BRANCH  30  31
ATOM     31  N   UNL     1       3.594  -0.069  22.966  0.00  0.00    -0.267 NA
ATOM     32  C   UNL     1       3.732   0.650  22.585  0.00  0.00    +0.105 C 
ATOM     33  C   UNL     1       4.469   1.014  22.644  0.00  0.00    +0.159 C 
ATOM     34  O   UNL     1       5.071   0.658  23.085  0.00  0.00    -0.351 OA
ATOM     35  C   UNL     1       4.933  -0.060  23.465  0.00  0.00    +0.159 C 
ATOM     36  C   UNL     1       4.195  -0.425  23.406  0.00  0.00    +0.105 C 
ENDBRANCH  30  31
ENDBRANCH  29  30
ENDBRANCH  28  29
ENDBRANCH   2  26
ENDBRANCH   3   2
TORSDOF 8
ENDMDL
MODEL 5
REMARK VINA RESULT:     -11.3      2.947      6.013
REMARK  Name = 
REMARK  8 active torsions:
REMARK  status: ('A' for Active; 'I' for Inactive)
REMARK    1  A    between atoms: C_2  and  C_3
REMARK    2  A    between atoms: C_2  and  C_26
REMARK    3  A    between atoms: C_10  and  N_11
REMARK    4  A    between atoms: C_12  and  C_14
REMARK    5  A    between atoms: C_14  and  C_15
REMARK    6  A    between atoms: N_28  and  C_29
REMARK    7  A    between atoms: C_29  and  C_30
REMARK    8  A    between atoms: C_30  and  N_31
REMARK                            x       y       z     vdW  Elec       q    Type
REMARK                         _______ _______ _______ _____ _____    ______ ____
ROOT
ATOM      3  C   UNL     1      -1.345   0.464  24.574  0.00  0.00    +0.039 C 
ATOM      4  C   UNL     1      -1.292   1.252  24.814  0.00  0.00    +0.003 C 
ATOM      5  C   UNL     1      -0.616   1.691  24.641  0.00  0.00    +0.000 C 
ATOM      6  C   UNL     1       0.007   1.343  24.228  0.00  0.00    +0.002 C 
ATOM      7  C   UNL     1       0.061   2.130  24.468  0.00  0.00    +0.000 C 
ATOM      8  C   UNL     1       0.684   1.782  24.054  0.00  0.00    +0.002 C 
ATOM      9  C   UNL     1       1.308   1.434  23.640  0.00  0.00    +0.022 C 
ATOM     10  C   UNL     1       1.254   0.646  23.399  0.00  0.00    +0.095 C 
ATOM     21  C   UNL     1       0.577   0.207  23.573  0.00  0.00    +0.022 C 
ATOM     22  C   UNL     1       0.524  -0.580  23.332  0.00  0.00    +0.002 C 
ATOM     23  C   UNL     1      -0.046   0.555  23.987  0.00  0.00    +0.032 C 
ATOM     24  C   UNL     1      -0.722   0.116  24.160  0.00  0.00    +0.152 C 
ATOM     25  O   UNL     1      -0.776  -0.671  23.920  0.00  0.00    -0.223 OA
ENDROOT
BRANCH  10  11
ATOM     11  N   UNL     1       1.877   0.298  22.986  0.00  0.00    -0.207 NA
ATOM     12  C   UNL     1       2.625   0.645  22.998  0.00  0.00    +0.246 C 
ATOM     13  O   UNL     1       2.750   1.340  23.426  0.00  0.00    -0.273 OA
BRANCH  12  14
ATOM     14  C   UNL     1       3.248   0.297  22.585  0.00  0.00    +0.113 C 
BRANCH  14  15
ATOM     15  C   UNL     1       3.965   0.150  22.965  0.00  0.00    -0.013 A 
ATOM     16  C   UNL     1       4.546   0.736  22.991  0.00  0.00    -0.004 A 
ATOM     17  C   UNL     1       5.263   0.589  23.372  0.00  0.00    -0.000 A 
ATOM     18  C   UNL     1       5.400  -0.143  23.725  0.00  0.00    -0.000 A 
ATOM     19  C   UNL     1       4.819  -0.730  23.699  0.00  0.00    -0.000 A 
ATOM     20  C   UNL     1       4.102  -0.583  23.319  0.00  0.00    -0.004 A 
ENDBRANCH  14  15
ENDBRANCH  12  14
ENDBRANCH  10  11
BRANCH   3   2
ATOM      1  C   UNL     1      -1.957  -0.688  25.157  0.00  0.00    +0.010 C 
ATOM      2  C   UNL     1      -2.022   0.025  24.747  0.00  0.00    +0.081 C 
BRANCH   2  26
ATOM     26  C   UNL     1      -2.763   0.299  24.512  0.00  0.00    +0.241 C 
ATOM     27  O   UNL     1      -2.961   0.317  23.711  0.00  0.00    -0.273 OA
ATOM     28  N   UNL     1      -3.308   0.555  25.077  0.00  0.00    -0.204 NA
BRANCH  28  29
ATOM     29  C   UNL     1      -4.049   0.828  24.842  0.00  0.00    +0.132 C 
BRANCH  29  30
ATOM     30  C   UNL     1      -4.642   0.948  25.403  0.00  0.00    +0.096 C 
BRANCH  30  31
ATOM     31  N   UNL     1      -5.148   1.596  25.338  0.00  0.00    -0.267 NA
ATOM     32  C   UNL     1      -5.897   1.503  25.004  0.00  0.00    +0.105 C 
ATOM     33  C   UNL     1      -6.403   2.151  24.939  0.00  0.00    +0.159 C 
ATOM     34  O   UNL     1      -6.159   2.893  25.208  0.00  0.00    -0.351 OA
ATOM     35  C   UNL     1      -5.411   2.986  25.541  0.00  0.00    +0.159 C 
ATOM     36  C   UNL     1      -4.905   2.338  25.606  0.00  0.00    +0.105 C 
ENDBRANCH  30  31
ENDBRANCH  29  30
ENDBRANCH  28  29
ENDBRANCH   2  26
ENDBRANCH   3   2
TORSDOF 8
ENDMDL
MODEL 6
REMARK VINA RESULT:     -11.1      1.535      3.743
REMARK  Name = 
REMARK  8 active torsions:
REMARK  status: ('A' for Active; 'I' for Inactive)
REMARK    1  A    between atoms: C_2  and  C_3
REMARK    2  A    between atoms: C_2  and  C_26
REMARK    3  A    between atoms: C_10  and  N_11
REMARK    4  A    between atoms: C_12  and  C_14
REMARK    5  A    between atoms: C_14  and  C_15
REMARK    6  A    between atoms: N_28  and  C_29
REMARK    7  A    between atoms: C_29  and  C_30
REMARK    8  A    between atoms: C_30  and  N_31
REMARK                            x       y       z     vdW  Elec       q    Type
REMARK                         _______ _______ _______ _____ _____    ______ ____
ROOT
ATOM      3  C   UNL     1      -1.664   3.522  25.309  0.00  0.00    +0.039 C 
ATOM      4  C   UNL     1      -1.035   3.609  25.837  0.00  0.00    +0.003 C 
ATOM      5  C   UNL     1      -0.491   2.997  25.933  0.00  0.00    +0.000 C 
ATOM      6  C   UNL     1      -0.575   2.299  25.502  0.00  0.00    +0.002 C 
ATOM      7  C   UNL     1       0.053   2.385  26.028  0.00  0.00    +0.000 C 
ATOM      8  C   UNL     1      -0.031   1.686  25.598  0.00  0.00    +0.002 C 
ATOM      9  C   UNL     1      -0.115   0.987  25.167  0.00  0.00    +0.022 C 
ATOM     10  C   UNL     1      -0.745   0.900  24.640  0.00  0.00    +0.095 C 
ATOM     21  C   UNL     1      -1.289   1.513  24.544  0.00  0.00    +0.022 C 
ATOM     22  C   UNL     1      -1.918   1.427  24.017  0.00  0.00    +0.002 C 
ATOM     23  C   UNL     1      -1.205   2.212  24.975  0.00  0.00    +0.032 C 
ATOM     24  C   UNL     1      -1.749   2.824  24.879  0.00  0.00    +0.152 C 
ATOM     25  O   UNL     1      -2.378   2.738  24.352  0.00  0.00    -0.223 OA
ENDROOT
BRANCH  10  11
ATOM     11  N   UNL     1      -0.829   0.202  24.210  0.00  0.00    -0.207 NA
ATOM     12  C   UNL     1      -0.877  -0.521  24.602  0.00  0.00    +0.246 C 
ATOM     13  O   UNL     1      -0.840  -0.546  25.427  0.00  0.00    -0.273 OA
BRANCH  12  14
ATOM     14  C   UNL     1      -0.961  -1.220  24.172  0.00  0.00    +0.113 C 
BRANCH  14  15
ATOM     15  C   UNL     1      -1.573  -1.743  24.350  0.00  0.00    -0.013 A 
ATOM     16  C   UNL     1      -2.312  -1.651  23.993  0.00  0.00    -0.004 A 
ATOM     17  C   UNL     1      -2.924  -2.175  24.172  0.00  0.00    -0.000 A 
ATOM     18  C   UNL     1      -2.798  -2.790  24.706  0.00  0.00    -0.000 A 
ATOM     19  C   UNL     1      -2.059  -2.883  25.063  0.00  0.00    -0.000 A 
ATOM     20  C   UNL     1      -1.447  -2.359  24.885  0.00  0.00    -0.004 A 
ENDBRANCH  14  15
ENDBRANCH  12  14
ENDBRANCH  10  11
BRANCH   3   2
ATOM      1  C   UNL     1      -2.052   4.746  24.681  0.00  0.00    +0.010 C 
ATOM      2  C   UNL     1      -2.209   4.135  25.214  0.00  0.00    +0.081 C 
BRANCH   2  26
ATOM     26  C   UNL     1      -2.908   4.138  25.649  0.00  0.00    +0.241 C 
ATOM     27  O   UNL     1      -2.899   4.359  26.445  0.00  0.00    -0.273 OA
ATOM     28  N   UNL     1      -3.619   3.919  25.291  0.00  0.00    -0.204 NA
BRANCH  28  29
ATOM     29  C   UNL     1      -4.319   3.922  25.727  0.00  0.00    +0.132 C 
BRANCH  29  30
ATOM     30  C   UNL     1      -5.041   3.794  25.349  0.00  0.00    +0.096 C 
BRANCH  30  31
ATOM     31  N   UNL     1      -5.445   3.084  25.461  0.00  0.00    -0.267 NA
ATOM     32  C   UNL     1      -5.558   2.568  24.827  0.00  0.00    +0.105 C 
ATOM     33  C   UNL     1      -5.962   1.858  24.938  0.00  0.00    +0.159 C 
ATOM     34  O   UNL     1      -6.255   1.663  25.686  0.00  0.00    -0.351 OA
ATOM     35  C   UNL     1      -6.143   2.178  26.320  0.00  0.00    +0.159 C 
ATOM     36  C   UNL     1      -5.738   2.889  26.208  0.00  0.00    +0.105 C 
ENDBRANCH  30  31
ENDBRANCH  29  30
ENDBRANCH  28  29
ENDBRANCH   2  26
ENDBRANCH   3   2
TORSDOF 8
ENDMDL
MODEL 7
REMARK VINA RESULT:     -11.1      1.993      3.007
REMARK  Name = 
REMARK  8 active torsions:
REMARK  status: ('A' for Active; 'I' for Inactive)
REMARK    1  A    between atoms: C_2  and  C_3
REMARK    2  A    between atoms: C_2  and  C_26
REMARK    3  A    between atoms: C_10  and  N_11
REMARK    4  A    between atoms: C_12  and  C_14
REMARK    5  A    between atoms: C_14  and  C_15
REMARK    6  A    between atoms: N_28  and  C_29
REMARK    7  A    between atoms: C_29  and  C_30
REMARK    8  A    between atoms: C_30  and  N_31
REMARK                            x       y       z     vdW  Elec       q    Type
REMARK                         _______ _______ _______ _____ _____    ______ ____
ROOT
ATOM      3  C   UNL     1      -1.196   2.542  24.730  0.00  0.00    +0.039 C 
ATOM      4  C   UNL     1      -1.598   3.109  24.284  0.00  0.00    +0.003 C 
ATOM      5  C   UNL     1      -2.385   2.984  24.072  0.00  0.00    +0.000 C 
ATOM      6  C   UNL     1      -2.771   2.294  24.306  0.00  0.00    +0.002 C 
ATOM      7  C   UNL     1      -3.172   2.859  23.860  0.00  0.00    +0.000 C 
ATOM      8  C   UNL     1      -3.558   2.169  24.095  0.00  0.00    +0.002 C 
ATOM      9  C   UNL     1      -3.945   1.478  24.329  0.00  0.00    +0.022 C 
ATOM     10  C   UNL     1      -3.543   0.912  24.775  0.00  0.00    +0.095 C 
ATOM     21  C   UNL     1      -2.755   1.037  24.987  0.00  0.00    +0.022 C 
ATOM     22  C   UNL     1      -2.353   0.471  25.433  0.00  0.00    +0.002 C 
ATOM     23  C   UNL     1      -2.369   1.728  24.753  0.00  0.00    +0.032 C 
ATOM     24  C   UNL     1      -1.582   1.853  24.964  0.00  0.00    +0.152 C 
ATOM     25  O   UNL     1      -1.180   1.287  25.411  0.00  0.00    -0.223 OA
ENDROOT
BRANCH  10  11
ATOM     11  N   UNL     1      -3.928   0.222  25.009  0.00  0.00    -0.207 NA
ATOM     12  C   UNL     1      -4.159  -0.333  24.446  0.00  0.00    +0.246 C 
ATOM     13  O   UNL     1      -4.004  -0.198  23.646  0.00  0.00    -0.273 OA
BRANCH  12  14
ATOM     14  C   UNL     1      -4.545  -1.024  24.679  0.00  0.00    +0.113 C 
BRANCH  14  15
ATOM     15  C   UNL     1      -4.208  -1.759  24.521  0.00  0.00    -0.013 A 
ATOM     16  C   UNL     1      -4.364  -2.139  23.803  0.00  0.00    -0.004 A 
ATOM     17  C   UNL     1      -4.027  -2.875  23.645  0.00  0.00    -0.000 A 
ATOM     18  C   UNL     1      -3.534  -3.232  24.201  0.00  0.00    -0.000 A 
ATOM     19  C   UNL     1      -3.379  -2.853  24.919  0.00  0.00    -0.000 A 
ATOM     20  C   UNL     1      -3.716  -2.117  25.077  0.00  0.00    -0.004 A 
ENDBRANCH  14  15
ENDBRANCH  12  14
ENDBRANCH  10  11
BRANCH   3   2
ATOM      1  C   UNL     1      -0.223   2.930  25.702  0.00  0.00    +0.010 C 
ATOM      2  C   UNL     1      -0.408   2.668  24.942  0.00  0.00    +0.081 C 
BRANCH   2  26
ATOM     26  C   UNL     1       0.193   2.531  24.395  0.00  0.00    +0.241 C 
ATOM     27  O   UNL     1       0.417   3.128  23.870  0.00  0.00    -0.273 OA
ATOM     28  N   UNL     1       0.571   1.798  24.372  0.00  0.00    -0.204 NA
BRANCH  28  29
ATOM     29  C   UNL     1       1.173   1.661  23.825  0.00  0.00    +0.132 C 
BRANCH  29  30
ATOM     30  C   UNL     1       1.639   0.983  23.884  0.00  0.00    +0.096 C 
BRANCH  30  31
ATOM     31  N   UNL     1       2.024   0.686  23.219  0.00  0.00    -0.267 NA
ATOM     32  C   UNL     1       2.805   0.902  23.062  0.00  0.00    +0.105 C 
ATOM     33  C   UNL     1       3.190   0.605  22.396  0.00  0.00    +0.159 C 
ATOM     34  O   UNL     1       2.794   0.092  21.885  0.00  0.00    -0.351 OA
ATOM     35  C   UNL     1       2.013  -0.124  22.041  0.00  0.00    +0.159 C 
ATOM     36  C   UNL     1       1.628   0.173  22.707  0.00  0.00    +0.105 C 
ENDBRANCH  30  31
ENDBRANCH  29  30
ENDBRANCH  28  29
ENDBRANCH   2  26
ENDBRANCH   3   2
TORSDOF 8
ENDMDL
MODEL 8
REMARK VINA RESULT:     -10.8      1.289      4.806
REMARK  Name = 
REMARK  8 active torsions:
REMARK  status: ('A' for Active; 'I' for Inactive)
REMARK    1  A    between atoms: C_2  and  C_3
REMARK    2  A    between atoms: C_2  and  C_26
REMARK    3  A    between atoms: C_10  and  N_11
REMARK    4  A    between atoms: C_12  and  C_14
REMARK    5  A    between atoms: C_14  and  C_15
REMARK    6  A    between atoms: N_28  and  C_29
REMARK    7  A    between atoms: C_29  and  C_30
REMARK    8  A    between atoms: C_30  and  N_31
REMARK                            x       y       z     vdW  Elec       q    Type
REMARK                         _______ _______ _______ _____ _____    ______ ____
ROOT
ATOM      3  C   UNL     1      -4.607   0.241  24.676  0.00  0.00    +0.039 C 
ATOM      4  C   UNL     1      -5.260   0.331  25.173  0.00  0.00    +0.003 C 
ATOM      5  C   UNL     1      -5.456   1.077  25.465  0.00  0.00    +0.000 C 
ATOM      6  C   UNL     1      -4.999   1.732  25.262  0.00  0.00    +0.002 C 
ATOM      7  C   UNL     1      -5.651   1.823  25.757  0.00  0.00    +0.000 C 
ATOM      8  C   UNL     1      -5.194   2.479  25.554  0.00  0.00    +0.002 C 
ATOM      9  C   UNL     1      -4.737   3.135  25.350  0.00  0.00    +0.022 C 
ATOM     10  C   UNL     1      -4.084   3.045  24.853  0.00  0.00    +0.095 C 
ATOM     21  C   UNL     1      -3.889   2.298  24.561  0.00  0.00    +0.022 C 
ATOM     22  C   UNL     1      -3.236   2.208  24.065  0.00  0.00    +0.002 C 
ATOM     23  C   UNL     1      -4.346   1.642  24.765  0.00  0.00    +0.032 C 
ATOM     24  C   UNL     1      -4.150   0.896  24.473  0.00  0.00    +0.152 C 
ATOM     25  O   UNL     1      -3.498   0.806  23.976  0.00  0.00    -0.223 OA
ENDROOT
BRANCH  10  11
ATOM     11  N   UNL     1      -3.627   3.700  24.649  0.00  0.00    -0.207 NA
ATOM     12  C   UNL     1      -3.233   4.126  25.235  0.00  0.00    +0.246 C 
ATOM     13  O   UNL     1      -3.295   3.896  26.026  0.00  0.00    -0.273 OA
BRANCH  12  14
ATOM     14  C   UNL     1      -2.776   4.782  25.031  0.00  0.00    +0.113 C 
BRANCH  14  15
ATOM     15  C   UNL     1      -1.953   4.734  25.050  0.00  0.00    -0.013 A 
ATOM     16  C   UNL     1      -1.498   5.257  24.600  0.00  0.00    -0.004 A 
ATOM     17  C   UNL     1      -0.675   5.208  24.619  0.00  0.00    -0.000 A 
ATOM     18  C   UNL     1      -0.306   4.639  25.088  0.00  0.00    -0.000 A 
ATOM     19  C   UNL     1      -0.760   4.117  25.538  0.00  0.00    -0.000 A 
ATOM     20  C   UNL     1      -1.583   4.165  25.519  0.00  0.00    -0.004 A 
ENDBRANCH  14  15
ENDBRANCH  12  14
ENDBRANCH  10  11
BRANCH   3   2
ATOM      1  C   UNL     1      -4.744  -0.771  23.677  0.00  0.00    +0.010 C 
ATOM      2  C   UNL     1      -4.412  -0.506  24.384  0.00  0.00    +0.081 C 
BRANCH   2  26
ATOM     26  C   UNL     1      -3.886  -0.987  24.798  0.00  0.00    +0.241 C 
ATOM     27  O   UNL     1      -4.008  -1.137  25.601  0.00  0.00    -0.273 OA
ATOM     28  N   UNL     1      -3.236  -1.318  24.411  0.00  0.00    -0.204 NA
BRANCH  28  29
ATOM     29  C   UNL     1      -2.710  -1.799  24.825  0.00  0.00    +0.132 C 
BRANCH  29  30
ATOM     30  C   UNL     1      -2.065  -2.137  24.436  0.00  0.00    +0.096 C 
BRANCH  30  31
ATOM     31  N   UNL     1      -1.301  -1.875  24.601  0.00  0.00    -0.267 NA
ATOM     32  C   UNL     1      -0.918  -2.123  25.288  0.00  0.00    +0.105 C 
ATOM     33  C   UNL     1      -0.154  -1.861  25.453  0.00  0.00    +0.159 C 
ATOM     34  O   UNL     1       0.229  -1.351  24.928  0.00  0.00    -0.351 OA
ATOM     35  C   UNL     1      -0.153  -1.103  24.241  0.00  0.00    +0.159 C 
ATOM     36  C   UNL     1      -0.918  -1.365  24.076  0.00  0.00    +0.105 C 
ENDBRANCH  30  31
ENDBRANCH  29  30
ENDBRANCH  28  29
ENDBRANCH   2  26
ENDBRANCH   3   2
TORSDOF 8
ENDMDL
MODEL 9
REMARK VINA RESULT:     -10.5      1.672      5.325
REMARK  Name = 
REMARK  8 active torsions:
REMARK  status: ('A' for Active; 'I' for Inactive)
REMARK    1  A    between atoms: C_2  and  C_3
REMARK    2  A    between atoms: C_2  and  C_26
REMARK    3  A    between atoms: C_10  and  N_11
REMARK    4  A    between atoms: C_12  and  C_14
REMARK    5  A    between atoms: C_14  and  C_15
REMARK    6  A    between atoms: N_28  and  C_29
REMARK    7  A    between atoms: C_29  and  C_30
REMARK    8  A    between atoms: C_30  and  N_31
REMARK                            x       y       z     vdW  Elec       q    Type
REMARK                         _______ _______ _______ _____ _____    ______ ____
ROOT
ATOM      3  C   UNL     1      -0.252   0.727  24.185  0.00  0.00    +0.039 C 
ATOM      4  C   UNL     1       0.284   1.138  24.661  0.00  0.00    +0.003 C 
ATOM      5  C   UNL     1       0.081   1.877  24.966  0.00  0.00    +0.000 C 
ATOM      6  C   UNL     1      -0.656   2.205  24.796  0.00  0.00    +0.002 C 
ATOM      7  C   UNL     1      -0.121   2.615  25.271  0.00  0.00    +0.000 C 
ATOM      8  C   UNL     1      -0.859   2.944  25.101  0.00  0.00    +0.002 C 
ATOM      9  C   UNL     1      -1.597   3.273  24.932  0.00  0.00    +0.022 C 
ATOM     10  C   UNL     1      -2.132   2.862  24.456  0.00  0.00    +0.095 C 
ATOM     21  C   UNL     1      -1.929   2.123  24.151  0.00  0.00    +0.022 C 
ATOM     22  C   UNL     1      -2.463   1.712  23.676  0.00  0.00    +0.002 C 
ATOM     23  C   UNL     1      -1.191   1.794  24.320  0.00  0.00    +0.032 C 
ATOM     24  C   UNL     1      -0.988   1.055  24.015  0.00  0.00    +0.152 C 
ATOM     25  O   UNL     1      -1.523   0.645  23.540  0.00  0.00    -0.223 OA
ENDROOT
BRANCH  10  11
ATOM     11  N   UNL     1      -2.869   3.190  24.286  0.00  0.00    -0.207 NA
ATOM     12  C   UNL     1      -3.374   3.409  24.900  0.00  0.00    +0.246 C 
ATOM     13  O   UNL     1      -3.142   3.300  25.685  0.00  0.00    -0.273 OA
BRANCH  12  14
ATOM     14  C   UNL     1      -4.112   3.738  24.731  0.00  0.00    +0.113 C 
BRANCH  14  15
ATOM     15  C   UNL     1      -4.798   3.383  25.019  0.00  0.00    -0.013 A 
ATOM     16  C   UNL     1      -5.154   3.671  25.706  0.00  0.00    -0.004 A 
ATOM     17  C   UNL     1      -5.841   3.316  25.994  0.00  0.00    -0.000 A 
ATOM     18  C   UNL     1      -6.171   2.674  25.597  0.00  0.00    -0.000 A 
ATOM     19  C   UNL     1      -5.815   2.386  24.909  0.00  0.00    -0.000 A 
ATOM     20  C   UNL     1      -5.129   2.741  24.621  0.00  0.00    -0.004 A 
ENDBRANCH  14  15
ENDBRANCH  12  14
ENDBRANCH  10  11
BRANCH   3   2
ATOM      1  C   UNL     1       0.331  -0.066  23.149  0.00  0.00    +0.010 C 
ATOM      2  C   UNL     1      -0.048  -0.012  23.880  0.00  0.00    +0.081 C 
BRANCH   2  26
ATOM     26  C   UNL     1      -0.223  -0.697  24.304  0.00  0.00    +0.241 C 
ATOM     27  O   UNL     1       0.250  -0.918  24.944  0.00  0.00    -0.273 OA
ATOM     28  N   UNL     1      -0.871  -1.162  24.091  0.00  0.00    -0.204 NA
BRANCH  28  29
ATOM     29  C   UNL     1      -1.046  -1.846  24.515  0.00  0.00    +0.132 C 
BRANCH  29  30
ATOM     30  C   UNL     1      -1.563  -2.407  24.201  0.00  0.00    +0.096 C 
BRANCH  30  31
ATOM     31  N   UNL     1      -2.329  -2.475  24.499  0.00  0.00    -0.267 NA
ATOM     32  C   UNL     1      -2.458  -2.460  25.314  0.00  0.00    +0.105 C 
ATOM     33  C   UNL     1      -3.223  -2.529  25.613  0.00  0.00    +0.159 C 
ATOM     34  O   UNL     1      -3.862  -2.612  25.096  0.00  0.00    -0.351 OA
ATOM     35  C   UNL     1      -3.734  -2.628  24.282  0.00  0.00    +0.159 C 
ATOM     36  C   UNL     1      -2.968  -2.559  23.983  0.00  0.00    +0.105 C 
ENDBRANCH  30  31
ENDBRANCH  29  30
ENDBRANCH  28  29
ENDBRANCH   2  26
ENDBRANCH   3   2
TORSDOF 8
ENDMDL
