REMARK  Name = 
REMARK  7 active torsions:
REMARK  status: ('A' for Active; 'I' for Inactive)
REMARK    1  A    between atoms: O_2  and  C_3
REMARK    2  A    between atoms: C_3  and  C_5
REMARK    3  A    between atoms: C_10  and  C_12
REMARK    4  A    between atoms: C_14  and  N_22
REMARK    5  A    between atoms: C_17  and  C_19
REMARK    6  A    between atoms: C_19  and  S_20
REMARK    7  A    between atoms: N_25  and  C_26
REMARK                            x       y       z     vdW  Elec       q    Type
REMARK                         _______ _______ _______ _____ _____    ______ ____
ROOT
ATOM     12  C   UNL     1      -6.241  -0.527   0.000  0.00  0.00    +0.154 C 
ATOM     13  C   UNL     1      -6.155  -1.347   0.000  0.00  0.00    +0.053 C 
ATOM     14  C   UNL     1      -6.909  -1.683   0.000  0.00  0.00    +0.119 C 
ATOM     15  C   UNL     1      -7.461  -1.070   0.000  0.00  0.00    +0.116 C 
ATOM     16  N   UNL     1      -7.048  -0.355   0.000  0.00  0.00    -0.270 N 
ATOM     17  C   UNL     1      -7.384   0.399   0.000  0.00  0.00    +0.237 C 
ATOM     18  O   UNL     1      -6.899   1.066   0.000  0.00  0.00    -0.274 OA
ENDROOT
BRANCH  12  10
ATOM      5  C   UNL     1      -4.176   0.255   0.000  0.00  0.00    +0.175 C 
ATOM      6  C   UNL     1      -3.509  -0.230   0.000  0.00  0.00    +0.033 C 
ATOM      7  C   UNL     1      -3.764  -1.014   0.000  0.00  0.00    +0.024 C 
ATOM      8  C   UNL     1      -4.589  -1.014   0.000  0.00  0.00    +0.094 C 
ATOM      9  N   UNL     1      -4.844  -0.230   0.000  0.00  0.00    -0.270 N 
ATOM     10  C   UNL     1      -5.628   0.025   0.000  0.00  0.00    +0.244 C 
ATOM     11  O   UNL     1      -5.800   0.832   0.000  0.00  0.00    -0.273 OA
BRANCH   5   3
ATOM      3  C   UNL     1      -4.176   1.080   0.000  0.00  0.00    +0.335 C 
ATOM      4  O   UNL     1      -4.891   1.493   0.000  0.00  0.00    -0.248 OA
BRANCH   3   2
ATOM      1  C   UNL     1      -3.462   2.318   0.000  0.00  0.00    +0.256 C 
ATOM      2  O   UNL     1      -3.462   1.493   0.000  0.00  0.00    -0.443 OA
ENDBRANCH   3   2
ENDBRANCH   5   3
ENDBRANCH  12  10
BRANCH  14  22
ATOM     22  N   UNL     1      -7.080  -2.490   0.000  0.00  0.00    -0.187 NA
ATOM     23  C   UNL     1      -7.865  -2.745   0.000  0.00  0.00    +0.344 C 
ATOM     24  O   UNL     1      -8.478  -2.193   0.000  0.00  0.00    -0.249 OA
ATOM     25  N   UNL     1      -8.036  -3.552   0.000  0.00  0.00    -0.159 NA
BRANCH  25  26
ATOM     26  C   UNL     1      -7.423  -4.104   0.000  0.00  0.00    +0.102 A 
ATOM     27  C   UNL     1      -6.639  -3.849   0.000  0.00  0.00    +0.158 A 
ATOM     28  F   UNL     1      -6.467  -3.042   0.000  0.00  0.00    -0.203 F 
ATOM     29  C   UNL     1      -6.026  -4.401   0.000  0.00  0.00    +0.061 A 
ATOM     30  C   UNL     1      -6.197  -5.208   0.000  0.00  0.00    +0.142 A 
ATOM     31  F   UNL     1      -5.584  -5.760   0.000  0.00  0.00    -0.204 F 
ATOM     32  C   UNL     1      -6.982  -5.463   0.000  0.00  0.00    +0.031 A 
ATOM     33  C   UNL     1      -7.595  -4.911   0.000  0.00  0.00    +0.021 A 
ENDBRANCH  25  26
ENDBRANCH  14  22
BRANCH  17  19
ATOM     19  C   UNL     1      -8.204   0.485   0.000  0.00  0.00    +0.143 C 
BRANCH  19  20
ATOM     20  S   UNL     1      -8.540   1.238   0.000  0.00  0.00    -0.130 S 
ATOM     21  C   UNL     1      -8.055   1.906   0.000  0.00  0.00    +0.070 C 
ENDBRANCH  19  20
ENDBRANCH  17  19
TORSDOF 7
