REMARK  Name = 
REMARK  5 active torsions:
REMARK  status: ('A' for Active; 'I' for Inactive)
REMARK    1  A    between atoms: O_2  and  C_3
REMARK    2  A    between atoms: C_7  and  N_11
REMARK    3  A    between atoms: N_11  and  S_12
REMARK    4  A    between atoms: S_12  and  C_15
REMARK    5  A    between atoms: C_20  and  C_21
REMARK                            x       y       z     vdW  Elec       q    Type
REMARK                         _______ _______ _______ _____ _____    ______ ____
ROOT
ATOM     11  N   UNL     1       3.094   1.197   0.000  0.00  0.00    -0.074 NA
ENDROOT
BRANCH  11   7
ATOM      3  C   UNL     1       1.270  -0.922   0.000  0.00  0.00    +0.174 C 
ATOM      4  C   UNL     1       0.785  -0.255   0.000  0.00  0.00    +0.174 C 
ATOM      5  O   UNL     1       1.270   0.412   0.000  0.00  0.00    -0.349 OA
ATOM      6  C   UNL     1       2.054   0.158   0.000  0.00  0.00    +0.165 C 
ATOM      7  C   UNL     1       2.839   0.412   0.000  0.00  0.00    +0.157 C 
ATOM      8  C   UNL     1       3.324  -0.255   0.000  0.00  0.00    +0.164 C 
ATOM      9  O   UNL     1       2.839  -0.922   0.000  0.00  0.00    -0.350 OA
ATOM     10  C   UNL     1       2.054  -0.667   0.000  0.00  0.00    +0.173 C 
BRANCH   3   2
ATOM      1  C   UNL     1       0.208  -1.879   0.000  0.00  0.00    +0.174 C 
ATOM      2  O   UNL     1       1.015  -1.707   0.000  0.00  0.00    -0.348 OA
ENDBRANCH   3   2
ENDBRANCH  11   7
BRANCH  11  12
ATOM     12  S   UNL     1       3.901   1.369   0.000  0.00  0.00    +0.078 S 
ATOM     13  O   UNL     1       4.072   0.562   0.000  0.00  0.00    -0.152 OA
ATOM     14  O   UNL     1       3.729   2.176   0.000  0.00  0.00    -0.152 OA
BRANCH  12  15
ATOM     15  C   UNL     1       4.708   1.540   0.000  0.00  0.00    +0.133 A 
ATOM     16  C   UNL     1       4.963   2.325   0.000  0.00  0.00    +0.021 A 
ATOM     17  C   UNL     1       5.770   2.496   0.000  0.00  0.00    +0.001 A 
ATOM     18  C   UNL     1       6.322   1.883   0.000  0.00  0.00    +0.001 A 
ATOM     19  C   UNL     1       6.067   1.099   0.000  0.00  0.00    +0.012 A 
ATOM     20  C   UNL     1       5.260   0.927   0.000  0.00  0.00    +0.087 A 
BRANCH  20  21
ATOM     21  C   UNL     1       5.005   0.142   0.000  0.00  0.00    +0.102 C 
ATOM     22  N   UNL     1       4.750  -0.642   0.000  0.00  0.00    -0.191 NA
ENDBRANCH  20  21
ENDBRANCH  12  15
ENDBRANCH  11  12
TORSDOF 5
