MODEL 1
REMARK VINA RESULT:      -8.3      0.000      0.000
REMARK  Name = 
REMARK  8 active torsions:
REMARK  status: ('A' for Active; 'I' for Inactive)
REMARK    1  A    between atoms: O_2  and  C_3
REMARK    2  A    between atoms: C_3  and  C_4
REMARK    3  A    between atoms: C_4  and  O_5
REMARK    4  A    between atoms: O_5  and  C_6
REMARK    5  A    between atoms: C_9  and  C_12
REMARK    6  A    between atoms: C_15  and  C_17
REMARK    7  A    between atoms: N_21  and  C_22
REMARK    8  A    between atoms: C_22  and  C_23
REMARK                            x       y       z     vdW  Elec       q    Type
REMARK                         _______ _______ _______ _____ _____    ______ ____
ROOT
ATOM     12  C   UNL     1      -1.217   0.174  24.541  0.00  0.00    +0.205 A 
ATOM     13  N   UNL     1      -1.267   0.116  25.362  0.00  0.00    -0.056 NA
ATOM     14  O   UNL     1      -2.060   0.200  25.576  0.00  0.00    -0.336 OA
ATOM     15  C   UNL     1      -2.500   0.309  24.887  0.00  0.00    +0.251 A 
ATOM     16  N   UNL     1      -1.979   0.293  24.247  0.00  0.00    -0.190 NA
ENDROOT
BRANCH  12   9
ATOM      6  C   UNL     1       0.855   0.017  23.196  0.00  0.00    +0.225 A 
ATOM      7  C   UNL     1       0.486   0.746  23.301  0.00  0.00    +0.058 A 
ATOM      8  C   UNL     1      -0.205   0.799  23.749  0.00  0.00    +0.010 A 
ATOM      9  C   UNL     1      -0.526   0.121  24.093  0.00  0.00    +0.058 A 
ATOM     10  C   UNL     1      -0.157  -0.610  23.987  0.00  0.00    +0.105 A 
ATOM     11  N   UNL     1       0.534  -0.662  23.539  0.00  0.00    -0.210 NA
BRANCH   6   5
ATOM      5  O   UNL     1       1.545  -0.036  22.747  0.00  0.00    -0.457 OA
BRANCH   5   4
ATOM      4  C   UNL     1       2.222   0.374  22.982  0.00  0.00    +0.239 C 
BRANCH   4   3
ATOM      3  C   UNL     1       2.938   0.246  22.593  0.00  0.00    +0.189 C 
BRANCH   3   2
ATOM      1  C   UNL     1       4.328   0.515  22.788  0.00  0.00    +0.174 C 
ATOM      2  O   UNL     1       3.556   0.786  22.678  0.00  0.00    -0.347 OA
ENDBRANCH   3   2
ENDBRANCH   4   3
ENDBRANCH   5   4
ENDBRANCH   6   5
ENDBRANCH  12   9
BRANCH  15  17
ATOM     17  C   UNL     1      -3.316   0.415  24.844  0.00  0.00    +0.138 C 
ATOM     18  C   UNL     1      -3.878  -0.181  24.752  0.00  0.00    +0.027 C 
ATOM     19  C   UNL     1      -4.624   0.172  24.737  0.00  0.00    +0.019 C 
ATOM     20  C   UNL     1      -4.522   0.986  24.819  0.00  0.00    +0.073 C 
ATOM     21  N   UNL     1      -3.715   1.136  24.885  0.00  0.00    -0.262 NA
BRANCH  21  22
ATOM     22  C   UNL     1      -3.366   1.878  24.976  0.00  0.00    +0.106 C 
BRANCH  22  23
ATOM     23  C   UNL     1      -3.817   2.561  24.878  0.00  0.00    +0.023 A 
ATOM     24  C   UNL     1      -3.969   2.944  24.163  0.00  0.00    +0.004 A 
ATOM     25  C   UNL     1      -4.442   3.601  24.320  0.00  0.00    +0.007 A 
ATOM     26  C   UNL     1      -4.583   3.625  25.133  0.00  0.00    +0.035 A 
ATOM     27  S   UNL     1      -4.197   2.982  25.477  0.00  0.00    -0.089 S 
ENDBRANCH  22  23
ENDBRANCH  21  22
ENDBRANCH  15  17
TORSDOF 8
ENDMDL
MODEL 2
REMARK VINA RESULT:      -7.5      3.551      4.691
REMARK  Name = 
REMARK  8 active torsions:
REMARK  status: ('A' for Active; 'I' for Inactive)
REMARK    1  A    between atoms: O_2  and  C_3
REMARK    2  A    between atoms: C_3  and  C_4
REMARK    3  A    between atoms: C_4  and  O_5
REMARK    4  A    between atoms: O_5  and  C_6
REMARK    5  A    between atoms: C_9  and  C_12
REMARK    6  A    between atoms: C_15  and  C_17
REMARK    7  A    between atoms: N_21  and  C_22
REMARK    8  A    between atoms: C_22  and  C_23
REMARK                            x       y       z     vdW  Elec       q    Type
REMARK                         _______ _______ _______ _____ _____    ______ ____
ROOT
ATOM     12  C   UNL     1      -4.196   1.836  24.622  0.00  0.00    +0.205 A 
ATOM     13  N   UNL     1      -4.625   2.405  24.208  0.00  0.00    -0.056 NA
ATOM     14  O   UNL     1      -4.460   3.142  24.541  0.00  0.00    -0.336 OA
ATOM     15  C   UNL     1      -3.929   3.028  25.161  0.00  0.00    +0.251 A 
ATOM     16  N   UNL     1      -3.765   2.221  25.212  0.00  0.00    -0.190 NA
ENDROOT
BRANCH  12   9
ATOM      6  C   UNL     1      -4.197  -0.599  24.177  0.00  0.00    +0.225 A 
ATOM      7  C   UNL     1      -4.685  -0.287  24.764  0.00  0.00    +0.058 A 
ATOM      8  C   UNL     1      -4.685   0.525  24.912  0.00  0.00    +0.010 A 
ATOM      9  C   UNL     1      -4.196   1.024  24.474  0.00  0.00    +0.058 A 
ATOM     10  C   UNL     1      -3.708   0.711  23.886  0.00  0.00    +0.105 A 
ATOM     11  N   UNL     1      -3.708  -0.100  23.738  0.00  0.00    -0.210 NA
BRANCH   6   5
ATOM      5  O   UNL     1      -4.198  -1.410  24.029  0.00  0.00    -0.457 OA
BRANCH   5   4
ATOM      4  C   UNL     1      -3.594  -1.886  24.331  0.00  0.00    +0.239 C 
BRANCH   4   3
ATOM      3  C   UNL     1      -3.591  -2.696  24.177  0.00  0.00    +0.189 C 
BRANCH   3   2
ATOM      1  C   UNL     1      -2.266  -3.167  24.429  0.00  0.00    +0.174 C 
ATOM      2  O   UNL     1      -3.075  -3.192  24.588  0.00  0.00    -0.347 OA
ENDBRANCH   3   2
ENDBRANCH   4   3
ENDBRANCH   5   4
ENDBRANCH   6   5
ENDBRANCH  12   9
BRANCH  15  17
ATOM     17  C   UNL     1      -3.616   3.617  25.646  0.00  0.00    +0.138 C 
ATOM     18  C   UNL     1      -3.951   3.898  26.344  0.00  0.00    +0.027 C 
ATOM     19  C   UNL     1      -3.455   4.484  26.647  0.00  0.00    +0.019 C 
ATOM     20  C   UNL     1      -2.813   4.565  26.135  0.00  0.00    +0.073 C 
ATOM     21  N   UNL     1      -2.912   4.029  25.517  0.00  0.00    -0.262 NA
BRANCH  21  22
ATOM     22  C   UNL     1      -2.399   3.924  24.880  0.00  0.00    +0.106 C 
BRANCH  22  23
ATOM     23  C   UNL     1      -1.643   4.252  24.901  0.00  0.00    +0.023 A 
ATOM     24  C   UNL     1      -1.459   5.052  24.818  0.00  0.00    +0.004 A 
ATOM     25  C   UNL     1      -0.640   5.134  24.874  0.00  0.00    +0.007 A 
ATOM     26  C   UNL     1      -0.317   4.383  24.993  0.00  0.00    +0.035 A 
ATOM     27  S   UNL     1      -0.937   3.839  25.009  0.00  0.00    -0.089 S 
ENDBRANCH  22  23
ENDBRANCH  21  22
ENDBRANCH  15  17
TORSDOF 8
ENDMDL
MODEL 3
REMARK VINA RESULT:      -7.5      2.469      3.768
REMARK  Name = 
REMARK  8 active torsions:
REMARK  status: ('A' for Active; 'I' for Inactive)
REMARK    1  A    between atoms: O_2  and  C_3
REMARK    2  A    between atoms: C_3  and  C_4
REMARK    3  A    between atoms: C_4  and  O_5
REMARK    4  A    between atoms: O_5  and  C_6
REMARK    5  A    between atoms: C_9  and  C_12
REMARK    6  A    between atoms: C_15  and  C_17
REMARK    7  A    between atoms: N_21  and  C_22
REMARK    8  A    between atoms: C_22  and  C_23
REMARK                            x       y       z     vdW  Elec       q    Type
REMARK                         _______ _______ _______ _____ _____    ______ ____
ROOT
ATOM     12  C   UNL     1      -0.695   1.616  25.417  0.00  0.00    +0.205 A 
ATOM     13  N   UNL     1      -0.127   1.936  25.923  0.00  0.00    -0.056 NA
ATOM     14  O   UNL     1      -0.240   2.753  25.949  0.00  0.00    -0.336 OA
ATOM     15  C   UNL     1      -0.877   2.939  25.459  0.00  0.00    +0.251 A 
ATOM     16  N   UNL     1      -1.158   2.236  25.130  0.00  0.00    -0.190 NA
ENDROOT
BRANCH  12   9
ATOM      6  C   UNL     1      -0.961  -0.780  24.858  0.00  0.00    +0.225 A 
ATOM      7  C   UNL     1      -1.147  -0.510  25.614  0.00  0.00    +0.058 A 
ATOM      8  C   UNL     1      -1.059   0.289  25.800  0.00  0.00    +0.010 A 
ATOM      9  C   UNL     1      -0.783   0.818  25.231  0.00  0.00    +0.058 A 
ATOM     10  C   UNL     1      -0.597   0.547  24.473  0.00  0.00    +0.105 A 
ATOM     11  N   UNL     1      -0.686  -0.251  24.287  0.00  0.00    -0.210 NA
BRANCH   6   5
ATOM      5  O   UNL     1      -1.050  -1.578  24.671  0.00  0.00    -0.457 OA
BRANCH   5   4
ATOM      4  C   UNL     1      -1.767  -1.960  24.821  0.00  0.00    +0.239 C 
BRANCH   4   3
ATOM      3  C   UNL     1      -2.035  -2.549  24.309  0.00  0.00    +0.189 C 
BRANCH   3   2
ATOM      1  C   UNL     1      -3.412  -2.916  24.208  0.00  0.00    +0.174 C 
ATOM      2  O   UNL     1      -2.663  -3.035  24.533  0.00  0.00    -0.347 OA
ENDBRANCH   3   2
ENDBRANCH   4   3
ENDBRANCH   5   4
ENDBRANCH   6   5
ENDBRANCH  12   9
BRANCH  15  17
ATOM     17  C   UNL     1      -1.179   3.693  25.321  0.00  0.00    +0.138 C 
ATOM     18  C   UNL     1      -0.750   4.348  25.062  0.00  0.00    +0.027 C 
ATOM     19  C   UNL     1      -1.270   4.985  25.000  0.00  0.00    +0.019 C 
ATOM     20  C   UNL     1      -2.021   4.724  25.220  0.00  0.00    +0.073 C 
ATOM     21  N   UNL     1      -1.965   3.926  25.418  0.00  0.00    -0.262 NA
BRANCH  21  22
ATOM     22  C   UNL     1      -2.586   3.445  25.670  0.00  0.00    +0.106 C 
BRANCH  22  23
ATOM     23  C   UNL     1      -3.359   3.615  25.440  0.00  0.00    +0.023 A 
ATOM     24  C   UNL     1      -3.671   3.524  24.682  0.00  0.00    +0.004 A 
ATOM     25  C   UNL     1      -4.461   3.758  24.700  0.00  0.00    +0.007 A 
ATOM     26  C   UNL     1      -4.639   3.995  25.470  0.00  0.00    +0.035 A 
ATOM     27  S   UNL     1      -3.957   3.907  25.927  0.00  0.00    -0.089 S 
ENDBRANCH  22  23
ENDBRANCH  21  22
ENDBRANCH  15  17
TORSDOF 8
ENDMDL
MODEL 4
REMARK VINA RESULT:      -7.5      1.558      2.570
REMARK  Name = 
REMARK  8 active torsions:
REMARK  status: ('A' for Active; 'I' for Inactive)
REMARK    1  A    between atoms: O_2  and  C_3
REMARK    2  A    between atoms: C_3  and  C_4
REMARK    3  A    between atoms: C_4  and  O_5
REMARK    4  A    between atoms: O_5  and  C_6
REMARK    5  A    between atoms: C_9  and  C_12
REMARK    6  A    between atoms: C_15  and  C_17
REMARK    7  A    between atoms: N_21  and  C_22
REMARK    8  A    between atoms: C_22  and  C_23
REMARK                            x       y       z     vdW  Elec       q    Type
REMARK                         _______ _______ _______ _____ _____    ______ ____
ROOT
ATOM     12  C   UNL     1      -0.685   0.554  24.449  0.00  0.00    +0.205 A 
ATOM     13  N   UNL     1      -0.735   0.665  25.264  0.00  0.00    -0.056 NA
ATOM     14  O   UNL     1      -1.532   0.641  25.477  0.00  0.00    -0.336 OA
ATOM     15  C   UNL     1      -1.975   0.516  24.792  0.00  0.00    +0.251 A 
ATOM     16  N   UNL     1      -1.452   0.462  24.156  0.00  0.00    -0.190 NA
ENDROOT
BRANCH  12   9
ATOM      6  C   UNL     1       1.397   0.507  23.111  0.00  0.00    +0.225 A 
ATOM      7  C   UNL     1       0.913  -0.160  23.144  0.00  0.00    +0.058 A 
ATOM      8  C   UNL     1       0.219  -0.144  23.590  0.00  0.00    +0.010 A 
ATOM      9  C   UNL     1       0.009   0.539  24.003  0.00  0.00    +0.058 A 
ATOM     10  C   UNL     1       0.493   1.206  23.969  0.00  0.00    +0.105 A 
ATOM     11  N   UNL     1       1.187   1.190  23.523  0.00  0.00    -0.210 NA
BRANCH   6   5
ATOM      5  O   UNL     1       2.091   0.491  22.665  0.00  0.00    -0.457 OA
BRANCH   5   4
ATOM      4  C   UNL     1       2.824   0.557  23.039  0.00  0.00    +0.239 C 
BRANCH   4   3
ATOM      3  C   UNL     1       3.518   0.509  22.597  0.00  0.00    +0.189 C 
BRANCH   3   2
ATOM      1  C   UNL     1       4.851   0.353  23.088  0.00  0.00    +0.174 C 
ATOM      2  O   UNL     1       4.216   0.840  22.889  0.00  0.00    -0.347 OA
ENDBRANCH   3   2
ENDBRANCH   4   3
ENDBRANCH   5   4
ENDBRANCH   6   5
ENDBRANCH  12   9
BRANCH  15  17
ATOM     17  C   UNL     1      -2.797   0.455  24.750  0.00  0.00    +0.138 C 
ATOM     18  C   UNL     1      -3.328   1.085  24.732  0.00  0.00    +0.027 C 
ATOM     19  C   UNL     1      -4.091   0.773  24.689  0.00  0.00    +0.019 C 
ATOM     20  C   UNL     1      -4.030  -0.049  24.681  0.00  0.00    +0.073 C 
ATOM     21  N   UNL     1      -3.230  -0.246  24.719  0.00  0.00    -0.262 NA
BRANCH  21  22
ATOM     22  C   UNL     1      -2.919  -1.009  24.724  0.00  0.00    +0.106 C 
BRANCH  22  23
ATOM     23  C   UNL     1      -3.388  -1.648  24.497  0.00  0.00    +0.023 A 
ATOM     24  C   UNL     1      -3.869  -1.683  23.828  0.00  0.00    +0.004 A 
ATOM     25  C   UNL     1      -4.238  -2.421  23.816  0.00  0.00    +0.007 A 
ATOM     26  C   UNL     1      -3.984  -2.843  24.478  0.00  0.00    +0.035 A 
ATOM     27  S   UNL     1      -3.459  -2.365  24.898  0.00  0.00    -0.089 S 
ENDBRANCH  22  23
ENDBRANCH  21  22
ENDBRANCH  15  17
TORSDOF 8
ENDMDL
MODEL 5
REMARK VINA RESULT:      -7.3      1.360      2.070
REMARK  Name = 
REMARK  8 active torsions:
REMARK  status: ('A' for Active; 'I' for Inactive)
REMARK    1  A    between atoms: O_2  and  C_3
REMARK    2  A    between atoms: C_3  and  C_4
REMARK    3  A    between atoms: C_4  and  O_5
REMARK    4  A    between atoms: O_5  and  C_6
REMARK    5  A    between atoms: C_9  and  C_12
REMARK    6  A    between atoms: C_15  and  C_17
REMARK    7  A    between atoms: N_21  and  C_22
REMARK    8  A    between atoms: C_22  and  C_23
REMARK                            x       y       z     vdW  Elec       q    Type
REMARK                         _______ _______ _______ _____ _____    ______ ____
ROOT
ATOM     12  C   UNL     1      -1.311   1.950  24.780  0.00  0.00    +0.205 A 
ATOM     13  N   UNL     1      -1.382   2.075  25.592  0.00  0.00    -0.056 NA
ATOM     14  O   UNL     1      -2.025   2.578  25.717  0.00  0.00    -0.336 OA
ATOM     15  C   UNL     1      -2.350   2.764  24.982  0.00  0.00    +0.251 A 
ATOM     16  N   UNL     1      -1.909   2.375  24.403  0.00  0.00    -0.190 NA
ENDROOT
BRANCH  12   9
ATOM      6  C   UNL     1       0.397   0.544  23.670  0.00  0.00    +0.225 A 
ATOM      7  C   UNL     1      -0.359   0.244  23.805  0.00  0.00    +0.058 A 
ATOM      8  C   UNL     1      -0.928   0.713  24.175  0.00  0.00    +0.010 A 
ATOM      9  C   UNL     1      -0.741   1.481  24.410  0.00  0.00    +0.058 A 
ATOM     10  C   UNL     1       0.016   1.781  24.275  0.00  0.00    +0.105 A 
ATOM     11  N   UNL     1       0.585   1.312  23.905  0.00  0.00    -0.210 NA
BRANCH   6   5
ATOM      5  O   UNL     1       0.966   0.075  23.300  0.00  0.00    -0.457 OA
BRANCH   5   4
ATOM      4  C   UNL     1       1.634   0.425  22.963  0.00  0.00    +0.239 C 
BRANCH   4   3
ATOM      3  C   UNL     1       2.270  -0.043  22.726  0.00  0.00    +0.189 C 
BRANCH   3   2
ATOM      1  C   UNL     1       3.618   0.381  22.510  0.00  0.00    +0.174 C 
ATOM      2  O   UNL     1       2.850   0.270  22.229  0.00  0.00    -0.347 OA
ENDBRANCH   3   2
ENDBRANCH   4   3
ENDBRANCH   5   4
ENDBRANCH   6   5
ENDBRANCH  12   9
BRANCH  15  17
ATOM     17  C   UNL     1      -3.001   3.252  24.849  0.00  0.00    +0.138 C 
ATOM     18  C   UNL     1      -2.976   4.034  24.592  0.00  0.00    +0.027 C 
ATOM     19  C   UNL     1      -3.752   4.309  24.534  0.00  0.00    +0.019 C 
ATOM     20  C   UNL     1      -4.256   3.696  24.756  0.00  0.00    +0.073 C 
ATOM     21  N   UNL     1      -3.793   3.042  24.951  0.00  0.00    -0.262 NA
BRANCH  21  22
ATOM     22  C   UNL     1      -4.072   2.309  25.203  0.00  0.00    +0.106 C 
BRANCH  22  23
ATOM     23  C   UNL     1      -4.883   2.162  25.229  0.00  0.00    +0.023 A 
ATOM     24  C   UNL     1      -5.320   1.748  24.665  0.00  0.00    +0.004 A 
ATOM     25  C   UNL     1      -6.107   1.734  24.910  0.00  0.00    +0.007 A 
ATOM     26  C   UNL     1      -6.157   2.140  25.627  0.00  0.00    +0.035 A 
ATOM     27  S   UNL     1      -5.401   2.404  25.824  0.00  0.00    -0.089 S 
ENDBRANCH  22  23
ENDBRANCH  21  22
ENDBRANCH  15  17
TORSDOF 8
ENDMDL
MODEL 6
REMARK VINA RESULT:      -7.1      3.144      4.828
REMARK  Name = 
REMARK  8 active torsions:
REMARK  status: ('A' for Active; 'I' for Inactive)
REMARK    1  A    between atoms: O_2  and  C_3
REMARK    2  A    between atoms: C_3  and  C_4
REMARK    3  A    between atoms: C_4  and  O_5
REMARK    4  A    between atoms: O_5  and  C_6
REMARK    5  A    between atoms: C_9  and  C_12
REMARK    6  A    between atoms: C_15  and  C_17
REMARK    7  A    between atoms: N_21  and  C_22
REMARK    8  A    between atoms: C_22  and  C_23
REMARK                            x       y       z     vdW  Elec       q    Type
REMARK                         _______ _______ _______ _____ _____    ______ ____
ROOT
ATOM     12  C   UNL     1      -4.152   1.062  24.777  0.00  0.00    +0.205 A 
ATOM     13  N   UNL     1      -4.853   0.786  25.111  0.00  0.00    -0.056 NA
ATOM     14  O   UNL     1      -4.889  -0.030  24.992  0.00  0.00    -0.336 OA
ATOM     15  C   UNL     1      -4.209  -0.258  24.584  0.00  0.00    +0.251 A 
ATOM     16  N   UNL     1      -3.753   0.417  24.451  0.00  0.00    -0.190 NA
ENDROOT
BRANCH  12   9
ATOM      6  C   UNL     1      -3.376   3.412  24.756  0.00  0.00    +0.225 A 
ATOM      7  C   UNL     1      -3.503   3.014  24.045  0.00  0.00    +0.058 A 
ATOM      8  C   UNL     1      -3.761   2.230  24.053  0.00  0.00    +0.010 A 
ATOM      9  C   UNL     1      -3.893   1.845  24.770  0.00  0.00    +0.058 A 
ATOM     10  C   UNL     1      -3.766   2.245  25.482  0.00  0.00    +0.105 A 
ATOM     11  N   UNL     1      -3.508   3.028  25.474  0.00  0.00    -0.210 NA
BRANCH   6   5
ATOM      5  O   UNL     1      -3.118   4.196  24.749  0.00  0.00    -0.457 OA
BRANCH   5   4
ATOM      4  C   UNL     1      -2.387   4.392  25.078  0.00  0.00    +0.239 C 
BRANCH   4   3
ATOM      3  C   UNL     1      -2.039   5.121  24.906  0.00  0.00    +0.189 C 
BRANCH   3   2
ATOM      1  C   UNL     1      -0.629   5.291  24.755  0.00  0.00    +0.174 C 
ATOM      2  O   UNL     1      -1.304   5.312  25.228  0.00  0.00    -0.347 OA
ENDBRANCH   3   2
ENDBRANCH   4   3
ENDBRANCH   5   4
ENDBRANCH   6   5
ENDBRANCH  12   9
BRANCH  15  17
ATOM     17  C   UNL     1      -4.018  -1.026  24.350  0.00  0.00    +0.138 C 
ATOM     18  C   UNL     1      -4.463  -1.503  23.847  0.00  0.00    +0.027 C 
ATOM     19  C   UNL     1      -4.069  -2.223  23.764  0.00  0.00    +0.019 C 
ATOM     20  C   UNL     1      -3.380  -2.190  24.217  0.00  0.00    +0.073 C 
ATOM     21  N   UNL     1      -3.349  -1.451  24.580  0.00  0.00    -0.262 NA
BRANCH  21  22
ATOM     22  C   UNL     1      -2.753  -1.183  25.083  0.00  0.00    +0.106 C 
BRANCH  22  23
ATOM     23  C   UNL     1      -1.993  -1.496  25.026  0.00  0.00    +0.023 A 
ATOM     24  C   UNL     1      -1.763  -2.255  25.252  0.00  0.00    +0.004 A 
ATOM     25  C   UNL     1      -0.956  -2.334  25.099  0.00  0.00    +0.007 A 
ATOM     26  C   UNL     1      -0.687  -1.624  24.776  0.00  0.00    +0.035 A 
ATOM     27  S   UNL     1      -1.328  -1.106  24.731  0.00  0.00    -0.089 S 
ENDBRANCH  22  23
ENDBRANCH  21  22
ENDBRANCH  15  17
TORSDOF 8
ENDMDL
