MODEL 1
REMARK VINA RESULT:     -11.6      0.000      0.000
REMARK  Name = 
REMARK  8 active torsions:
REMARK  status: ('A' for Active; 'I' for Inactive)
REMARK    1  A    between atoms: C_2  and  C_3
REMARK    2  A    between atoms: C_3  and  C_4
REMARK    3  A    between atoms: C_4  and  C_5
REMARK    4  A    between atoms: C_12  and  N_15
REMARK    5  A    between atoms: N_15  and  C_16
REMARK    6  A    between atoms: C_16  and  C_17
REMARK    7  A    between atoms: N_23  and  C_24
REMARK    8  A    between atoms: C_24  and  C_25
REMARK                            x       y       z     vdW  Elec       q    Type
REMARK                         _______ _______ _______ _____ _____    ______ ____
ROOT
ATOM      5  C   UNL     1      -0.648   1.289  24.914  0.00  0.00    +0.080 C 
ATOM      6  C   UNL     1       0.107   1.457  24.626  0.00  0.00    +0.131 C 
ATOM      7  N   UNL     1       0.281   2.212  24.341  0.00  0.00    -0.203 NA
ATOM      8  C   UNL     1      -0.299   2.798  24.345  0.00  0.00    +0.256 C 
ATOM      9  O   UNL     1      -0.124   3.552  24.061  0.00  0.00    -0.272 OA
ATOM     10  C   UNL     1      -1.054   2.630  24.633  0.00  0.00    +0.138 C 
ATOM     11  C   UNL     1      -1.733   3.093  24.705  0.00  0.00    +0.044 C 
ATOM     12  C   UNL     1      -2.327   2.624  25.034  0.00  0.00    +0.091 C 
ATOM     13  C   UNL     1      -2.016   1.872  25.165  0.00  0.00    +0.090 C 
ATOM     14  N   UNL     1      -1.228   1.876  24.917  0.00  0.00    -0.265 NA
ENDROOT
BRANCH   5   4
ATOM      4  C   UNL     1      -0.822   0.534  25.198  0.00  0.00    +0.027 C 
BRANCH   4   3
ATOM      3  C   UNL     1      -0.649  -0.130  24.741  0.00  0.00    +0.088 C 
BRANCH   3   2
ATOM      1  O   UNL     1      -0.592  -1.383  25.426  0.00  0.00    -0.273 OA
ATOM      2  C   UNL     1      -0.987  -0.858  24.925  0.00  0.00    +0.242 C 
ATOM     23  N   UNL     1      -1.722  -1.064  24.611  0.00  0.00    -0.201 NA
BRANCH  23  24
ATOM     24  C   UNL     1      -2.061  -1.792  24.795  0.00  0.00    +0.141 C 
BRANCH  24  25
ATOM     25  C   UNL     1      -2.820  -1.975  24.527  0.00  0.00    -0.001 A 
ATOM     26  C   UNL     1      -3.333  -1.372  24.298  0.00  0.00    -0.003 A 
ATOM     27  C   UNL     1      -4.092  -1.555  24.029  0.00  0.00    -0.000 A 
ATOM     28  C   UNL     1      -4.336  -2.342  23.989  0.00  0.00    -0.000 A 
ATOM     29  C   UNL     1      -3.821  -2.946  24.218  0.00  0.00    -0.000 A 
ATOM     30  C   UNL     1      -3.064  -2.762  24.486  0.00  0.00    -0.003 A 
ENDBRANCH  24  25
ENDBRANCH  23  24
ENDBRANCH   3   2
ENDBRANCH   4   3
ENDBRANCH   5   4
BRANCH  12  15
ATOM     15  N   UNL     1      -3.097   2.866  25.202  0.00  0.00    -0.212 NA
BRANCH  15  16
ATOM     16  C   UNL     1      -3.715   2.661  24.695  0.00  0.00    +0.134 C 
BRANCH  16  17
ATOM     17  C   UNL     1      -4.493   2.656  24.972  0.00  0.00    +0.077 A 
ATOM     18  N   UNL     1      -4.788   3.306  25.383  0.00  0.00    -0.247 NA
ATOM     19  C   UNL     1      -5.565   3.301  25.660  0.00  0.00    +0.098 A 
ATOM     20  C   UNL     1      -6.047   2.644  25.525  0.00  0.00    +0.021 A 
ATOM     21  C   UNL     1      -5.751   1.994  25.114  0.00  0.00    +0.003 A 
ATOM     22  C   UNL     1      -4.973   1.999  24.837  0.00  0.00    +0.016 A 
ENDBRANCH  16  17
ENDBRANCH  15  16
ENDBRANCH  12  15
TORSDOF 8
ENDMDL
MODEL 2
REMARK VINA RESULT:     -11.4      1.932      3.934
REMARK  Name = 
REMARK  8 active torsions:
REMARK  status: ('A' for Active; 'I' for Inactive)
REMARK    1  A    between atoms: C_2  and  C_3
REMARK    2  A    between atoms: C_3  and  C_4
REMARK    3  A    between atoms: C_4  and  C_5
REMARK    4  A    between atoms: C_12  and  N_15
REMARK    5  A    between atoms: N_15  and  C_16
REMARK    6  A    between atoms: C_16  and  C_17
REMARK    7  A    between atoms: N_23  and  C_24
REMARK    8  A    between atoms: C_24  and  C_25
REMARK                            x       y       z     vdW  Elec       q    Type
REMARK                         _______ _______ _______ _____ _____    ______ ____
ROOT
ATOM      5  C   UNL     1      -4.957   1.462  24.984  0.00  0.00    +0.080 C 
ATOM      6  C   UNL     1      -5.714   1.349  25.293  0.00  0.00    +0.131 C 
ATOM      7  N   UNL     1      -6.111   1.977  25.652  0.00  0.00    -0.203 NA
ATOM      8  C   UNL     1      -5.751   2.718  25.702  0.00  0.00    +0.256 C 
ATOM      9  O   UNL     1      -6.148   3.345  26.061  0.00  0.00    -0.272 OA
ATOM     10  C   UNL     1      -4.994   2.831  25.393  0.00  0.00    +0.138 C 
ATOM     11  C   UNL     1      -4.504   3.494  25.361  0.00  0.00    +0.044 C 
ATOM     12  C   UNL     1      -3.804   3.275  24.982  0.00  0.00    +0.091 C 
ATOM     13  C   UNL     1      -3.862   2.478  24.780  0.00  0.00    +0.090 C 
ATOM     14  N   UNL     1      -4.598   2.203  25.034  0.00  0.00    -0.265 NA
ENDROOT
BRANCH   5   4
ATOM      4  C   UNL     1      -4.561   0.834  24.624  0.00  0.00    +0.027 C 
BRANCH   4   3
ATOM      3  C   UNL     1      -4.537   0.096  24.992  0.00  0.00    +0.088 C 
BRANCH   3   2
ATOM      1  O   UNL     1      -4.447  -0.943  24.016  0.00  0.00    -0.273 OA
ATOM      2  C   UNL     1      -4.118  -0.524  24.647  0.00  0.00    +0.242 C 
ATOM     23  N   UNL     1      -3.370  -0.725  24.930  0.00  0.00    -0.201 NA
BRANCH  23  24
ATOM     24  C   UNL     1      -2.950  -1.345  24.584  0.00  0.00    +0.141 C 
BRANCH  24  25
ATOM     25  C   UNL     1      -2.170  -1.491  24.807  0.00  0.00    -0.001 A 
ATOM     26  C   UNL     1      -1.814  -2.211  24.620  0.00  0.00    -0.003 A 
ATOM     27  C   UNL     1      -1.033  -2.357  24.843  0.00  0.00    -0.000 A 
ATOM     28  C   UNL     1      -0.608  -1.782  25.254  0.00  0.00    -0.000 A 
ATOM     29  C   UNL     1      -0.964  -1.061  25.442  0.00  0.00    -0.000 A 
ATOM     30  C   UNL     1      -1.744  -0.916  25.219  0.00  0.00    -0.003 A 
ENDBRANCH  24  25
ENDBRANCH  23  24
ENDBRANCH   3   2
ENDBRANCH   4   3
ENDBRANCH   5   4
BRANCH  12  15
ATOM     15  N   UNL     1      -3.160   3.768  24.833  0.00  0.00    -0.212 NA
BRANCH  15  16
ATOM     16  C   UNL     1      -2.540   3.814  25.375  0.00  0.00    +0.134 C 
BRANCH  16  17
ATOM     17  C   UNL     1      -1.841   4.204  25.171  0.00  0.00    +0.077 A 
ATOM     18  N   UNL     1      -1.178   3.769  24.946  0.00  0.00    -0.247 NA
ATOM     19  C   UNL     1      -0.480   4.158  24.743  0.00  0.00    +0.098 A 
ATOM     20  C   UNL     1      -0.445   4.983  24.765  0.00  0.00    +0.021 A 
ATOM     21  C   UNL     1      -1.109   5.417  24.990  0.00  0.00    +0.003 A 
ATOM     22  C   UNL     1      -1.808   5.028  25.193  0.00  0.00    +0.016 A 
ENDBRANCH  16  17
ENDBRANCH  15  16
ENDBRANCH  12  15
TORSDOF 8
ENDMDL
MODEL 3
REMARK VINA RESULT:     -11.3      1.029      4.081
REMARK  Name = 
REMARK  8 active torsions:
REMARK  status: ('A' for Active; 'I' for Inactive)
REMARK    1  A    between atoms: C_2  and  C_3
REMARK    2  A    between atoms: C_3  and  C_4
REMARK    3  A    between atoms: C_4  and  C_5
REMARK    4  A    between atoms: C_12  and  N_15
REMARK    5  A    between atoms: N_15  and  C_16
REMARK    6  A    between atoms: C_16  and  C_17
REMARK    7  A    between atoms: N_23  and  C_24
REMARK    8  A    between atoms: C_24  and  C_25
REMARK                            x       y       z     vdW  Elec       q    Type
REMARK                         _______ _______ _______ _____ _____    ______ ____
ROOT
ATOM      5  C   UNL     1      -0.955   2.282  25.095  0.00  0.00    +0.080 C 
ATOM      6  C   UNL     1      -0.287   2.724  24.896  0.00  0.00    +0.131 C 
ATOM      7  N   UNL     1       0.333   2.372  24.480  0.00  0.00    -0.203 NA
ATOM      8  C   UNL     1       0.283   1.578  24.261  0.00  0.00    +0.256 C 
ATOM      9  O   UNL     1       0.903   1.227  23.845  0.00  0.00    -0.272 OA
ATOM     10  C   UNL     1      -0.384   1.136  24.460  0.00  0.00    +0.138 C 
ATOM     11  C   UNL     1      -0.586   0.349  24.320  0.00  0.00    +0.044 C 
ATOM     12  C   UNL     1      -1.331   0.214  24.650  0.00  0.00    +0.091 C 
ATOM     13  C   UNL     1      -1.588   0.918  24.994  0.00  0.00    +0.090 C 
ATOM     14  N   UNL     1      -1.003   1.488  24.876  0.00  0.00    -0.265 NA
ENDROOT
BRANCH   5   4
ATOM      4  C   UNL     1      -1.573   2.635  25.511  0.00  0.00    +0.027 C 
BRANCH   4   3
ATOM      3  C   UNL     1      -1.899   3.344  25.246  0.00  0.00    +0.088 C 
BRANCH   3   2
ATOM      1  O   UNL     1      -2.701   4.178  26.084  0.00  0.00    -0.273 OA
ATOM      2  C   UNL     1      -2.641   3.584  25.514  0.00  0.00    +0.242 C 
ATOM     23  N   UNL     1      -3.323   3.230  25.213  0.00  0.00    -0.201 NA
BRANCH  23  24
ATOM     24  C   UNL     1      -4.065   3.470  25.482  0.00  0.00    +0.141 C 
BRANCH  24  25
ATOM     25  C   UNL     1      -4.719   2.977  25.382  0.00  0.00    -0.001 A 
ATOM     26  C   UNL     1      -4.834   2.581  24.668  0.00  0.00    -0.003 A 
ATOM     27  C   UNL     1      -5.488   2.089  24.569  0.00  0.00    -0.000 A 
ATOM     28  C   UNL     1      -6.029   1.993  25.184  0.00  0.00    -0.000 A 
ATOM     29  C   UNL     1      -5.915   2.389  25.900  0.00  0.00    -0.000 A 
ATOM     30  C   UNL     1      -5.260   2.881  25.998  0.00  0.00    -0.003 A 
ENDBRANCH  24  25
ENDBRANCH  23  24
ENDBRANCH   3   2
ENDBRANCH   4   3
ENDBRANCH   5   4
BRANCH  12  15
ATOM     15  N   UNL     1      -1.744  -0.500  24.638  0.00  0.00    -0.212 NA
BRANCH  15  16
ATOM     16  C   UNL     1      -2.549  -0.514  24.818  0.00  0.00    +0.134 C 
BRANCH  16  17
ATOM     17  C   UNL     1      -3.000  -1.181  24.636  0.00  0.00    +0.077 A 
ATOM     18  N   UNL     1      -2.768  -1.923  24.909  0.00  0.00    -0.247 NA
ATOM     19  C   UNL     1      -3.219  -2.590  24.728  0.00  0.00    +0.098 A 
ATOM     20  C   UNL     1      -3.904  -2.513  24.273  0.00  0.00    +0.021 A 
ATOM     21  C   UNL     1      -4.136  -1.771  24.000  0.00  0.00    +0.003 A 
ATOM     22  C   UNL     1      -3.684  -1.104  24.182  0.00  0.00    +0.016 A 
ENDBRANCH  16  17
ENDBRANCH  15  16
ENDBRANCH  12  15
TORSDOF 8
ENDMDL
MODEL 4
REMARK VINA RESULT:     -11.3      1.859      5.159
REMARK  Name = 
REMARK  8 active torsions:
REMARK  status: ('A' for Active; 'I' for Inactive)
REMARK    1  A    between atoms: C_2  and  C_3
REMARK    2  A    between atoms: C_3  and  C_4
REMARK    3  A    between atoms: C_4  and  C_5
REMARK    4  A    between atoms: C_12  and  N_15
REMARK    5  A    between atoms: N_15  and  C_16
REMARK    6  A    between atoms: C_16  and  C_17
REMARK    7  A    between atoms: N_23  and  C_24
REMARK    8  A    between atoms: C_24  and  C_25
REMARK                            x       y       z     vdW  Elec       q    Type
REMARK                         _______ _______ _______ _____ _____    ______ ____
ROOT
ATOM      5  C   UNL     1      -4.590   2.995  25.249  0.00  0.00    +0.080 C 
ATOM      6  C   UNL     1      -5.108   3.471  25.679  0.00  0.00    +0.131 C 
ATOM      7  N   UNL     1      -5.787   3.144  26.017  0.00  0.00    -0.203 NA
ATOM      8  C   UNL     1      -5.946   2.340  25.924  0.00  0.00    +0.256 C 
ATOM      9  O   UNL     1      -6.624   2.013  26.261  0.00  0.00    -0.272 OA
ATOM     10  C   UNL     1      -5.428   1.863  25.494  0.00  0.00    +0.138 C 
ATOM     11  C   UNL     1      -5.441   1.059  25.311  0.00  0.00    +0.044 C 
ATOM     12  C   UNL     1      -4.770   0.889  24.860  0.00  0.00    +0.091 C 
ATOM     13  C   UNL     1      -4.344   1.588  24.765  0.00  0.00    +0.090 C 
ATOM     14  N   UNL     1      -4.751   2.190  25.157  0.00  0.00    -0.265 NA
ENDROOT
BRANCH   5   4
ATOM      4  C   UNL     1      -3.912   3.323  24.912  0.00  0.00    +0.027 C 
BRANCH   4   3
ATOM      3  C   UNL     1      -3.461   3.866  25.337  0.00  0.00    +0.088 C 
BRANCH   3   2
ATOM      1  O   UNL     1      -2.554   4.706  24.621  0.00  0.00    -0.273 OA
ATOM      2  C   UNL     1      -2.694   4.044  25.095  0.00  0.00    +0.242 C 
ATOM     23  N   UNL     1      -2.065   3.562  25.327  0.00  0.00    -0.201 NA
BRANCH  23  24
ATOM     24  C   UNL     1      -1.298   3.740  25.084  0.00  0.00    +0.141 C 
BRANCH  24  25
ATOM     25  C   UNL     1      -0.701   3.174  25.150  0.00  0.00    -0.001 A 
ATOM     26  C   UNL     1      -0.386   2.825  24.473  0.00  0.00    -0.003 A 
ATOM     27  C   UNL     1       0.210   2.258  24.538  0.00  0.00    -0.000 A 
ATOM     28  C   UNL     1       0.490   2.040  25.283  0.00  0.00    -0.000 A 
ATOM     29  C   UNL     1       0.175   2.389  25.962  0.00  0.00    -0.000 A 
ATOM     30  C   UNL     1      -0.421   2.955  25.895  0.00  0.00    -0.003 A 
ENDBRANCH  24  25
ENDBRANCH  23  24
ENDBRANCH   3   2
ENDBRANCH   4   3
ENDBRANCH   5   4
BRANCH  12  15
ATOM     15  N   UNL     1      -4.564   0.150  24.559  0.00  0.00    -0.212 NA
BRANCH  15  16
ATOM     16  C   UNL     1      -4.030  -0.328  24.967  0.00  0.00    +0.134 C 
BRANCH  16  17
ATOM     17  C   UNL     1      -3.918  -1.113  24.736  0.00  0.00    +0.077 A 
ATOM     18  N   UNL     1      -4.267  -1.393  24.043  0.00  0.00    -0.247 NA
ATOM     19  C   UNL     1      -4.155  -2.176  23.812  0.00  0.00    +0.098 A 
ATOM     20  C   UNL     1      -3.693  -2.681  24.275  0.00  0.00    +0.021 A 
ATOM     21  C   UNL     1      -3.344  -2.401  24.967  0.00  0.00    +0.003 A 
ATOM     22  C   UNL     1      -3.456  -1.617  25.198  0.00  0.00    +0.016 A 
ENDBRANCH  16  17
ENDBRANCH  15  16
ENDBRANCH  12  15
TORSDOF 8
ENDMDL
MODEL 5
REMARK VINA RESULT:     -11.0      1.628      3.903
REMARK  Name = 
REMARK  8 active torsions:
REMARK  status: ('A' for Active; 'I' for Inactive)
REMARK    1  A    between atoms: C_2  and  C_3
REMARK    2  A    between atoms: C_3  and  C_4
REMARK    3  A    between atoms: C_4  and  C_5
REMARK    4  A    between atoms: C_12  and  N_15
REMARK    5  A    between atoms: N_15  and  C_16
REMARK    6  A    between atoms: C_16  and  C_17
REMARK    7  A    between atoms: N_23  and  C_24
REMARK    8  A    between atoms: C_24  and  C_25
REMARK                            x       y       z     vdW  Elec       q    Type
REMARK                         _______ _______ _______ _____ _____    ______ ____
ROOT
ATOM      5  C   UNL     1      -3.097   3.260  24.772  0.00  0.00    +0.080 C 
ATOM      6  C   UNL     1      -3.341   3.964  25.127  0.00  0.00    +0.131 C 
ATOM      7  N   UNL     1      -2.780   4.521  25.367  0.00  0.00    -0.203 NA
ATOM      8  C   UNL     1      -1.977   4.373  25.251  0.00  0.00    +0.256 C 
ATOM      9  O   UNL     1      -1.417   4.929  25.491  0.00  0.00    -0.272 OA
ATOM     10  C   UNL     1      -1.734   3.669  24.896  0.00  0.00    +0.138 C 
ATOM     11  C   UNL     1      -0.986   3.373  24.713  0.00  0.00    +0.044 C 
ATOM     12  C   UNL     1      -1.084   2.633  24.359  0.00  0.00    +0.091 C 
ATOM     13  C   UNL     1      -1.892   2.472  24.325  0.00  0.00    +0.090 C 
ATOM     14  N   UNL     1      -2.293   3.113  24.657  0.00  0.00    -0.265 NA
ENDROOT
BRANCH   5   4
ATOM      4  C   UNL     1      -3.658   2.704  24.533  0.00  0.00    +0.027 C 
BRANCH   4   3
ATOM      3  C   UNL     1      -4.180   2.381  25.083  0.00  0.00    +0.088 C 
BRANCH   3   2
ATOM      1  O   UNL     1      -5.365   1.727  24.623  0.00  0.00    -0.273 OA
ATOM      2  C   UNL     1      -4.589   1.687  24.905  0.00  0.00    +0.242 C 
ATOM     23  N   UNL     1      -4.225   0.954  25.009  0.00  0.00    -0.201 NA
BRANCH  23  24
ATOM     24  C   UNL     1      -4.634   0.261  24.831  0.00  0.00    +0.141 C 
BRANCH  24  25
ATOM     25  C   UNL     1      -4.239  -0.463  24.827  0.00  0.00    -0.001 A 
ATOM     26  C   UNL     1      -4.217  -0.918  24.140  0.00  0.00    -0.003 A 
ATOM     27  C   UNL     1      -3.821  -1.642  24.136  0.00  0.00    -0.000 A 
ATOM     28  C   UNL     1      -3.448  -1.911  24.821  0.00  0.00    -0.000 A 
ATOM     29  C   UNL     1      -3.470  -1.456  25.509  0.00  0.00    -0.000 A 
ATOM     30  C   UNL     1      -3.865  -0.732  25.512  0.00  0.00    -0.003 A 
ENDBRANCH  24  25
ENDBRANCH  23  24
ENDBRANCH   3   2
ENDBRANCH   4   3
ENDBRANCH   5   4
BRANCH  12  15
ATOM     15  N   UNL     1      -0.479   2.142  24.088  0.00  0.00    -0.212 NA
BRANCH  15  16
ATOM     16  C   UNL     1      -0.301   1.445  24.492  0.00  0.00    +0.134 C 
BRANCH  16  17
ATOM     17  C   UNL     1       0.011   0.799  24.083  0.00  0.00    +0.077 A 
ATOM     18  N   UNL     1       0.630   0.910  23.549  0.00  0.00    -0.247 NA
ATOM     19  C   UNL     1       0.943   0.265  23.141  0.00  0.00    +0.098 A 
ATOM     20  C   UNL     1       0.635  -0.491  23.266  0.00  0.00    +0.021 A 
ATOM     21  C   UNL     1       0.017  -0.601  23.799  0.00  0.00    +0.003 A 
ATOM     22  C   UNL     1      -0.296   0.044  24.208  0.00  0.00    +0.016 A 
ENDBRANCH  16  17
ENDBRANCH  15  16
ENDBRANCH  12  15
TORSDOF 8
ENDMDL
MODEL 6
REMARK VINA RESULT:     -10.9      1.354      4.178
REMARK  Name = 
REMARK  8 active torsions:
REMARK  status: ('A' for Active; 'I' for Inactive)
REMARK    1  A    between atoms: C_2  and  C_3
REMARK    2  A    between atoms: C_3  and  C_4
REMARK    3  A    between atoms: C_4  and  C_5
REMARK    4  A    between atoms: C_12  and  N_15
REMARK    5  A    between atoms: N_15  and  C_16
REMARK    6  A    between atoms: C_16  and  C_17
REMARK    7  A    between atoms: N_23  and  C_24
REMARK    8  A    between atoms: C_24  and  C_25
REMARK                            x       y       z     vdW  Elec       q    Type
REMARK                         _______ _______ _______ _____ _____    ______ ____
ROOT
ATOM      5  C   UNL     1      -1.135  -0.158  25.106  0.00  0.00    +0.080 C 
ATOM      6  C   UNL     1      -0.629  -0.772  24.887  0.00  0.00    +0.131 C 
ATOM      7  N   UNL     1      -0.941  -1.491  24.628  0.00  0.00    -0.203 NA
ATOM      8  C   UNL     1      -1.758  -1.596  24.590  0.00  0.00    +0.256 C 
ATOM      9  O   UNL     1      -2.069  -2.315  24.332  0.00  0.00    -0.272 OA
ATOM     10  C   UNL     1      -2.264  -0.983  24.810  0.00  0.00    +0.138 C 
ATOM     11  C   UNL     1      -3.087  -0.926  24.829  0.00  0.00    +0.044 C 
ATOM     12  C   UNL     1      -3.283  -0.171  25.100  0.00  0.00    +0.091 C 
ATOM     13  C   UNL     1      -2.583   0.238  25.247  0.00  0.00    +0.090 C 
ATOM     14  N   UNL     1      -1.952  -0.264  25.067  0.00  0.00    -0.265 NA
ENDROOT
BRANCH   5   4
ATOM      4  C   UNL     1      -0.823   0.561  25.364  0.00  0.00    +0.027 C 
BRANCH   4   3
ATOM      3  C   UNL     1      -0.425   1.052  24.835  0.00  0.00    +0.088 C 
BRANCH   3   2
ATOM      1  O   UNL     1       0.614   1.876  25.368  0.00  0.00    -0.273 OA
ATOM      2  C   UNL     1      -0.156   1.791  25.081  0.00  0.00    +0.242 C 
ATOM     23  N   UNL     1      -0.655   2.447  25.042  0.00  0.00    -0.201 NA
BRANCH  23  24
ATOM     24  C   UNL     1      -0.386   3.186  25.288  0.00  0.00    +0.141 C 
BRANCH  24  25
ATOM     25  C   UNL     1      -0.892   3.838  25.270  0.00  0.00    -0.001 A 
ATOM     26  C   UNL     1      -0.666   4.526  24.877  0.00  0.00    -0.003 A 
ATOM     27  C   UNL     1      -1.173   5.177  24.859  0.00  0.00    -0.000 A 
ATOM     28  C   UNL     1      -1.906   5.139  25.236  0.00  0.00    -0.000 A 
ATOM     29  C   UNL     1      -2.133   4.450  25.629  0.00  0.00    -0.000 A 
ATOM     30  C   UNL     1      -1.625   3.800  25.646  0.00  0.00    -0.003 A 
ENDBRANCH  24  25
ENDBRANCH  23  24
ENDBRANCH   3   2
ENDBRANCH   4   3
ENDBRANCH   5   4
BRANCH  12  15
ATOM     15  N   UNL     1      -4.048   0.122  25.204  0.00  0.00    -0.212 NA
BRANCH  15  16
ATOM     16  C   UNL     1      -4.364   0.654  24.659  0.00  0.00    +0.134 C 
BRANCH  16  17
ATOM     17  C   UNL     1      -4.873   1.252  24.914  0.00  0.00    +0.077 A 
ATOM     18  N   UNL     1      -5.484   1.077  25.439  0.00  0.00    -0.247 NA
ATOM     19  C   UNL     1      -5.993   1.674  25.693  0.00  0.00    +0.098 A 
ATOM     20  C   UNL     1      -5.891   2.447  25.422  0.00  0.00    +0.021 A 
ATOM     21  C   UNL     1      -5.280   2.622  24.897  0.00  0.00    +0.003 A 
ATOM     22  C   UNL     1      -4.771   2.024  24.642  0.00  0.00    +0.016 A 
ENDBRANCH  16  17
ENDBRANCH  15  16
ENDBRANCH  12  15
TORSDOF 8
ENDMDL
MODEL 7
REMARK VINA RESULT:     -10.8      1.628      3.565
REMARK  Name = 
REMARK  8 active torsions:
REMARK  status: ('A' for Active; 'I' for Inactive)
REMARK    1  A    between atoms: C_2  and  C_3
REMARK    2  A    between atoms: C_3  and  C_4
REMARK    3  A    between atoms: C_4  and  C_5
REMARK    4  A    between atoms: C_12  and  N_15
REMARK    5  A    between atoms: N_15  and  C_16
REMARK    6  A    between atoms: C_16  and  C_17
REMARK    7  A    between atoms: N_23  and  C_24
REMARK    8  A    between atoms: C_24  and  C_25
REMARK                            x       y       z     vdW  Elec       q    Type
REMARK                         _______ _______ _______ _____ _____    ______ ____
ROOT
ATOM      5  C   UNL     1      -1.409  -0.393  24.772  0.00  0.00    +0.080 C 
ATOM      6  C   UNL     1      -1.102  -1.100  24.477  0.00  0.00    +0.131 C 
ATOM      7  N   UNL     1      -0.391  -1.097  24.056  0.00  0.00    -0.203 NA
ATOM      8  C   UNL     1       0.011  -0.388  23.932  0.00  0.00    +0.256 C 
ATOM      9  O   UNL     1       0.721  -0.386  23.512  0.00  0.00    -0.272 OA
ATOM     10  C   UNL     1      -0.297   0.319  24.227  0.00  0.00    +0.138 C 
ATOM     11  C   UNL     1      -0.025   1.097  24.190  0.00  0.00    +0.044 C 
ATOM     12  C   UNL     1      -0.568   1.575  24.588  0.00  0.00    +0.091 C 
ATOM     13  C   UNL     1      -1.174   1.093  24.870  0.00  0.00    +0.090 C 
ATOM     14  N   UNL     1      -1.006   0.316  24.646  0.00  0.00    -0.265 NA
ENDROOT
BRANCH   5   4
ATOM      4  C   UNL     1      -2.120  -0.397  25.192  0.00  0.00    +0.027 C 
BRANCH   4   3
ATOM      3  C   UNL     1      -2.805  -0.692  24.841  0.00  0.00    +0.088 C 
BRANCH   3   2
ATOM      1  O   UNL     1      -3.903  -0.987  25.708  0.00  0.00    -0.273 OA
ATOM      2  C   UNL     1      -3.544  -0.495  25.150  0.00  0.00    +0.242 C 
ATOM     23  N   UNL     1      -3.925   0.194  24.902  0.00  0.00    -0.201 NA
BRANCH  23  24
ATOM     24  C   UNL     1      -4.664   0.391  25.210  0.00  0.00    +0.141 C 
BRANCH  24  25
ATOM     25  C   UNL     1      -4.939   1.167  25.160  0.00  0.00    -0.001 A 
ATOM     26  C   UNL     1      -5.464   1.456  25.726  0.00  0.00    -0.003 A 
ATOM     27  C   UNL     1      -5.740   2.233  25.676  0.00  0.00    -0.000 A 
ATOM     28  C   UNL     1      -5.489   2.719  25.059  0.00  0.00    -0.000 A 
ATOM     29  C   UNL     1      -4.963   2.430  24.492  0.00  0.00    -0.000 A 
ATOM     30  C   UNL     1      -4.688   1.654  24.543  0.00  0.00    -0.003 A 
ENDBRANCH  24  25
ENDBRANCH  23  24
ENDBRANCH   3   2
ENDBRANCH   4   3
ENDBRANCH   5   4
BRANCH  12  15
ATOM     15  N   UNL     1      -0.513   2.392  24.685  0.00  0.00    -0.212 NA
BRANCH  15  16
ATOM     16  C   UNL     1      -0.947   2.768  25.278  0.00  0.00    +0.134 C 
BRANCH  16  17
ATOM     17  C   UNL     1      -1.107   3.576  25.223  0.00  0.00    +0.077 A 
ATOM     18  N   UNL     1      -0.554   4.083  24.883  0.00  0.00    -0.247 NA
ATOM     19  C   UNL     1      -0.714   4.891  24.828  0.00  0.00    +0.098 A 
ATOM     20  C   UNL     1      -1.428   5.190  25.115  0.00  0.00    +0.021 A 
ATOM     21  C   UNL     1      -1.980   4.683  25.455  0.00  0.00    +0.003 A 
ATOM     22  C   UNL     1      -1.820   3.875  25.510  0.00  0.00    +0.016 A 
ENDBRANCH  16  17
ENDBRANCH  15  16
ENDBRANCH  12  15
TORSDOF 8
ENDMDL
