MODEL 1
REMARK VINA RESULT:     -10.1      0.000      0.000
REMARK  Name = 
REMARK  7 active torsions:
REMARK  status: ('A' for Active; 'I' for Inactive)
REMARK    1  A    between atoms: C_4  and  C_5
REMARK    2  A    between atoms: C_5  and  C_6
REMARK    3  A    between atoms: C_9  and  C_10
REMARK    4  A    between atoms: C_10  and  N_11
REMARK    5  A    between atoms: C_19  and  N_20
REMARK    6  A    between atoms: N_20  and  C_21
REMARK    7  A    between atoms: C_21  and  C_22
REMARK                            x       y       z     vdW  Elec       q    Type
REMARK                         _______ _______ _______ _____ _____    ______ ____
ROOT
ATOM      5  C   UNL     1      -4.642   1.386  24.815  0.00  0.00    +0.049 C 
ENDROOT
BRANCH   5   4
ATOM      1  C   UNL     1      -5.132   2.710  25.039  0.00  0.00    +0.001 C 
ATOM      2  C   UNL     1      -4.322   2.864  25.014  0.00  0.00    +0.015 C 
ATOM      3  C   UNL     1      -4.470   3.665  25.141  0.00  0.00    +0.001 C 
ATOM      4  C   UNL     1      -4.173   2.062  24.887  0.00  0.00    +0.009 C 
ATOM     18  C   UNL     1      -3.364   2.215  24.862  0.00  0.00    +0.018 C 
ATOM     19  C   UNL     1      -3.511   3.016  24.988  0.00  0.00    +0.073 C 
BRANCH  19  20
ATOM     20  N   UNL     1      -3.043   3.692  25.060  0.00  0.00    -0.219 NA
BRANCH  20  21
ATOM     21  C   UNL     1      -2.234   3.620  25.206  0.00  0.00    +0.089 C 
BRANCH  21  22
ATOM     22  C   UNL     1      -1.745   4.283  25.158  0.00  0.00    +0.017 C 
ATOM     23  C   UNL     1      -1.637   5.097  25.233  0.00  0.00    +0.001 C 
ATOM     24  C   UNL     1      -1.009   4.616  24.998  0.00  0.00    +0.001 C 
ENDBRANCH  21  22
ENDBRANCH  20  21
ENDBRANCH  19  20
ENDBRANCH   5   4
BRANCH   5   6
ATOM      6  C   UNL     1      -4.291   0.654  24.673  0.00  0.00    +0.100 A 
ATOM      7  N   UNL     1      -4.094   0.344  23.933  0.00  0.00    -0.082 NA
ATOM      8  O   UNL     1      -3.757  -0.398  24.049  0.00  0.00    -0.357 OA
ATOM      9  C   UNL     1      -3.744  -0.550  24.859  0.00  0.00    +0.170 A 
ATOM     17  C   UNL     1      -4.074   0.100  25.246  0.00  0.00    +0.055 A 
BRANCH   9  10
ATOM     10  C   UNL     1      -3.453  -1.231  25.222  0.00  0.00    +0.141 C 
BRANCH  10  11
ATOM     11  N   UNL     1      -2.669  -1.460  25.100  0.00  0.00    -0.262 NA
ATOM     12  C   UNL     1      -2.061  -1.075  25.501  0.00  0.00    +0.105 C 
ATOM     13  C   UNL     1      -1.277  -1.303  25.380  0.00  0.00    +0.159 C 
ATOM     14  O   UNL     1      -1.102  -1.917  24.857  0.00  0.00    -0.351 OA
ATOM     15  C   UNL     1      -1.712  -2.302  24.455  0.00  0.00    +0.159 C 
ATOM     16  C   UNL     1      -2.495  -2.074  24.577  0.00  0.00    +0.105 C 
ENDBRANCH  10  11
ENDBRANCH   9  10
ENDBRANCH   5   6
TORSDOF 7
ENDMDL
MODEL 2
REMARK VINA RESULT:     -10.0      1.772      4.295
REMARK  Name = 
REMARK  7 active torsions:
REMARK  status: ('A' for Active; 'I' for Inactive)
REMARK    1  A    between atoms: C_4  and  C_5
REMARK    2  A    between atoms: C_5  and  C_6
REMARK    3  A    between atoms: C_9  and  C_10
REMARK    4  A    between atoms: C_10  and  N_11
REMARK    5  A    between atoms: C_19  and  N_20
REMARK    6  A    between atoms: N_20  and  C_21
REMARK    7  A    between atoms: C_21  and  C_22
REMARK                            x       y       z     vdW  Elec       q    Type
REMARK                         _______ _______ _______ _____ _____    ______ ____
ROOT
ATOM      5  C   UNL     1      -4.387   2.877  25.142  0.00  0.00    +0.049 C 
ENDROOT
BRANCH   5   4
ATOM      1  C   UNL     1      -5.546   2.084  25.410  0.00  0.00    +0.001 C 
ATOM      2  C   UNL     1      -5.045   1.502  25.109  0.00  0.00    +0.015 C 
ATOM      3  C   UNL     1      -5.637   0.938  25.214  0.00  0.00    +0.001 C 
ATOM      4  C   UNL     1      -4.452   2.066  25.004  0.00  0.00    +0.009 C 
ATOM     18  C   UNL     1      -3.950   1.485  24.704  0.00  0.00    +0.018 C 
ATOM     19  C   UNL     1      -4.542   0.920  24.809  0.00  0.00    +0.073 C 
BRANCH  19  20
ATOM     20  N   UNL     1      -4.607   0.110  24.671  0.00  0.00    -0.219 NA
BRANCH  20  21
ATOM     21  C   UNL     1      -3.970  -0.307  24.351  0.00  0.00    +0.089 C 
BRANCH  21  22
ATOM     22  C   UNL     1      -4.016  -1.125  24.261  0.00  0.00    +0.017 C 
ATOM     23  C   UNL     1      -4.298  -1.784  23.853  0.00  0.00    +0.001 C 
ATOM     24  C   UNL     1      -3.812  -1.884  24.512  0.00  0.00    +0.001 C 
ENDBRANCH  21  22
ENDBRANCH  20  21
ENDBRANCH  19  20
ENDBRANCH   5   4
BRANCH   5   6
ATOM      6  C   UNL     1      -3.675   3.266  24.994  0.00  0.00    +0.100 A 
ATOM      7  N   UNL     1      -3.472   3.658  24.296  0.00  0.00    -0.082 NA
ATOM      8  O   UNL     1      -2.713   3.965  24.388  0.00  0.00    -0.357 OA
ATOM      9  C   UNL     1      -2.446   3.765  25.142  0.00  0.00    +0.170 A 
ATOM     17  C   UNL     1      -3.041   3.333  25.517  0.00  0.00    +0.055 A 
BRANCH   9  10
ATOM     10  C   UNL     1      -1.713   3.961  25.467  0.00  0.00    +0.141 C 
BRANCH  10  11
ATOM     11  N   UNL     1      -1.074   3.447  25.380  0.00  0.00    -0.262 NA
ATOM     12  C   UNL     1      -0.839   2.971  26.011  0.00  0.00    +0.105 C 
ATOM     13  C   UNL     1      -0.200   2.456  25.925  0.00  0.00    +0.159 C 
ATOM     14  O   UNL     1       0.205   2.419  25.208  0.00  0.00    -0.351 OA
ATOM     15  C   UNL     1      -0.029   2.896  24.576  0.00  0.00    +0.159 C 
ATOM     16  C   UNL     1      -0.668   3.409  24.662  0.00  0.00    +0.105 C 
ENDBRANCH  10  11
ENDBRANCH   9  10
ENDBRANCH   5   6
TORSDOF 7
ENDMDL
MODEL 3
REMARK VINA RESULT:      -9.5      1.597      4.555
REMARK  Name = 
REMARK  7 active torsions:
REMARK  status: ('A' for Active; 'I' for Inactive)
REMARK    1  A    between atoms: C_4  and  C_5
REMARK    2  A    between atoms: C_5  and  C_6
REMARK    3  A    between atoms: C_9  and  C_10
REMARK    4  A    between atoms: C_10  and  N_11
REMARK    5  A    between atoms: C_19  and  N_20
REMARK    6  A    between atoms: N_20  and  C_21
REMARK    7  A    between atoms: C_21  and  C_22
REMARK                            x       y       z     vdW  Elec       q    Type
REMARK                         _______ _______ _______ _____ _____    ______ ____
ROOT
ATOM      5  C   UNL     1      -4.686   0.298  24.478  0.00  0.00    +0.049 C 
ENDROOT
BRANCH   5   4
ATOM      1  C   UNL     1      -4.530  -1.067  24.083  0.00  0.00    +0.001 C 
ATOM      2  C   UNL     1      -3.784  -0.929  24.408  0.00  0.00    +0.015 C 
ATOM      3  C   UNL     1      -3.565  -1.704  24.233  0.00  0.00    +0.001 C 
ATOM      4  C   UNL     1      -4.003  -0.153  24.584  0.00  0.00    +0.009 C 
ATOM     18  C   UNL     1      -3.258  -0.016  24.908  0.00  0.00    +0.018 C 
ATOM     19  C   UNL     1      -3.039  -0.791  24.733  0.00  0.00    +0.073 C 
BRANCH  19  20
ATOM     20  N   UNL     1      -2.356  -1.242  24.839  0.00  0.00    -0.219 NA
BRANCH  20  21
ATOM     21  C   UNL     1      -1.699  -0.915  25.214  0.00  0.00    +0.089 C 
BRANCH  21  22
ATOM     22  C   UNL     1      -0.962  -1.282  25.153  0.00  0.00    +0.017 C 
ATOM     23  C   UNL     1      -0.234  -1.362  24.775  0.00  0.00    +0.001 C 
ATOM     24  C   UNL     1      -0.417  -1.838  25.423  0.00  0.00    +0.001 C 
ENDBRANCH  21  22
ENDBRANCH  20  21
ENDBRANCH  19  20
ENDBRANCH   5   4
BRANCH   5   6
ATOM      6  C   UNL     1      -4.730   1.060  24.791  0.00  0.00    +0.100 A 
ATOM      7  N   UNL     1      -5.031   1.265  25.532  0.00  0.00    -0.082 NA
ATOM      8  O   UNL     1      -4.968   2.082  25.616  0.00  0.00    -0.357 OA
ATOM      9  C   UNL     1      -4.627   2.384  24.929  0.00  0.00    +0.170 A 
ATOM     17  C   UNL     1      -4.479   1.753  24.418  0.00  0.00    +0.055 A 
BRANCH   9  10
ATOM     10  C   UNL     1      -4.462   3.178  24.777  0.00  0.00    +0.141 C 
BRANCH  10  11
ATOM     11  N   UNL     1      -3.783   3.525  25.093  0.00  0.00    -0.262 NA
ATOM     12  C   UNL     1      -3.785   3.806  25.867  0.00  0.00    +0.105 C 
ATOM     13  C   UNL     1      -3.106   4.153  26.183  0.00  0.00    +0.159 C 
ATOM     14  O   UNL     1      -2.424   4.218  25.723  0.00  0.00    -0.351 OA
ATOM     15  C   UNL     1      -2.422   3.937  24.947  0.00  0.00    +0.159 C 
ATOM     16  C   UNL     1      -3.100   3.590  24.632  0.00  0.00    +0.105 C 
ENDBRANCH  10  11
ENDBRANCH   9  10
ENDBRANCH   5   6
TORSDOF 7
ENDMDL
MODEL 4
REMARK VINA RESULT:      -9.1      1.991      5.331
REMARK  Name = 
REMARK  7 active torsions:
REMARK  status: ('A' for Active; 'I' for Inactive)
REMARK    1  A    between atoms: C_4  and  C_5
REMARK    2  A    between atoms: C_5  and  C_6
REMARK    3  A    between atoms: C_9  and  C_10
REMARK    4  A    between atoms: C_10  and  N_11
REMARK    5  A    between atoms: C_19  and  N_20
REMARK    6  A    between atoms: N_20  and  C_21
REMARK    7  A    between atoms: C_21  and  C_22
REMARK                            x       y       z     vdW  Elec       q    Type
REMARK                         _______ _______ _______ _____ _____    ______ ____
ROOT
ATOM      5  C   UNL     1      -0.336   1.106  24.808  0.00  0.00    +0.049 C 
ENDROOT
BRANCH   5   4
ATOM      1  C   UNL     1       0.074  -0.138  24.237  0.00  0.00    +0.001 C 
ATOM      2  C   UNL     1      -0.690  -0.338  24.471  0.00  0.00    +0.015 C 
ATOM      3  C   UNL     1      -0.581  -1.100  24.177  0.00  0.00    +0.001 C 
ATOM      4  C   UNL     1      -0.800   0.425  24.766  0.00  0.00    +0.009 C 
ATOM     18  C   UNL     1      -1.565   0.225  25.001  0.00  0.00    +0.018 C 
ATOM     19  C   UNL     1      -1.456  -0.537  24.707  0.00  0.00    +0.073 C 
BRANCH  19  20
ATOM     20  N   UNL     1      -1.920  -1.218  24.665  0.00  0.00    -0.219 NA
BRANCH  20  21
ATOM     21  C   UNL     1      -2.707  -1.197  24.909  0.00  0.00    +0.089 C 
BRANCH  21  22
ATOM     22  C   UNL     1      -3.196  -1.850  24.783  0.00  0.00    +0.017 C 
ATOM     23  C   UNL     1      -3.774  -2.233  24.336  0.00  0.00    +0.001 C 
ATOM     24  C   UNL     1      -3.465  -2.595  25.011  0.00  0.00    +0.001 C 
ENDBRANCH  21  22
ENDBRANCH  20  21
ENDBRANCH  19  20
ENDBRANCH   5   4
BRANCH   5   6
ATOM      6  C   UNL     1      -0.634   1.787  25.166  0.00  0.00    +0.100 A 
ATOM      7  N   UNL     1      -0.628   1.954  25.975  0.00  0.00    -0.082 NA
ATOM      8  O   UNL     1      -0.980   2.691  26.086  0.00  0.00    -0.357 OA
ATOM      9  C   UNL     1      -1.205   2.980  25.347  0.00  0.00    +0.170 A 
ATOM     17  C   UNL     1      -0.991   2.422  24.778  0.00  0.00    +0.055 A 
BRANCH   9  10
ATOM     10  C   UNL     1      -1.578   3.701  25.201  0.00  0.00    +0.141 C 
BRANCH  10  11
ATOM     11  N   UNL     1      -2.394   3.770  25.300  0.00  0.00    -0.262 NA
ATOM     12  C   UNL     1      -2.705   3.982  26.033  0.00  0.00    +0.105 C 
ATOM     13  C   UNL     1      -3.521   4.051  26.132  0.00  0.00    +0.159 C 
ATOM     14  O   UNL     1      -4.027   3.907  25.497  0.00  0.00    -0.351 OA
ATOM     15  C   UNL     1      -3.717   3.694  24.762  0.00  0.00    +0.159 C 
ATOM     16  C   UNL     1      -2.901   3.626  24.664  0.00  0.00    +0.105 C 
ENDBRANCH  10  11
ENDBRANCH   9  10
ENDBRANCH   5   6
TORSDOF 7
ENDMDL
MODEL 5
REMARK VINA RESULT:      -8.9      1.378      2.683
REMARK  Name = 
REMARK  7 active torsions:
REMARK  status: ('A' for Active; 'I' for Inactive)
REMARK    1  A    between atoms: C_4  and  C_5
REMARK    2  A    between atoms: C_5  and  C_6
REMARK    3  A    between atoms: C_9  and  C_10
REMARK    4  A    between atoms: C_10  and  N_11
REMARK    5  A    between atoms: C_19  and  N_20
REMARK    6  A    between atoms: N_20  and  C_21
REMARK    7  A    between atoms: C_21  and  C_22
REMARK                            x       y       z     vdW  Elec       q    Type
REMARK                         _______ _______ _______ _____ _____    ______ ____
ROOT
ATOM      5  C   UNL     1      -0.873   2.084  25.165  0.00  0.00    +0.049 C 
ENDROOT
BRANCH   5   4
ATOM      1  C   UNL     1      -1.051   3.438  25.587  0.00  0.00    +0.001 C 
ATOM      2  C   UNL     1      -1.836   3.234  25.439  0.00  0.00    +0.015 C 
ATOM      3  C   UNL     1      -2.075   3.991  25.660  0.00  0.00    +0.001 C 
ATOM      4  C   UNL     1      -1.597   2.476  25.217  0.00  0.00    +0.009 C 
ATOM     18  C   UNL     1      -2.382   2.271  25.068  0.00  0.00    +0.018 C 
ATOM     19  C   UNL     1      -2.621   3.028  25.290  0.00  0.00    +0.073 C 
BRANCH  19  20
ATOM     20  N   UNL     1      -3.346   3.419  25.342  0.00  0.00    -0.219 NA
BRANCH  20  21
ATOM     21  C   UNL     1      -4.031   3.059  25.057  0.00  0.00    +0.089 C 
BRANCH  21  22
ATOM     22  C   UNL     1      -4.771   3.317  25.315  0.00  0.00    +0.017 C 
ATOM     23  C   UNL     1      -5.330   3.918  25.393  0.00  0.00    +0.001 C 
ATOM     24  C   UNL     1      -5.493   3.163  25.682  0.00  0.00    +0.001 C 
ENDBRANCH  21  22
ENDBRANCH  20  21
ENDBRANCH  19  20
ENDBRANCH   5   4
BRANCH   5   6
ATOM      6  C   UNL     1      -0.848   1.285  24.965  0.00  0.00    +0.100 A 
ATOM      7  N   UNL     1      -0.737   0.977  24.207  0.00  0.00    -0.082 NA
ATOM      8  O   UNL     1      -0.751   0.155  24.261  0.00  0.00    -0.357 OA
ATOM      9  C   UNL     1      -0.871  -0.047  25.052  0.00  0.00    +0.170 A 
ATOM     17  C   UNL     1      -0.931   0.651  25.487  0.00  0.00    +0.055 A 
BRANCH   9  10
ATOM     10  C   UNL     1      -0.922  -0.812  25.356  0.00  0.00    +0.141 C 
BRANCH  10  11
ATOM     11  N   UNL     1      -1.552  -1.300  25.140  0.00  0.00    -0.262 NA
ATOM     12  C   UNL     1      -2.292  -1.197  25.488  0.00  0.00    +0.105 C 
ATOM     13  C   UNL     1      -2.922  -1.685  25.272  0.00  0.00    +0.159 C 
ATOM     14  O   UNL     1      -2.812  -2.275  24.707  0.00  0.00    -0.351 OA
ATOM     15  C   UNL     1      -2.071  -2.378  24.358  0.00  0.00    +0.159 C 
ATOM     16  C   UNL     1      -1.442  -1.891  24.574  0.00  0.00    +0.105 C 
ENDBRANCH  10  11
ENDBRANCH   9  10
ENDBRANCH   5   6
TORSDOF 7
ENDMDL
MODEL 6
REMARK VINA RESULT:      -8.9      2.162      4.759
REMARK  Name = 
REMARK  7 active torsions:
REMARK  status: ('A' for Active; 'I' for Inactive)
REMARK    1  A    between atoms: C_4  and  C_5
REMARK    2  A    between atoms: C_5  and  C_6
REMARK    3  A    between atoms: C_9  and  C_10
REMARK    4  A    between atoms: C_10  and  N_11
REMARK    5  A    between atoms: C_19  and  N_20
REMARK    6  A    between atoms: N_20  and  C_21
REMARK    7  A    between atoms: C_21  and  C_22
REMARK                            x       y       z     vdW  Elec       q    Type
REMARK                         _______ _______ _______ _____ _____    ______ ____
ROOT
ATOM      5  C   UNL     1      -1.451   3.381  25.183  0.00  0.00    +0.049 C 
ENDROOT
BRANCH   5   4
ATOM      1  C   UNL     1      -0.165   2.953  24.729  0.00  0.00    +0.001 C 
ATOM      2  C   UNL     1      -0.498   2.222  24.917  0.00  0.00    +0.015 C 
ATOM      3  C   UNL     1       0.197   1.846  24.683  0.00  0.00    +0.001 C 
ATOM      4  C   UNL     1      -1.194   2.598  25.150  0.00  0.00    +0.009 C 
ATOM     18  C   UNL     1      -1.527   1.867  25.338  0.00  0.00    +0.018 C 
ATOM     19  C   UNL     1      -0.831   1.491  25.105  0.00  0.00    +0.073 C 
BRANCH  19  20
ATOM     20  N   UNL     1      -0.575   0.708  25.072  0.00  0.00    -0.219 NA
BRANCH  20  21
ATOM     21  C   UNL     1      -1.087   0.096  25.282  0.00  0.00    +0.089 C 
BRANCH  21  22
ATOM     22  C   UNL     1      -0.879  -0.688  25.128  0.00  0.00    +0.017 C 
ATOM     23  C   UNL     1      -0.877  -1.340  24.623  0.00  0.00    +0.001 C 
ATOM     24  C   UNL     1      -0.523  -1.392  25.366  0.00  0.00    +0.001 C 
ENDBRANCH  21  22
ENDBRANCH  20  21
ENDBRANCH  19  20
ENDBRANCH   5   4
BRANCH   5   6
ATOM      6  C   UNL     1      -2.232   3.552  25.388  0.00  0.00    +0.100 A 
ATOM      7  N   UNL     1      -2.501   3.772  26.137  0.00  0.00    -0.082 NA
ATOM      8  O   UNL     1      -3.315   3.888  26.091  0.00  0.00    -0.357 OA
ATOM      9  C   UNL     1      -3.551   3.741  25.315  0.00  0.00    +0.170 A 
ATOM     17  C   UNL     1      -2.882   3.532  24.880  0.00  0.00    +0.055 A 
BRANCH   9  10
ATOM     10  C   UNL     1      -4.321   3.791  25.024  0.00  0.00    +0.141 C 
BRANCH  10  11
ATOM     11  N   UNL     1      -4.854   3.176  25.159  0.00  0.00    -0.262 NA
ATOM     12  C   UNL     1      -4.925   2.563  24.612  0.00  0.00    +0.105 C 
ATOM     13  C   UNL     1      -5.458   1.948  24.748  0.00  0.00    +0.159 C 
ATOM     14  O   UNL     1      -5.920   1.945  25.431  0.00  0.00    -0.351 OA
ATOM     15  C   UNL     1      -5.849   2.559  25.979  0.00  0.00    +0.159 C 
ATOM     16  C   UNL     1      -5.317   3.173  25.843  0.00  0.00    +0.105 C 
ENDBRANCH  10  11
ENDBRANCH   9  10
ENDBRANCH   5   6
TORSDOF 7
ENDMDL
MODEL 7
REMARK VINA RESULT:      -8.8      2.056      3.541
REMARK  Name = 
REMARK  7 active torsions:
REMARK  status: ('A' for Active; 'I' for Inactive)
REMARK    1  A    between atoms: C_4  and  C_5
REMARK    2  A    between atoms: C_5  and  C_6
REMARK    3  A    between atoms: C_9  and  C_10
REMARK    4  A    between atoms: C_10  and  N_11
REMARK    5  A    between atoms: C_19  and  N_20
REMARK    6  A    between atoms: N_20  and  C_21
REMARK    7  A    between atoms: C_21  and  C_22
REMARK                            x       y       z     vdW  Elec       q    Type
REMARK                         _______ _______ _______ _____ _____    ______ ____
ROOT
ATOM      5  C   UNL     1      -1.716   3.785  25.365  0.00  0.00    +0.049 C 
ENDROOT
BRANCH   5   4
ATOM      1  C   UNL     1      -2.740   4.441  26.114  0.00  0.00    +0.001 C 
ATOM      2  C   UNL     1      -3.187   3.847  25.758  0.00  0.00    +0.015 C 
ATOM      3  C   UNL     1      -3.864   4.129  26.135  0.00  0.00    +0.001 C 
ATOM      4  C   UNL     1      -2.510   3.564  25.380  0.00  0.00    +0.009 C 
ATOM     18  C   UNL     1      -2.957   2.969  25.024  0.00  0.00    +0.018 C 
ATOM     19  C   UNL     1      -3.634   3.251  25.401  0.00  0.00    +0.073 C 
BRANCH  19  20
ATOM     20  N   UNL     1      -4.428   3.030  25.416  0.00  0.00    -0.219 NA
BRANCH  20  21
ATOM     21  C   UNL     1      -4.675   2.350  25.021  0.00  0.00    +0.089 C 
BRANCH  21  22
ATOM     22  C   UNL     1      -5.445   2.070  25.122  0.00  0.00    +0.017 C 
ATOM     23  C   UNL     1      -6.217   1.988  24.844  0.00  0.00    +0.001 C 
ATOM     24  C   UNL     1      -6.004   1.667  25.574  0.00  0.00    +0.001 C 
ENDBRANCH  21  22
ENDBRANCH  20  21
ENDBRANCH  19  20
ENDBRANCH   5   4
BRANCH   5   6
ATOM      6  C   UNL     1      -1.163   3.313  24.974  0.00  0.00    +0.100 A 
ATOM      7  N   UNL     1      -0.943   3.377  24.181  0.00  0.00    -0.082 NA
ATOM      8  O   UNL     1      -0.378   2.798  24.026  0.00  0.00    -0.357 OA
ATOM      9  C   UNL     1      -0.247   2.374  24.722  0.00  0.00    +0.170 A 
ATOM     17  C   UNL     1      -0.733   2.693  25.309  0.00  0.00    +0.055 A 
BRANCH   9  10
ATOM     10  C   UNL     1       0.276   1.744  24.817  0.00  0.00    +0.141 C 
BRANCH  10  11
ATOM     11  N   UNL     1       0.092   1.005  24.499  0.00  0.00    -0.262 NA
ATOM     12  C   UNL     1      -0.394   0.486  24.915  0.00  0.00    +0.105 C 
ATOM     13  C   UNL     1      -0.578  -0.253  24.597  0.00  0.00    +0.159 C 
ATOM     14  O   UNL     1      -0.276  -0.473  23.862  0.00  0.00    -0.351 OA
ATOM     15  C   UNL     1       0.211   0.047  23.444  0.00  0.00    +0.159 C 
ATOM     16  C   UNL     1       0.394   0.785  23.763  0.00  0.00    +0.105 C 
ENDBRANCH  10  11
ENDBRANCH   9  10
ENDBRANCH   5   6
TORSDOF 7
ENDMDL
