MODEL 1
REMARK VINA RESULT:      -9.5      0.000      0.000
REMARK  Name = 
REMARK  8 active torsions:
REMARK  status: ('A' for Active; 'I' for Inactive)
REMARK    1  A    between atoms: O_2  and  C_3
REMARK    2  A    between atoms: C_6  and  C_11
REMARK    3  A    between atoms: C_8  and  O_9
REMARK    4  A    between atoms: C_15  and  C_17
REMARK    5  A    between atoms: C_24  and  C_25
REMARK    6  A    between atoms: C_25  and  O_26
REMARK    7  A    between atoms: O_26  and  C_27
REMARK    8  A    between atoms: N_29  and  C_30
REMARK                            x       y       z     vdW  Elec       q    Type
REMARK                         _______ _______ _______ _____ _____    ______ ____
ROOT
ATOM     17  C   UNL     1      -0.598   0.343  24.147  0.00  0.00    +0.056 C 
ATOM     18  C   UNL     1      -0.380  -0.365  23.909  0.00  0.00    +0.078 C 
ATOM     19  N   UNL     1       0.042   0.336  23.803  0.00  0.00    -0.270 NA
ATOM     20  C   UNL     1      -0.523   1.106  24.237  0.00  0.00    +0.072 C 
ATOM     21  C   UNL     1      -0.602   1.736  24.387  0.00  0.00    +0.018 C 
ATOM     22  C   UNL     1      -0.179   1.027  24.039  0.00  0.00    +0.010 C 
ATOM     23  C   UNL     1       0.593   1.189  23.655  0.00  0.00    +0.020 C 
ATOM     24  C   UNL     1       0.844   0.512  23.405  0.00  0.00    +0.102 C 
ENDROOT
BRANCH  17  15
ATOM     11  C   UNL     1      -2.572   0.743  24.856  0.00  0.00    +0.102 A 
ATOM     12  N   UNL     1      -2.289   0.242  25.447  0.00  0.00    -0.170 NA
ATOM     13  N   UNL     1      -1.516   0.031  25.253  0.00  0.00    -0.253 N 
ATOM     14  C   UNL     1      -1.023  -0.465  25.692  0.00  0.00    +0.153 C 
ATOM     15  C   UNL     1      -1.321   0.402  24.543  0.00  0.00    +0.058 A 
ATOM     16  C   UNL     1      -1.974   0.842  24.297  0.00  0.00    +0.035 A 
BRANCH  11   6
ATOM      3  C   UNL     1      -4.822   1.772  24.776  0.00  0.00    +0.172 A 
ATOM      4  C   UNL     1      -4.727   0.972  24.595  0.00  0.00    +0.040 A 
ATOM      5  C   UNL     1      -3.977   0.630  24.622  0.00  0.00    +0.005 A 
ATOM      6  C   UNL     1      -3.322   1.085  24.830  0.00  0.00    +0.023 A 
ATOM      7  C   UNL     1      -3.417   1.885  25.011  0.00  0.00    +0.042 A 
ATOM      8  C   UNL     1      -4.168   2.228  24.984  0.00  0.00    +0.172 A 
BRANCH   3   2
ATOM      1  C   UNL     1      -6.243   1.649  24.871  0.00  0.00    +0.253 C 
ATOM      2  O   UNL     1      -5.572   2.114  24.749  0.00  0.00    -0.468 OA
ENDBRANCH   3   2
BRANCH   8   9
ATOM      9  O   UNL     1      -4.263   3.027  25.165  0.00  0.00    -0.468 OA
ATOM     10  C   UNL     1      -3.601   3.500  25.304  0.00  0.00    +0.253 C 
ENDBRANCH   8   9
ENDBRANCH  11   6
ENDBRANCH  17  15
BRANCH  24  25
ATOM     25  C   UNL     1       1.471   0.153  23.009  0.00  0.00    +0.226 C 
BRANCH  25  26
ATOM     26  O   UNL     1       2.148   0.588  22.827  0.00  0.00    -0.432 OA
BRANCH  26  27
ATOM     27  C   UNL     1       2.893   0.240  22.890  0.00  0.00    +0.425 C 
ATOM     28  O   UNL     1       3.041  -0.485  22.525  0.00  0.00    -0.224 OA
ATOM     29  N   UNL     1       3.490   0.617  23.317  0.00  0.00    -0.142 NA
BRANCH  29  30
ATOM     30  C   UNL     1       4.235   0.268  23.380  0.00  0.00    +0.077 A 
ATOM     31  C   UNL     1       4.339  -0.401  23.852  0.00  0.00    +0.017 A 
ATOM     32  C   UNL     1       5.084  -0.750  23.915  0.00  0.00    +0.001 A 
ATOM     33  C   UNL     1       5.725  -0.430  23.506  0.00  0.00    +0.000 A 
ATOM     34  C   UNL     1       5.621   0.238  23.034  0.00  0.00    +0.001 A 
ATOM     35  C   UNL     1       4.876   0.587  22.971  0.00  0.00    +0.017 A 
ENDBRANCH  29  30
ENDBRANCH  26  27
ENDBRANCH  25  26
ENDBRANCH  24  25
TORSDOF 8
ENDMDL
MODEL 2
REMARK VINA RESULT:      -9.4      1.203      1.784
REMARK  Name = 
REMARK  8 active torsions:
REMARK  status: ('A' for Active; 'I' for Inactive)
REMARK    1  A    between atoms: O_2  and  C_3
REMARK    2  A    between atoms: C_6  and  C_11
REMARK    3  A    between atoms: C_8  and  O_9
REMARK    4  A    between atoms: C_15  and  C_17
REMARK    5  A    between atoms: C_24  and  C_25
REMARK    6  A    between atoms: C_25  and  O_26
REMARK    7  A    between atoms: O_26  and  C_27
REMARK    8  A    between atoms: N_29  and  C_30
REMARK                            x       y       z     vdW  Elec       q    Type
REMARK                         _______ _______ _______ _____ _____    ______ ____
ROOT
ATOM     17  C   UNL     1      -1.562   1.540  23.839  0.00  0.00    +0.056 C 
ATOM     18  C   UNL     1      -1.082   2.129  23.669  0.00  0.00    +0.078 C 
ATOM     19  N   UNL     1      -0.859   1.355  23.849  0.00  0.00    -0.270 NA
ATOM     20  C   UNL     1      -1.739   0.813  24.028  0.00  0.00    +0.072 C 
ATOM     21  C   UNL     1      -2.040   0.254  24.182  0.00  0.00    +0.018 C 
ATOM     22  C   UNL     1      -1.335   0.783  24.015  0.00  0.00    +0.010 C 
ATOM     23  C   UNL     1      -0.546   0.403  24.069  0.00  0.00    +0.020 C 
ATOM     24  C   UNL     1      -0.042   0.953  23.907  0.00  0.00    +0.102 C 
ENDROOT
BRANCH  17  15
ATOM     11  C   UNL     1      -3.625   1.905  24.251  0.00  0.00    +0.102 A 
ATOM     12  N   UNL     1      -3.609   1.992  23.431  0.00  0.00    -0.170 NA
ATOM     13  N   UNL     1      -2.835   1.865  23.177  0.00  0.00    -0.253 N 
ATOM     14  C   UNL     1      -2.568   1.898  22.397  0.00  0.00    +0.153 C 
ATOM     15  C   UNL     1      -2.372   1.701  23.840  0.00  0.00    +0.058 A 
ATOM     16  C   UNL     1      -2.861   1.726  24.504  0.00  0.00    +0.035 A 
BRANCH  11   6
ATOM      3  C   UNL     1      -5.618   2.144  25.700  0.00  0.00    +0.172 A 
ATOM      4  C   UNL     1      -5.401   1.400  25.417  0.00  0.00    +0.040 A 
ATOM      5  C   UNL     1      -4.737   1.321  24.934  0.00  0.00    +0.005 A 
ATOM      6  C   UNL     1      -4.290   1.984  24.734  0.00  0.00    +0.023 A 
ATOM      7  C   UNL     1      -4.507   2.728  25.017  0.00  0.00    +0.042 A 
ATOM      8  C   UNL     1      -5.172   2.808  25.500  0.00  0.00    +0.172 A 
BRANCH   3   2
ATOM      1  C   UNL     1      -6.613   1.558  26.542  0.00  0.00    +0.253 C 
ATOM      2  O   UNL     1      -6.283   2.223  26.182  0.00  0.00    -0.468 OA
ENDBRANCH   3   2
BRANCH   8   9
ATOM      9  O   UNL     1      -5.390   3.552  25.783  0.00  0.00    -0.468 OA
ATOM     10  C   UNL     1      -5.038   4.230  25.472  0.00  0.00    +0.253 C 
ENDBRANCH   8   9
ENDBRANCH  11   6
ENDBRANCH  17  15
BRANCH  24  25
ATOM     25  C   UNL     1       0.766   1.098  23.831  0.00  0.00    +0.226 C 
BRANCH  25  26
ATOM     26  O   UNL     1       1.211   0.671  23.283  0.00  0.00    -0.432 OA
BRANCH  26  27
ATOM     27  C   UNL     1       2.033   0.730  23.283  0.00  0.00    +0.425 C 
ATOM     28  O   UNL     1       2.399   1.391  23.614  0.00  0.00    -0.224 OA
ATOM     29  N   UNL     1       2.491   0.129  22.952  0.00  0.00    -0.142 NA
BRANCH  29  30
ATOM     30  C   UNL     1       3.314   0.189  22.952  0.00  0.00    +0.077 A 
ATOM     31  C   UNL     1       3.686   0.764  22.492  0.00  0.00    +0.017 A 
ATOM     32  C   UNL     1       4.509   0.824  22.492  0.00  0.00    +0.001 A 
ATOM     33  C   UNL     1       4.960   0.309  22.953  0.00  0.00    +0.000 A 
ATOM     34  C   UNL     1       4.588  -0.266  23.413  0.00  0.00    +0.001 A 
ATOM     35  C   UNL     1       3.765  -0.326  23.413  0.00  0.00    +0.017 A 
ENDBRANCH  29  30
ENDBRANCH  26  27
ENDBRANCH  25  26
ENDBRANCH  24  25
TORSDOF 8
ENDMDL
