MODEL 1
REMARK VINA RESULT:     -10.9      0.000      0.000
REMARK  Name = 
REMARK  9 active torsions:
REMARK  status: ('A' for Active; 'I' for Inactive)
REMARK    1  A    between atoms: O_2  and  C_3
REMARK    2  A    between atoms: C_3  and  C_5
REMARK    3  A    between atoms: C_5  and  N_6
REMARK    4  A    between atoms: C_5  and  C_34
REMARK    5  A    between atoms: C_7  and  C_9
REMARK    6  A    between atoms: C_10  and  N_22
REMARK    7  A    between atoms: C_14  and  C_16
REMARK    8  A    between atoms: N_25  and  C_26
REMARK    9  A    between atoms: C_30  and  O_31
REMARK                            x       y       z     vdW  Elec       q    Type
REMARK                         _______ _______ _______ _____ _____    ______ ____
ROOT
ATOM      9  C   UNL     1      -2.443   0.445  24.656  0.00  0.00    +0.174 C 
ATOM     10  C   UNL     1      -1.620   0.473  24.617  0.00  0.00    +0.126 C 
ATOM     11  C   UNL     1      -1.343  -0.299  24.530  0.00  0.00    +0.045 C 
ATOM     12  C   UNL     1      -1.995  -0.804  24.514  0.00  0.00    +0.096 C 
ATOM     13  N   UNL     1      -2.675  -0.343  24.592  0.00  0.00    -0.267 N 
ATOM     14  C   UNL     1      -3.451  -0.623  24.605  0.00  0.00    +0.269 C 
ATOM     15  O   UNL     1      -4.079  -0.094  24.687  0.00  0.00    -0.268 OA
ENDROOT
BRANCH  14  16
ATOM     16  C   UNL     1      -3.600  -1.431  24.535  0.00  0.00    +0.154 A 
ATOM     17  C   UNL     1      -3.456  -1.933  25.175  0.00  0.00    +0.123 A 
ATOM     18  N   UNL     1      -3.605  -2.742  25.106  0.00  0.00    -0.239 NA
ATOM     19  C   UNL     1      -3.897  -3.049  24.397  0.00  0.00    +0.120 A 
ATOM     20  C   UNL     1      -4.041  -2.547  23.759  0.00  0.00    +0.120 A 
ATOM     21  N   UNL     1      -3.892  -1.738  23.827  0.00  0.00    -0.236 NA
ENDBRANCH  14  16
BRANCH  10  22
ATOM     22  N   UNL     1      -1.154   1.153  24.658  0.00  0.00    -0.186 NA
ATOM     23  C   UNL     1      -0.464   1.209  24.209  0.00  0.00    +0.344 C 
ATOM     24  O   UNL     1      -0.240   0.585  23.719  0.00  0.00    -0.249 OA
ATOM     25  N   UNL     1       0.001   1.889  24.251  0.00  0.00    -0.161 NA
BRANCH  25  26
ATOM     26  C   UNL     1      -0.224   2.513  24.742  0.00  0.00    +0.078 A 
ATOM     27  C   UNL     1      -0.217   2.418  25.561  0.00  0.00    +0.017 A 
ATOM     28  C   UNL     1      -0.442   3.041  26.052  0.00  0.00    +0.004 A 
ATOM     29  C   UNL     1      -0.673   3.761  25.723  0.00  0.00    +0.037 A 
ATOM     30  C   UNL     1      -0.680   3.858  24.904  0.00  0.00    +0.140 A 
ATOM     33  C   UNL     1      -0.455   3.234  24.413  0.00  0.00    +0.054 A 
BRANCH  30  31
ATOM     31  O   UNL     1      -0.911   4.578  24.575  0.00  0.00    -0.471 OA
ATOM     32  C   UNL     1      -1.231   5.167  25.056  0.00  0.00    +0.252 C 
ENDBRANCH  30  31
ENDBRANCH  25  26
ENDBRANCH  10  22
BRANCH   9   7
ATOM      6  N   UNL     1      -3.329   1.409  24.084  0.00  0.00    -0.194 NA
ATOM      7  C   UNL     1      -2.947   1.094  24.743  0.00  0.00    +0.262 C 
ATOM      8  O   UNL     1      -3.066   1.426  25.489  0.00  0.00    -0.271 OA
BRANCH   6   5
ATOM      5  C   UNL     1      -3.833   2.058  24.171  0.00  0.00    +0.193 C 
BRANCH   5  34
ATOM     34  C   UNL     1      -3.769   2.702  23.659  0.00  0.00    +0.031 C 
ATOM     35  C   UNL     1      -3.917   3.465  23.936  0.00  0.00    +0.002 C 
ATOM     36  C   UNL     1      -3.557   2.582  22.872  0.00  0.00    +0.002 C 
ENDBRANCH   5  34
BRANCH   5   3
ATOM      3  C   UNL     1      -4.400   2.062  24.770  0.00  0.00    +0.337 C 
ATOM      4  O   UNL     1      -4.217   2.379  25.510  0.00  0.00    -0.248 OA
BRANCH   3   2
ATOM      1  C   UNL     1      -5.788   1.980  25.098  0.00  0.00    +0.256 C 
ATOM      2  O   UNL     1      -5.150   1.747  24.630  0.00  0.00    -0.443 OA
ENDBRANCH   3   2
ENDBRANCH   5   3
ENDBRANCH   6   5
ENDBRANCH   9   7
TORSDOF 9
ENDMDL
MODEL 2
REMARK VINA RESULT:     -10.5      1.238      2.886
REMARK  Name = 
REMARK  9 active torsions:
REMARK  status: ('A' for Active; 'I' for Inactive)
REMARK    1  A    between atoms: O_2  and  C_3
REMARK    2  A    between atoms: C_3  and  C_5
REMARK    3  A    between atoms: C_5  and  N_6
REMARK    4  A    between atoms: C_5  and  C_34
REMARK    5  A    between atoms: C_7  and  C_9
REMARK    6  A    between atoms: C_10  and  N_22
REMARK    7  A    between atoms: C_14  and  C_16
REMARK    8  A    between atoms: N_25  and  C_26
REMARK    9  A    between atoms: C_30  and  O_31
REMARK                            x       y       z     vdW  Elec       q    Type
REMARK                         _______ _______ _______ _____ _____    ______ ____
ROOT
ATOM      9  C   UNL     1      -3.058   0.768  24.663  0.00  0.00    +0.174 C 
ATOM     10  C   UNL     1      -3.684   1.245  24.909  0.00  0.00    +0.126 C 
ATOM     11  C   UNL     1      -4.326   0.755  25.078  0.00  0.00    +0.045 C 
ATOM     12  C   UNL     1      -4.096  -0.025  24.937  0.00  0.00    +0.096 C 
ATOM     13  N   UNL     1      -3.312  -0.016  24.681  0.00  0.00    -0.267 N 
ATOM     14  C   UNL     1      -2.861  -0.677  24.477  0.00  0.00    +0.269 C 
ATOM     15  O   UNL     1      -2.079  -0.583  24.229  0.00  0.00    -0.268 OA
ENDROOT
BRANCH  14  16
ATOM     16  C   UNL     1      -3.191  -1.432  24.522  0.00  0.00    +0.154 A 
ATOM     17  C   UNL     1      -3.080  -1.890  25.199  0.00  0.00    +0.123 A 
ATOM     18  N   UNL     1      -3.410  -2.645  25.245  0.00  0.00    -0.239 NA
ATOM     19  C   UNL     1      -3.850  -2.941  24.612  0.00  0.00    +0.120 A 
ATOM     20  C   UNL     1      -3.961  -2.483  23.936  0.00  0.00    +0.120 A 
ATOM     21  N   UNL     1      -3.631  -1.728  23.891  0.00  0.00    -0.236 NA
ENDBRANCH  14  16
BRANCH  10  22
ATOM     22  N   UNL     1      -3.672   2.067  24.974  0.00  0.00    -0.186 NA
ATOM     23  C   UNL     1      -4.286   2.516  24.652  0.00  0.00    +0.344 C 
ATOM     24  O   UNL     1      -4.912   2.142  24.266  0.00  0.00    -0.249 OA
ATOM     25  N   UNL     1      -4.273   3.338  24.718  0.00  0.00    -0.161 NA
BRANCH  25  26
ATOM     26  C   UNL     1      -3.647   3.712  25.104  0.00  0.00    +0.078 A 
ATOM     27  C   UNL     1      -3.605   3.700  25.928  0.00  0.00    +0.017 A 
ATOM     28  C   UNL     1      -2.979   4.074  26.315  0.00  0.00    +0.004 A 
ATOM     29  C   UNL     1      -2.396   4.459  25.877  0.00  0.00    +0.037 A 
ATOM     30  C   UNL     1      -2.438   4.471  25.053  0.00  0.00    +0.140 A 
ATOM     33  C   UNL     1      -3.063   4.097  24.667  0.00  0.00    +0.054 A 
BRANCH  30  31
ATOM     31  O   UNL     1      -1.854   4.856  24.616  0.00  0.00    -0.471 OA
ATOM     32  C   UNL     1      -1.267   5.288  25.002  0.00  0.00    +0.252 C 
ENDBRANCH  30  31
ENDBRANCH  25  26
ENDBRANCH  10  22
BRANCH   9   7
ATOM      6  N   UNL     1      -1.683   0.997  24.977  0.00  0.00    -0.194 NA
ATOM      7  C   UNL     1      -2.308   1.030  24.440  0.00  0.00    +0.262 C 
ATOM      8  O   UNL     1      -2.184   1.326  23.679  0.00  0.00    -0.271 OA
BRANCH   6   5
ATOM      5  C   UNL     1      -0.932   1.259  24.753  0.00  0.00    +0.193 C 
BRANCH   5  34
ATOM     34  C   UNL     1      -0.647   1.096  23.996  0.00  0.00    +0.031 C 
ATOM     35  C   UNL     1      -0.242   0.391  23.852  0.00  0.00    +0.002 C 
ATOM     36  C   UNL     1      -0.766   1.637  23.386  0.00  0.00    +0.002 C 
ENDBRANCH   5  34
BRANCH   5   3
ATOM      3  C   UNL     1      -0.469   1.685  25.286  0.00  0.00    +0.337 C 
ATOM      4  O   UNL     1       0.085   2.229  25.009  0.00  0.00    -0.248 OA
BRANCH   3   2
ATOM      1  C   UNL     1      -0.112   2.006  26.632  0.00  0.00    +0.256 C 
ATOM      2  O   UNL     1      -0.560   1.565  26.098  0.00  0.00    -0.443 OA
ENDBRANCH   3   2
ENDBRANCH   5   3
ENDBRANCH   6   5
ENDBRANCH   9   7
TORSDOF 9
ENDMDL
MODEL 3
REMARK VINA RESULT:      -9.4      1.695      4.082
REMARK  Name = 
REMARK  9 active torsions:
REMARK  status: ('A' for Active; 'I' for Inactive)
REMARK    1  A    between atoms: O_2  and  C_3
REMARK    2  A    between atoms: C_3  and  C_5
REMARK    3  A    between atoms: C_5  and  N_6
REMARK    4  A    between atoms: C_5  and  C_34
REMARK    5  A    between atoms: C_7  and  C_9
REMARK    6  A    between atoms: C_10  and  N_22
REMARK    7  A    between atoms: C_14  and  C_16
REMARK    8  A    between atoms: N_25  and  C_26
REMARK    9  A    between atoms: C_30  and  O_31
REMARK                            x       y       z     vdW  Elec       q    Type
REMARK                         _______ _______ _______ _____ _____    ______ ____
ROOT
ATOM      9  C   UNL     1      -1.533   1.039  23.995  0.00  0.00    +0.174 C 
ATOM     10  C   UNL     1      -1.864   1.716  23.663  0.00  0.00    +0.126 C 
ATOM     11  C   UNL     1      -1.314   2.039  23.140  0.00  0.00    +0.045 C 
ATOM     12  C   UNL     1      -0.641   1.561  23.150  0.00  0.00    +0.096 C 
ATOM     13  N   UNL     1      -0.778   0.942  23.679  0.00  0.00    -0.267 N 
ATOM     14  C   UNL     1      -0.250   0.334  23.859  0.00  0.00    +0.269 C 
ATOM     15  O   UNL     1      -0.464  -0.250  24.402  0.00  0.00    -0.268 OA
ENDROOT
BRANCH  14  16
ATOM     16  C   UNL     1       0.490   0.309  23.497  0.00  0.00    +0.154 A 
ATOM     17  C   UNL     1       1.094   0.807  23.758  0.00  0.00    +0.123 A 
ATOM     18  N   UNL     1       1.835   0.783  23.396  0.00  0.00    -0.239 NA
ATOM     19  C   UNL     1       1.972   0.259  22.773  0.00  0.00    +0.120 A 
ATOM     20  C   UNL     1       1.369  -0.239  22.512  0.00  0.00    +0.120 A 
ATOM     21  N   UNL     1       0.628  -0.215  22.874  0.00  0.00    -0.236 NA
ENDBRANCH  14  16
BRANCH  10  22
ATOM     22  N   UNL     1      -2.615   2.019  23.824  0.00  0.00    -0.186 NA
ATOM     23  C   UNL     1      -3.097   2.278  23.206  0.00  0.00    +0.344 C 
ATOM     24  O   UNL     1      -2.830   2.233  22.427  0.00  0.00    -0.249 OA
ATOM     25  N   UNL     1      -3.848   2.580  23.368  0.00  0.00    -0.161 NA
BRANCH  25  26
ATOM     26  C   UNL     1      -4.115   2.625  24.147  0.00  0.00    +0.078 A 
ATOM     27  C   UNL     1      -3.766   3.155  24.674  0.00  0.00    +0.017 A 
ATOM     28  C   UNL     1      -4.034   3.199  25.453  0.00  0.00    +0.004 A 
ATOM     29  C   UNL     1      -4.651   2.714  25.705  0.00  0.00    +0.037 A 
ATOM     30  C   UNL     1      -5.001   2.184  25.179  0.00  0.00    +0.140 A 
ATOM     33  C   UNL     1      -4.733   2.139  24.400  0.00  0.00    +0.054 A 
BRANCH  30  31
ATOM     31  O   UNL     1      -5.618   1.698  25.430  0.00  0.00    -0.471 OA
ATOM     32  C   UNL     1      -6.198   1.997  25.935  0.00  0.00    +0.252 C 
ENDBRANCH  30  31
ENDBRANCH  25  26
ENDBRANCH  10  22
BRANCH   9   7
ATOM      6  N   UNL     1      -2.244  -0.162  24.303  0.00  0.00    -0.194 NA
ATOM      7  C   UNL     1      -1.894   0.543  24.548  0.00  0.00    +0.262 C 
ATOM      8  O   UNL     1      -1.905   0.754  25.346  0.00  0.00    -0.271 OA
BRANCH   6   5
ATOM      5  C   UNL     1      -2.606  -0.657  24.856  0.00  0.00    +0.193 C 
BRANCH   5  34
ATOM     34  C   UNL     1      -2.181  -0.923  25.511  0.00  0.00    +0.031 C 
ATOM     35  C   UNL     1      -1.674  -1.570  25.439  0.00  0.00    +0.002 C 
ATOM     36  C   UNL     1      -2.263  -0.542  26.238  0.00  0.00    +0.002 C 
ENDBRANCH   5  34
BRANCH   5   3
ATOM      3  C   UNL     1      -3.391  -0.886  24.752  0.00  0.00    +0.337 C 
ATOM      4  O   UNL     1      -3.912  -0.875  25.392  0.00  0.00    -0.248 OA
BRANCH   3   2
ATOM      1  C   UNL     1      -4.408  -1.455  23.925  0.00  0.00    +0.256 C 
ATOM      2  O   UNL     1      -3.656  -1.125  24.008  0.00  0.00    -0.443 OA
ENDBRANCH   3   2
ENDBRANCH   5   3
ENDBRANCH   6   5
ENDBRANCH   9   7
TORSDOF 9
ENDMDL
MODEL 4
REMARK VINA RESULT:      -8.9      1.342      5.378
REMARK  Name = 
REMARK  9 active torsions:
REMARK  status: ('A' for Active; 'I' for Inactive)
REMARK    1  A    between atoms: O_2  and  C_3
REMARK    2  A    between atoms: C_3  and  C_5
REMARK    3  A    between atoms: C_5  and  N_6
REMARK    4  A    between atoms: C_5  and  C_34
REMARK    5  A    between atoms: C_7  and  C_9
REMARK    6  A    between atoms: C_10  and  N_22
REMARK    7  A    between atoms: C_14  and  C_16
REMARK    8  A    between atoms: N_25  and  C_26
REMARK    9  A    between atoms: C_30  and  O_31
REMARK                            x       y       z     vdW  Elec       q    Type
REMARK                         _______ _______ _______ _____ _____    ______ ____
ROOT
ATOM      9  C   UNL     1      -2.230   1.581  24.599  0.00  0.00    +0.174 C 
ATOM     10  C   UNL     1      -3.044   1.533  24.727  0.00  0.00    +0.126 C 
ATOM     11  C   UNL     1      -3.322   2.293  24.885  0.00  0.00    +0.045 C 
ATOM     12  C   UNL     1      -2.681   2.811  24.854  0.00  0.00    +0.096 C 
ATOM     13  N   UNL     1      -2.006   2.371  24.678  0.00  0.00    -0.267 N 
ATOM     14  C   UNL     1      -1.241   2.668  24.595  0.00  0.00    +0.269 C 
ATOM     15  O   UNL     1      -0.617   2.158  24.417  0.00  0.00    -0.268 OA
ENDROOT
BRANCH  14  16
ATOM     16  C   UNL     1      -1.100   3.475  24.690  0.00  0.00    +0.154 A 
ATOM     17  C   UNL     1      -1.129   3.813  25.443  0.00  0.00    +0.123 A 
ATOM     18  N   UNL     1      -0.987   4.620  25.539  0.00  0.00    -0.239 NA
ATOM     19  C   UNL     1      -0.816   5.090  24.881  0.00  0.00    +0.120 A 
ATOM     20  C   UNL     1      -0.787   4.752  24.130  0.00  0.00    +0.120 A 
ATOM     21  N   UNL     1      -0.929   3.945  24.034  0.00  0.00    -0.236 NA
ENDBRANCH  14  16
BRANCH  10  22
ATOM     22  N   UNL     1      -3.499   0.845  24.701  0.00  0.00    -0.186 NA
ATOM     23  C   UNL     1      -4.259   0.841  25.023  0.00  0.00    +0.344 C 
ATOM     24  O   UNL     1      -4.563   1.524  25.371  0.00  0.00    -0.249 OA
ATOM     25  N   UNL     1      -4.714   0.153  24.997  0.00  0.00    -0.161 NA
BRANCH  25  26
ATOM     26  C   UNL     1      -4.409  -0.530  24.650  0.00  0.00    +0.078 A 
ATOM     27  C   UNL     1      -4.371  -0.594  23.828  0.00  0.00    +0.017 A 
ATOM     28  C   UNL     1      -4.066  -1.277  23.480  0.00  0.00    +0.004 A 
ATOM     29  C   UNL     1      -3.801  -1.897  23.954  0.00  0.00    +0.037 A 
ATOM     30  C   UNL     1      -3.839  -1.835  24.776  0.00  0.00    +0.140 A 
ATOM     33  C   UNL     1      -4.143  -1.151  25.124  0.00  0.00    +0.054 A 
BRANCH  30  31
ATOM     31  O   UNL     1      -3.573  -2.455  25.250  0.00  0.00    -0.471 OA
ATOM     32  C   UNL     1      -3.385  -3.182  24.910  0.00  0.00    +0.252 C 
ENDBRANCH  30  31
ENDBRANCH  25  26
ENDBRANCH  10  22
BRANCH   9   7
ATOM      6  N   UNL     1      -1.285   0.597  25.022  0.00  0.00    -0.194 NA
ATOM      7  C   UNL     1      -1.729   0.949  24.423  0.00  0.00    +0.262 C 
ATOM      8  O   UNL     1      -1.672   0.671  23.649  0.00  0.00    -0.271 OA
BRANCH   6   5
ATOM      5  C   UNL     1      -0.783  -0.035  24.846  0.00  0.00    +0.193 C 
BRANCH   5  34
ATOM     34  C   UNL     1      -0.683  -0.646  25.391  0.00  0.00    +0.031 C 
ATOM     35  C   UNL     1      -0.447  -1.393  25.133  0.00  0.00    +0.002 C 
ATOM     36  C   UNL     1      -0.817  -0.510  26.193  0.00  0.00    +0.002 C 
ENDBRANCH   5  34
BRANCH   5   3
ATOM      3  C   UNL     1      -0.382  -0.054  24.126  0.00  0.00    +0.337 C 
ATOM      4  O   UNL     1      -0.723  -0.427  23.474  0.00  0.00    -0.248 OA
BRANCH   3   2
ATOM      1  C   UNL     1       0.861   0.092  23.436  0.00  0.00    +0.256 C 
ATOM      2  O   UNL     1       0.360   0.301  24.057  0.00  0.00    -0.443 OA
ENDBRANCH   3   2
ENDBRANCH   5   3
ENDBRANCH   6   5
ENDBRANCH   9   7
TORSDOF 9
ENDMDL
