MODEL 1
REMARK VINA RESULT:     -13.9      0.000      0.000
REMARK  Name = 
REMARK  5 active torsions:
REMARK  status: ('A' for Active; 'I' for Inactive)
REMARK    1  A    between atoms: C_5  and  C_6
REMARK    2  A    between atoms: C_6  and  N_7
REMARK    3  A    between atoms: C_10  and  C_12
REMARK    4  A    between atoms: C_15  and  C_16
REMARK    5  A    between atoms: C_16  and  C_17
REMARK                            x       y       z     vdW  Elec       q    Type
REMARK                         _______ _______ _______ _____ _____    ______ ____
ROOT
ATOM     12  C   UNL     1      -4.556   1.940  25.090  0.00  0.00    +0.227 A 
ATOM     13  N   UNL     1      -5.296   1.625  25.274  0.00  0.00    -0.112 NA
ATOM     14  N   UNL     1      -5.319   0.848  24.999  0.00  0.00    -0.111 NA
ATOM     15  C   UNL     1      -4.593   0.681  24.645  0.00  0.00    +0.231 A 
ATOM     26  O   UNL     1      -4.122   1.357  24.701  0.00  0.00    -0.423 OA
ENDROOT
BRANCH  12  10
ATOM      7  N   UNL     1      -3.572   3.721  25.736  0.00  0.00    -0.268 NA
ATOM      8  C   UNL     1      -4.219   4.034  25.331  0.00  0.00    +0.073 C 
ATOM      9  C   UNL     1      -4.666   3.405  25.040  0.00  0.00    +0.028 C 
ATOM     10  C   UNL     1      -4.296   2.703  25.264  0.00  0.00    +0.096 C 
ATOM     11  C   UNL     1      -3.620   2.898  25.695  0.00  0.00    +0.082 C 
BRANCH   7   6
ATOM      6  C   UNL     1      -2.982   4.154  26.116  0.00  0.00    +0.099 C 
BRANCH   6   5
ATOM      1 CL   UNL     1      -0.153   4.811  24.549  0.00  0.00    -0.082 Cl
ATOM      2  C   UNL     1      -0.860   4.646  24.940  0.00  0.00    +0.058 A 
ATOM      3  C   UNL     1      -1.459   5.212  24.963  0.00  0.00    +0.011 A 
ATOM      4  C   UNL     1      -2.166   5.048  25.355  0.00  0.00    -0.002 A 
ATOM      5  C   UNL     1      -2.274   4.318  25.724  0.00  0.00    -0.006 A 
ATOM     27  C   UNL     1      -1.674   3.752  25.701  0.00  0.00    -0.002 A 
ATOM     28  C   UNL     1      -0.967   3.916  25.309  0.00  0.00    +0.011 A 
ENDBRANCH   6   5
ENDBRANCH   7   6
ENDBRANCH  12  10
BRANCH  15  16
ATOM     16  C   UNL     1      -4.376  -0.034  24.295  0.00  0.00    +0.115 C 
BRANCH  16  17
ATOM     17  C   UNL     1      -4.021  -0.624  24.749  0.00  0.00    +0.008 A 
ATOM     18  C   UNL     1      -3.687  -0.525  25.497  0.00  0.00    +0.095 A 
ATOM     19  N   UNL     1      -3.396  -1.256  25.744  0.00  0.00    -0.244 NA
ATOM     20  C   UNL     1      -3.549  -1.806  25.150  0.00  0.00    +0.081 A 
ATOM     21  C   UNL     1      -3.936  -1.415  24.534  0.00  0.00    +0.016 A 
ATOM     22  C   UNL     1      -4.160  -1.832  23.858  0.00  0.00    +0.001 A 
ATOM     23  C   UNL     1      -3.998  -2.638  23.797  0.00  0.00    +0.000 A 
ATOM     24  C   UNL     1      -3.612  -3.029  24.412  0.00  0.00    +0.002 A 
ATOM     25  C   UNL     1      -3.387  -2.614  25.089  0.00  0.00    +0.019 A 
ENDBRANCH  16  17
ENDBRANCH  15  16
TORSDOF 5
ENDMDL
MODEL 2
REMARK VINA RESULT:     -12.2      2.683      5.737
REMARK  Name = 
REMARK  5 active torsions:
REMARK  status: ('A' for Active; 'I' for Inactive)
REMARK    1  A    between atoms: C_5  and  C_6
REMARK    2  A    between atoms: C_6  and  N_7
REMARK    3  A    between atoms: C_10  and  C_12
REMARK    4  A    between atoms: C_15  and  C_16
REMARK    5  A    between atoms: C_16  and  C_17
REMARK                            x       y       z     vdW  Elec       q    Type
REMARK                         _______ _______ _______ _____ _____    ______ ____
ROOT
ATOM     12  C   UNL     1      -0.622   1.380  24.499  0.00  0.00    +0.227 A 
ATOM     13  N   UNL     1       0.004   1.907  24.602  0.00  0.00    -0.112 NA
ATOM     14  N   UNL     1      -0.297   2.673  24.552  0.00  0.00    -0.111 NA
ATOM     15  C   UNL     1      -1.109   2.621  24.418  0.00  0.00    +0.231 A 
ATOM     26  O   UNL     1      -1.309   1.820  24.385  0.00  0.00    -0.423 OA
ENDROOT
BRANCH  12  10
ATOM      7  N   UNL     1      -0.749  -0.723  24.845  0.00  0.00    -0.268 NA
ATOM      8  C   UNL     1      -0.228  -0.697  24.205  0.00  0.00    +0.073 C 
ATOM      9  C   UNL     1      -0.118   0.093  23.998  0.00  0.00    +0.028 C 
ATOM     10  C   UNL     1      -0.569   0.556  24.509  0.00  0.00    +0.096 C 
ATOM     11  C   UNL     1      -0.959   0.052  25.033  0.00  0.00    +0.082 C 
BRANCH   7   6
ATOM      6  C   UNL     1      -1.012  -1.404  25.229  0.00  0.00    +0.099 C 
BRANCH   6   5
ATOM      1 CL   UNL     1      -3.884  -2.779  24.364  0.00  0.00    -0.082 Cl
ATOM      2  C   UNL     1      -3.166  -2.436  24.580  0.00  0.00    +0.058 A 
ATOM      3  C   UNL     1      -2.463  -2.702  24.242  0.00  0.00    +0.011 A 
ATOM      4  C   UNL     1      -1.745  -2.358  24.458  0.00  0.00    -0.002 A 
ATOM      5  C   UNL     1      -1.730  -1.748  25.012  0.00  0.00    -0.006 A 
ATOM     27  C   UNL     1      -2.434  -1.481  25.351  0.00  0.00    -0.002 A 
ATOM     28  C   UNL     1      -3.152  -1.825  25.135  0.00  0.00    +0.011 A 
ENDBRANCH   6   5
ENDBRANCH   7   6
ENDBRANCH  12  10
BRANCH  15  16
ATOM     16  C   UNL     1      -1.629   3.255  24.331  0.00  0.00    +0.115 C 
BRANCH  16  17
ATOM     17  C   UNL     1      -2.106   3.487  24.962  0.00  0.00    +0.008 A 
ATOM     18  C   UNL     1      -1.844   3.709  25.713  0.00  0.00    +0.095 A 
ATOM     19  N   UNL     1      -2.505   3.897  26.169  0.00  0.00    -0.244 NA
ATOM     20  C   UNL     1      -3.175   3.791  25.701  0.00  0.00    +0.081 A 
ATOM     21  C   UNL     1      -2.929   3.538  24.955  0.00  0.00    +0.016 A 
ATOM     22  C   UNL     1      -3.487   3.386  24.367  0.00  0.00    +0.001 A 
ATOM     23  C   UNL     1      -4.290   3.487  24.523  0.00  0.00    +0.000 A 
ATOM     24  C   UNL     1      -4.536   3.741  25.268  0.00  0.00    +0.002 A 
ATOM     25  C   UNL     1      -3.980   3.892  25.857  0.00  0.00    +0.019 A 
ENDBRANCH  16  17
ENDBRANCH  15  16
TORSDOF 5
ENDMDL
MODEL 3
REMARK VINA RESULT:     -12.2      1.651      5.106
REMARK  Name = 
REMARK  5 active torsions:
REMARK  status: ('A' for Active; 'I' for Inactive)
REMARK    1  A    between atoms: C_5  and  C_6
REMARK    2  A    between atoms: C_6  and  N_7
REMARK    3  A    between atoms: C_10  and  C_12
REMARK    4  A    between atoms: C_15  and  C_16
REMARK    5  A    between atoms: C_16  and  C_17
REMARK                            x       y       z     vdW  Elec       q    Type
REMARK                         _______ _______ _______ _____ _____    ______ ____
ROOT
ATOM     12  C   UNL     1      -4.525   1.033  24.670  0.00  0.00    +0.227 A 
ATOM     13  N   UNL     1      -5.269   1.357  24.817  0.00  0.00    -0.112 NA
ATOM     14  N   UNL     1      -5.208   2.176  24.752  0.00  0.00    -0.111 NA
ATOM     15  C   UNL     1      -4.427   2.360  24.564  0.00  0.00    +0.231 A 
ATOM     26  O   UNL     1      -4.004   1.653  24.514  0.00  0.00    -0.423 OA
ENDROOT
BRANCH  12  10
ATOM      7  N   UNL     1      -3.804  -0.946  25.023  0.00  0.00    -0.268 NA
ATOM      8  C   UNL     1      -4.281  -1.065  24.361  0.00  0.00    +0.073 C 
ATOM      9  C   UNL     1      -4.609  -0.339  24.148  0.00  0.00    +0.028 C 
ATOM     10  C   UNL     1      -4.335   0.230  24.678  0.00  0.00    +0.096 C 
ATOM     11  C   UNL     1      -3.838  -0.145  25.219  0.00  0.00    +0.082 C 
BRANCH   7   6
ATOM      6  C   UNL     1      -3.370  -1.524  25.419  0.00  0.00    +0.099 C 
BRANCH   6   5
ATOM      1 CL   UNL     1      -0.101  -1.705  25.008  0.00  0.00    -0.082 Cl
ATOM      2  C   UNL     1      -0.918  -1.660  25.111  0.00  0.00    +0.058 A 
ATOM      3  C   UNL     1      -1.236  -1.137  25.663  0.00  0.00    +0.011 A 
ATOM      4  C   UNL     1      -2.053  -1.091  25.766  0.00  0.00    -0.002 A 
ATOM      5  C   UNL     1      -2.553  -1.569  25.316  0.00  0.00    -0.006 A 
ATOM     27  C   UNL     1      -2.234  -2.094  24.763  0.00  0.00    -0.002 A 
ATOM     28  C   UNL     1      -1.417  -2.139  24.660  0.00  0.00    +0.011 A 
ENDBRANCH   6   5
ENDBRANCH   7   6
ENDBRANCH  12  10
BRANCH  15  16
ATOM     16  C   UNL     1      -4.120   3.118  24.448  0.00  0.00    +0.115 C 
BRANCH  16  17
ATOM     17  C   UNL     1      -3.735   3.507  25.064  0.00  0.00    +0.008 A 
ATOM     18  C   UNL     1      -4.047   3.655  25.814  0.00  0.00    +0.095 A 
ATOM     19  N   UNL     1      -3.476   4.056  26.253  0.00  0.00    -0.244 NA
ATOM     20  C   UNL     1      -2.811   4.155  25.775  0.00  0.00    +0.081 A 
ATOM     21  C   UNL     1      -2.971   3.816  25.041  0.00  0.00    +0.016 A 
ATOM     22  C   UNL     1      -2.400   3.832  24.446  0.00  0.00    +0.001 A 
ATOM     23  C   UNL     1      -1.669   4.188  24.584  0.00  0.00    +0.000 A 
ATOM     24  C   UNL     1      -1.509   4.527  25.319  0.00  0.00    +0.002 A 
ATOM     25  C   UNL     1      -2.079   4.511  25.915  0.00  0.00    +0.019 A 
ENDBRANCH  16  17
ENDBRANCH  15  16
TORSDOF 5
ENDMDL
MODEL 4
REMARK VINA RESULT:     -12.2      1.878      2.855
REMARK  Name = 
REMARK  5 active torsions:
REMARK  status: ('A' for Active; 'I' for Inactive)
REMARK    1  A    between atoms: C_5  and  C_6
REMARK    2  A    between atoms: C_6  and  N_7
REMARK    3  A    between atoms: C_10  and  C_12
REMARK    4  A    between atoms: C_15  and  C_16
REMARK    5  A    between atoms: C_16  and  C_17
REMARK                            x       y       z     vdW  Elec       q    Type
REMARK                         _______ _______ _______ _____ _____    ______ ____
ROOT
ATOM     12  C   UNL     1      -0.750   0.294  24.936  0.00  0.00    +0.227 A 
ATOM     13  N   UNL     1      -0.378  -0.389  24.662  0.00  0.00    -0.112 NA
ATOM     14  N   UNL     1      -0.891  -1.024  24.780  0.00  0.00    -0.111 NA
ATOM     15  C   UNL     1      -1.580  -0.734  25.128  0.00  0.00    +0.231 A 
ATOM     26  O   UNL     1      -1.493   0.081  25.224  0.00  0.00    -0.423 OA
ENDROOT
BRANCH  12  10
ATOM      7  N   UNL     1      -0.133   2.311  25.267  0.00  0.00    -0.268 NA
ATOM      8  C   UNL     1       0.234   2.148  24.546  0.00  0.00    +0.073 C 
ATOM      9  C   UNL     1       0.047   1.372  24.334  0.00  0.00    +0.028 C 
ATOM     10  C   UNL     1      -0.435   1.056  24.924  0.00  0.00    +0.096 C 
ATOM     11  C   UNL     1      -0.546   1.636  25.500  0.00  0.00    +0.082 C 
BRANCH   7   6
ATOM      6  C   UNL     1      -0.093   3.023  25.681  0.00  0.00    +0.099 C 
BRANCH   6   5
ATOM      1 CL   UNL     1      -2.291   5.408  25.073  0.00  0.00    -0.082 Cl
ATOM      2  C   UNL     1      -1.742   4.812  25.225  0.00  0.00    +0.058 A 
ATOM      3  C   UNL     1      -0.994   4.844  24.881  0.00  0.00    +0.011 A 
ATOM      4  C   UNL     1      -0.444   4.247  25.033  0.00  0.00    -0.002 A 
ATOM      5  C   UNL     1      -0.643   3.619  25.529  0.00  0.00    -0.006 A 
ATOM     27  C   UNL     1      -1.393   3.588  25.874  0.00  0.00    -0.002 A 
ATOM     28  C   UNL     1      -1.942   4.184  25.722  0.00  0.00    +0.011 A 
ENDBRANCH   6   5
ENDBRANCH   7   6
ENDBRANCH  12  10
BRANCH  15  16
ATOM     16  C   UNL     1      -2.241  -1.180  25.342  0.00  0.00    +0.115 C 
BRANCH  16  17
ATOM     17  C   UNL     1      -2.925  -1.151  24.883  0.00  0.00    +0.008 A 
ATOM     18  C   UNL     1      -3.322  -0.467  24.647  0.00  0.00    +0.095 A 
ATOM     19  N   UNL     1      -3.975  -0.694  24.197  0.00  0.00    -0.244 NA
ATOM     20  C   UNL     1      -3.982  -1.517  24.156  0.00  0.00    +0.081 A 
ATOM     21  C   UNL     1      -3.333  -1.800  24.580  0.00  0.00    +0.016 A 
ATOM     22  C   UNL     1      -3.198  -2.612  24.634  0.00  0.00    +0.001 A 
ATOM     23  C   UNL     1      -3.711  -3.141  24.265  0.00  0.00    +0.000 A 
ATOM     24  C   UNL     1      -4.360  -2.859  23.841  0.00  0.00    +0.002 A 
ATOM     25  C   UNL     1      -4.496  -2.047  23.786  0.00  0.00    +0.019 A 
ENDBRANCH  16  17
ENDBRANCH  15  16
TORSDOF 5
ENDMDL
MODEL 5
REMARK VINA RESULT:     -12.1      2.135      3.112
REMARK  Name = 
REMARK  5 active torsions:
REMARK  status: ('A' for Active; 'I' for Inactive)
REMARK    1  A    between atoms: C_5  and  C_6
REMARK    2  A    between atoms: C_6  and  N_7
REMARK    3  A    between atoms: C_10  and  C_12
REMARK    4  A    between atoms: C_15  and  C_16
REMARK    5  A    between atoms: C_16  and  C_17
REMARK                            x       y       z     vdW  Elec       q    Type
REMARK                         _______ _______ _______ _____ _____    ______ ____
ROOT
ATOM     12  C   UNL     1      -1.160   1.345  25.267  0.00  0.00    +0.227 A 
ATOM     13  N   UNL     1      -0.429   1.069  25.004  0.00  0.00    -0.112 NA
ATOM     14  N   UNL     1      -0.398   0.257  25.140  0.00  0.00    -0.111 NA
ATOM     15  C   UNL     1      -1.110   0.029  25.488  0.00  0.00    +0.231 A 
ATOM     26  O   UNL     1      -1.581   0.702  25.566  0.00  0.00    -0.423 OA
ENDROOT
BRANCH  12  10
ATOM      7  N   UNL     1      -2.166   3.207  24.981  0.00  0.00    -0.268 NA
ATOM      8  C   UNL     1      -1.496   3.449  25.397  0.00  0.00    +0.073 C 
ATOM      9  C   UNL     1      -1.038   2.781  25.555  0.00  0.00    +0.028 C 
ATOM     10  C   UNL     1      -1.424   2.126  25.237  0.00  0.00    +0.096 C 
ATOM     11  C   UNL     1      -2.121   2.388  24.882  0.00  0.00    +0.082 C 
BRANCH   7   6
ATOM      6  C   UNL     1      -2.773   3.695  24.711  0.00  0.00    +0.099 C 
BRANCH   6   5
ATOM      1 CL   UNL     1      -5.887   3.123  25.641  0.00  0.00    -0.082 Cl
ATOM      2  C   UNL     1      -5.108   3.266  25.408  0.00  0.00    +0.058 A 
ATOM      3  C   UNL     1      -4.835   2.981  24.685  0.00  0.00    +0.011 A 
ATOM      4  C   UNL     1      -4.057   3.124  24.452  0.00  0.00    -0.002 A 
ATOM      5  C   UNL     1      -3.551   3.552  24.944  0.00  0.00    -0.006 A 
ATOM     27  C   UNL     1      -3.825   3.837  25.668  0.00  0.00    -0.002 A 
ATOM     28  C   UNL     1      -4.603   3.694  25.901  0.00  0.00    +0.011 A 
ENDBRANCH   6   5
ENDBRANCH   7   6
ENDBRANCH  12  10
BRANCH  15  16
ATOM     16  C   UNL     1      -1.316  -0.737  25.717  0.00  0.00    +0.115 C 
BRANCH  16  17
ATOM     17  C   UNL     1      -1.541  -1.291  25.149  0.00  0.00    +0.008 A 
ATOM     18  C   UNL     1      -1.076  -1.560  24.523  0.00  0.00    +0.095 A 
ATOM     19  N   UNL     1      -1.518  -2.109  24.095  0.00  0.00    -0.244 NA
ATOM     20  C   UNL     1      -2.256  -2.179  24.456  0.00  0.00    +0.081 A 
ATOM     21  C   UNL     1      -2.270  -1.674  25.108  0.00  0.00    +0.016 A 
ATOM     22  C   UNL     1      -2.946  -1.628  25.579  0.00  0.00    +0.001 A 
ATOM     23  C   UNL     1      -3.607  -2.087  25.400  0.00  0.00    +0.000 A 
ATOM     24  C   UNL     1      -3.593  -2.592  24.748  0.00  0.00    +0.002 A 
ATOM     25  C   UNL     1      -2.918  -2.639  24.276  0.00  0.00    +0.019 A 
ENDBRANCH  16  17
ENDBRANCH  15  16
TORSDOF 5
ENDMDL
