MODEL 1
REMARK VINA RESULT:     -10.6      0.000      0.000
REMARK  Name = 
REMARK  9 active torsions:
REMARK  status: ('A' for Active; 'I' for Inactive)
REMARK    1  A    between atoms: O_2  and  C_3
REMARK    2  A    between atoms: C_3  and  C_4
REMARK    3  A    between atoms: C_6  and  C_7
REMARK    4  A    between atoms: C_7  and  C_8
REMARK    5  A    between atoms: C_13  and  C_14
REMARK    6  A    between atoms: C_14  and  N_15
REMARK    7  A    between atoms: C_16  and  C_18
REMARK    8  A    between atoms: C_18  and  O_19
REMARK    9  A    between atoms: O_19  and  C_20
REMARK                            x       y       z     vdW  Elec       q    Type
REMARK                         _______ _______ _______ _____ _____    ______ ____
ROOT
ATOM      8  C   UNL     1      -1.822   3.187  25.054  0.00  0.00    +0.121 C 
ATOM      9  C   UNL     1      -1.249   3.697  25.359  0.00  0.00    +0.033 C 
ATOM     10  C   UNL     1      -0.582   3.389  25.735  0.00  0.00    +0.038 C 
ATOM     11  C   UNL     1      -0.488   2.572  25.806  0.00  0.00    +0.181 C 
ATOM     12  O   UNL     1       0.178   2.265  26.182  0.00  0.00    -0.220 OA
ATOM     13  C   UNL     1      -1.061   2.064  25.500  0.00  0.00    +0.167 C 
ATOM     26  O   UNL     1      -1.728   2.371  25.124  0.00  0.00    -0.354 OA
ENDROOT
BRANCH   8   7
ATOM      7  C   UNL     1      -2.489   3.495  24.677  0.00  0.00    +0.079 C 
BRANCH   7   6
ATOM      4  C   UNL     1      -4.500   3.159  25.314  0.00  0.00    +0.184 A 
ATOM      5  C   UNL     1      -3.887   3.047  24.772  0.00  0.00    +0.056 A 
ATOM      6  C   UNL     1      -3.226   3.456  25.048  0.00  0.00    +0.103 A 
ATOM     27  N   UNL     1      -3.429   3.821  25.758  0.00  0.00    -0.082 NA
ATOM     28  O   UNL     1      -4.217   3.637  25.923  0.00  0.00    -0.356 OA
BRANCH   4   3
ATOM      3  C   UNL     1      -5.261   2.847  25.255  0.00  0.00    +0.209 C 
BRANCH   3   2
ATOM      1  C   UNL     1      -6.157   1.741  25.380  0.00  0.00    +0.175 C 
ATOM      2  O   UNL     1      -5.399   2.058  25.455  0.00  0.00    -0.343 OA
ENDBRANCH   3   2
ENDBRANCH   4   3
ENDBRANCH   7   6
ENDBRANCH   8   7
BRANCH  13  14
ATOM     14  C   UNL     1      -0.966   1.247  25.571  0.00  0.00    +0.147 C 
BRANCH  14  15
ATOM     15  N   UNL     1      -1.458   0.737  25.148  0.00  0.00    -0.200 NA
ATOM     16  C   UNL     1      -1.494  -0.062  25.349  0.00  0.00    +0.286 C 
ATOM     17  O   UNL     1      -1.038  -0.351  25.972  0.00  0.00    -0.269 OA
BRANCH  16  18
ATOM     18  C   UNL     1      -1.986  -0.572  24.926  0.00  0.00    +0.291 C 
BRANCH  18  19
ATOM     19  O   UNL     1      -2.676  -0.861  25.273  0.00  0.00    -0.466 OA
BRANCH  19  20
ATOM     20  C   UNL     1      -3.183  -1.347  24.839  0.00  0.00    +0.139 A 
ATOM     21  C   UNL     1      -3.763  -1.011  24.358  0.00  0.00    +0.037 A 
ATOM     22  C   UNL     1      -4.271  -1.497  23.925  0.00  0.00    +0.003 A 
ATOM     23  C   UNL     1      -4.198  -2.318  23.973  0.00  0.00    +0.000 A 
ATOM     24  C   UNL     1      -3.617  -2.652  24.454  0.00  0.00    +0.003 A 
ATOM     25  C   UNL     1      -3.110  -2.167  24.887  0.00  0.00    +0.037 A 
ENDBRANCH  19  20
ENDBRANCH  18  19
ENDBRANCH  16  18
ENDBRANCH  14  15
ENDBRANCH  13  14
TORSDOF 9
ENDMDL
MODEL 2
REMARK VINA RESULT:     -10.4      1.257      3.240
REMARK  Name = 
REMARK  9 active torsions:
REMARK  status: ('A' for Active; 'I' for Inactive)
REMARK    1  A    between atoms: O_2  and  C_3
REMARK    2  A    between atoms: C_3  and  C_4
REMARK    3  A    between atoms: C_6  and  C_7
REMARK    4  A    between atoms: C_7  and  C_8
REMARK    5  A    between atoms: C_13  and  C_14
REMARK    6  A    between atoms: C_14  and  N_15
REMARK    7  A    between atoms: C_16  and  C_18
REMARK    8  A    between atoms: C_18  and  O_19
REMARK    9  A    between atoms: O_19  and  C_20
REMARK                            x       y       z     vdW  Elec       q    Type
REMARK                         _______ _______ _______ _____ _____    ______ ____
ROOT
ATOM      8  C   UNL     1      -1.898   3.667  25.056  0.00  0.00    +0.121 C 
ATOM      9  C   UNL     1      -2.046   4.259  25.611  0.00  0.00    +0.033 C 
ATOM     10  C   UNL     1      -2.788   4.313  25.968  0.00  0.00    +0.038 C 
ATOM     11  C   UNL     1      -3.381   3.773  25.771  0.00  0.00    +0.181 C 
ATOM     12  O   UNL     1      -4.122   3.827  26.128  0.00  0.00    -0.220 OA
ATOM     13  C   UNL     1      -3.231   3.181  25.216  0.00  0.00    +0.167 C 
ATOM     26  O   UNL     1      -2.490   3.128  24.859  0.00  0.00    -0.354 OA
ENDROOT
BRANCH   8   7
ATOM      7  C   UNL     1      -1.155   3.613  24.699  0.00  0.00    +0.079 C 
BRANCH   7   6
ATOM      4  C   UNL     1      -0.057   1.782  24.655  0.00  0.00    +0.184 A 
ATOM      5  C   UNL     1      -0.571   2.323  24.301  0.00  0.00    +0.056 A 
ATOM      6  C   UNL     1      -0.683   2.949  24.828  0.00  0.00    +0.103 A 
ATOM     27  N   UNL     1      -0.239   2.794  25.505  0.00  0.00    -0.082 NA
ATOM     28  O   UNL     1       0.147   2.073  25.399  0.00  0.00    -0.356 OA
BRANCH   4   3
ATOM      3  C   UNL     1       0.204   1.074  24.322  0.00  0.00    +0.209 C 
BRANCH   3   2
ATOM      1  C   UNL     1      -0.040  -0.286  23.957  0.00  0.00    +0.175 C 
ATOM      2  O   UNL     1      -0.307   0.428  24.274  0.00  0.00    -0.343 OA
ENDBRANCH   3   2
ENDBRANCH   4   3
ENDBRANCH   7   6
ENDBRANCH   8   7
BRANCH  13  14
ATOM     14  C   UNL     1      -3.825   2.643  25.020  0.00  0.00    +0.147 C 
BRANCH  14  15
ATOM     15  N   UNL     1      -3.628   1.863  24.833  0.00  0.00    -0.200 NA
ATOM     16  C   UNL     1      -4.221   1.324  24.639  0.00  0.00    +0.286 C 
ATOM     17  O   UNL     1      -5.010   1.563  24.631  0.00  0.00    -0.269 OA
BRANCH  16  18
ATOM     18  C   UNL     1      -4.024   0.544  24.452  0.00  0.00    +0.291 C 
BRANCH  18  19
ATOM     19  O   UNL     1      -4.352  -0.078  24.883  0.00  0.00    -0.466 OA
BRANCH  19  20
ATOM     20  C   UNL     1      -4.083  -0.849  24.763  0.00  0.00    +0.139 A 
ATOM     21  C   UNL     1      -3.616  -1.216  25.336  0.00  0.00    +0.037 A 
ATOM     22  C   UNL     1      -3.347  -1.987  25.216  0.00  0.00    +0.003 A 
ATOM     23  C   UNL     1      -3.545  -2.391  24.524  0.00  0.00    +0.000 A 
ATOM     24  C   UNL     1      -4.013  -2.023  23.952  0.00  0.00    +0.003 A 
ATOM     25  C   UNL     1      -4.282  -1.253  24.072  0.00  0.00    +0.037 A 
ENDBRANCH  19  20
ENDBRANCH  18  19
ENDBRANCH  16  18
ENDBRANCH  14  15
ENDBRANCH  13  14
TORSDOF 9
ENDMDL
MODEL 3
REMARK VINA RESULT:     -10.1      1.349      4.256
REMARK  Name = 
REMARK  9 active torsions:
REMARK  status: ('A' for Active; 'I' for Inactive)
REMARK    1  A    between atoms: O_2  and  C_3
REMARK    2  A    between atoms: C_3  and  C_4
REMARK    3  A    between atoms: C_6  and  C_7
REMARK    4  A    between atoms: C_7  and  C_8
REMARK    5  A    between atoms: C_13  and  C_14
REMARK    6  A    between atoms: C_14  and  N_15
REMARK    7  A    between atoms: C_16  and  C_18
REMARK    8  A    between atoms: C_18  and  O_19
REMARK    9  A    between atoms: O_19  and  C_20
REMARK                            x       y       z     vdW  Elec       q    Type
REMARK                         _______ _______ _______ _____ _____    ______ ____
ROOT
ATOM      8  C   UNL     1      -2.690  -0.837  24.474  0.00  0.00    +0.121 C 
ATOM      9  C   UNL     1      -2.537  -1.589  24.777  0.00  0.00    +0.033 C 
ATOM     10  C   UNL     1      -1.785  -1.774  25.060  0.00  0.00    +0.038 C 
ATOM     11  C   UNL     1      -1.185  -1.206  25.040  0.00  0.00    +0.181 C 
ATOM     12  O   UNL     1      -0.433  -1.391  25.323  0.00  0.00    -0.220 OA
ATOM     13  C   UNL     1      -1.339  -0.455  24.737  0.00  0.00    +0.167 C 
ATOM     26  O   UNL     1      -2.091  -0.270  24.454  0.00  0.00    -0.354 OA
ENDROOT
BRANCH   8   7
ATOM      7  C   UNL     1      -3.443  -0.652  24.190  0.00  0.00    +0.079 C 
BRANCH   7   6
ATOM      4  C   UNL     1      -4.657   0.934  24.947  0.00  0.00    +0.184 A 
ATOM      5  C   UNL     1      -4.190   0.606  24.351  0.00  0.00    +0.056 A 
ATOM      6  C   UNL     1      -3.926  -0.132  24.612  0.00  0.00    +0.103 A 
ATOM     27  N   UNL     1      -4.229  -0.258  25.368  0.00  0.00    -0.082 NA
ATOM     28  O   UNL     1      -4.681   0.400  25.575  0.00  0.00    -0.356 OA
BRANCH   4   3
ATOM      3  C   UNL     1      -5.032   1.668  24.918  0.00  0.00    +0.209 C 
BRANCH   3   2
ATOM      1  C   UNL     1      -5.504   2.842  25.583  0.00  0.00    +0.175 C 
ATOM      2  O   UNL     1      -5.090   2.128  25.601  0.00  0.00    -0.343 OA
ENDBRANCH   3   2
ENDBRANCH   4   3
ENDBRANCH   7   6
ENDBRANCH   8   7
BRANCH  13  14
ATOM     14  C   UNL     1      -0.740   0.111  24.717  0.00  0.00    +0.147 C 
BRANCH  14  15
ATOM     15  N   UNL     1      -0.890   0.880  24.978  0.00  0.00    -0.200 NA
ATOM     16  C   UNL     1      -0.400   1.499  24.740  0.00  0.00    +0.286 C 
ATOM     17  O   UNL     1       0.240   1.351  24.243  0.00  0.00    -0.269 OA
BRANCH  16  18
ATOM     18  C   UNL     1      -0.550   2.268  25.002  0.00  0.00    +0.291 C 
BRANCH  18  19
ATOM     19  O   UNL     1      -0.847   2.830  24.476  0.00  0.00    -0.466 OA
BRANCH  19  20
ATOM     20  C   UNL     1      -1.100   3.564  24.758  0.00  0.00    +0.139 A 
ATOM     21  C   UNL     1      -0.628   4.232  24.649  0.00  0.00    +0.037 A 
ATOM     22  C   UNL     1      -0.881   4.966  24.930  0.00  0.00    +0.003 A 
ATOM     23  C   UNL     1      -1.605   5.031  25.320  0.00  0.00    +0.000 A 
ATOM     24  C   UNL     1      -2.076   4.362  25.429  0.00  0.00    +0.003 A 
ATOM     25  C   UNL     1      -1.824   3.629  25.148  0.00  0.00    +0.037 A 
ENDBRANCH  19  20
ENDBRANCH  18  19
ENDBRANCH  16  18
ENDBRANCH  14  15
ENDBRANCH  13  14
TORSDOF 9
ENDMDL
MODEL 4
REMARK VINA RESULT:      -9.8      1.235      3.421
REMARK  Name = 
REMARK  9 active torsions:
REMARK  status: ('A' for Active; 'I' for Inactive)
REMARK    1  A    between atoms: O_2  and  C_3
REMARK    2  A    between atoms: C_3  and  C_4
REMARK    3  A    between atoms: C_6  and  C_7
REMARK    4  A    between atoms: C_7  and  C_8
REMARK    5  A    between atoms: C_13  and  C_14
REMARK    6  A    between atoms: C_14  and  N_15
REMARK    7  A    between atoms: C_16  and  C_18
REMARK    8  A    between atoms: C_18  and  O_19
REMARK    9  A    between atoms: O_19  and  C_20
REMARK                            x       y       z     vdW  Elec       q    Type
REMARK                         _______ _______ _______ _____ _____    ______ ____
ROOT
ATOM      8  C   UNL     1      -4.300   3.206  24.947  0.00  0.00    +0.121 C 
ATOM      9  C   UNL     1      -4.936   3.554  25.341  0.00  0.00    +0.033 C 
ATOM     10  C   UNL     1      -5.568   3.089  25.595  0.00  0.00    +0.038 C 
ATOM     11  C   UNL     1      -5.563   2.275  25.456  0.00  0.00    +0.181 C 
ATOM     12  O   UNL     1      -6.194   1.809  25.710  0.00  0.00    -0.220 OA
ATOM     13  C   UNL     1      -4.926   1.928  25.063  0.00  0.00    +0.167 C 
ATOM     26  O   UNL     1      -4.295   2.394  24.808  0.00  0.00    -0.354 OA
ENDROOT
BRANCH   8   7
ATOM      7  C   UNL     1      -3.667   3.673  24.692  0.00  0.00    +0.079 C 
BRANCH   7   6
ATOM      4  C   UNL     1      -1.719   3.559  25.559  0.00  0.00    +0.184 A 
ATOM      5  C   UNL     1      -2.250   3.379  24.953  0.00  0.00    +0.056 A 
ATOM      6  C   UNL     1      -2.979   3.715  25.145  0.00  0.00    +0.103 A 
ATOM     27  N   UNL     1      -2.898   4.102  25.868  0.00  0.00    -0.082 NA
ATOM     28  O   UNL     1      -2.120   4.006  26.125  0.00  0.00    -0.356 OA
BRANCH   4   3
ATOM      3  C   UNL     1      -0.927   3.331  25.592  0.00  0.00    +0.209 C 
BRANCH   3   2
ATOM      1  C   UNL     1       0.104   2.519  26.159  0.00  0.00    +0.175 C 
ATOM      2  O   UNL     1      -0.684   2.766  26.143  0.00  0.00    -0.343 OA
ENDBRANCH   3   2
ENDBRANCH   4   3
ENDBRANCH   7   6
ENDBRANCH   8   7
BRANCH  13  14
ATOM     14  C   UNL     1      -4.922   1.115  24.924  0.00  0.00    +0.147 C 
BRANCH  14  15
ATOM     15  N   UNL     1      -4.256   0.667  25.119  0.00  0.00    -0.200 NA
ATOM     16  C   UNL     1      -4.165  -0.092  24.808  0.00  0.00    +0.286 C 
ATOM     17  O   UNL     1      -4.738  -0.403  24.304  0.00  0.00    -0.269 OA
BRANCH  16  18
ATOM     18  C   UNL     1      -3.499  -0.539  25.003  0.00  0.00    +0.291 C 
BRANCH  18  19
ATOM     19  O   UNL     1      -2.906  -0.660  24.442  0.00  0.00    -0.466 OA
BRANCH  19  20
ATOM     20  C   UNL     1      -2.200  -1.028  24.661  0.00  0.00    +0.139 A 
ATOM     21  C   UNL     1      -2.145  -1.851  24.655  0.00  0.00    +0.037 A 
ATOM     22  C   UNL     1      -1.439  -2.219  24.874  0.00  0.00    +0.003 A 
ATOM     23  C   UNL     1      -0.789  -1.763  25.100  0.00  0.00    +0.000 A 
ATOM     24  C   UNL     1      -0.845  -0.940  25.105  0.00  0.00    +0.003 A 
ATOM     25  C   UNL     1      -1.550  -0.572  24.887  0.00  0.00    +0.037 A 
ENDBRANCH  19  20
ENDBRANCH  18  19
ENDBRANCH  16  18
ENDBRANCH  14  15
ENDBRANCH  13  14
TORSDOF 9
ENDMDL
MODEL 5
REMARK VINA RESULT:      -9.7      1.628      5.462
REMARK  Name = 
REMARK  9 active torsions:
REMARK  status: ('A' for Active; 'I' for Inactive)
REMARK    1  A    between atoms: O_2  and  C_3
REMARK    2  A    between atoms: C_3  and  C_4
REMARK    3  A    between atoms: C_6  and  C_7
REMARK    4  A    between atoms: C_7  and  C_8
REMARK    5  A    between atoms: C_13  and  C_14
REMARK    6  A    between atoms: C_14  and  N_15
REMARK    7  A    between atoms: C_16  and  C_18
REMARK    8  A    between atoms: C_18  and  O_19
REMARK    9  A    between atoms: O_19  and  C_20
REMARK                            x       y       z     vdW  Elec       q    Type
REMARK                         _______ _______ _______ _____ _____    ______ ____
ROOT
ATOM      8  C   UNL     1      -2.857  -0.702  25.224  0.00  0.00    +0.121 C 
ATOM      9  C   UNL     1      -3.356  -1.277  24.906  0.00  0.00    +0.033 C 
ATOM     10  C   UNL     1      -4.096  -1.062  24.609  0.00  0.00    +0.038 C 
ATOM     11  C   UNL     1      -4.335  -0.272  24.630  0.00  0.00    +0.181 C 
ATOM     12  O   UNL     1      -5.073  -0.057  24.334  0.00  0.00    -0.220 OA
ATOM     13  C   UNL     1      -3.835   0.302  24.948  0.00  0.00    +0.167 C 
ATOM     26  O   UNL     1      -3.095   0.086  25.244  0.00  0.00    -0.354 OA
ENDROOT
BRANCH   8   7
ATOM      7  C   UNL     1      -2.117  -0.918  25.521  0.00  0.00    +0.079 C 
BRANCH   7   6
ATOM      4  C   UNL     1      -0.368  -0.700  24.315  0.00  0.00    +0.184 A 
ATOM      5  C   UNL     1      -0.913  -0.396  24.855  0.00  0.00    +0.056 A 
ATOM      6  C   UNL     1      -1.471  -0.984  25.011  0.00  0.00    +0.103 A 
ATOM     27  N   UNL     1      -1.272  -1.650  24.567  0.00  0.00    -0.082 NA
ATOM     28  O   UNL     1      -0.590  -1.474  24.137  0.00  0.00    -0.356 OA
BRANCH   4   3
ATOM      3  C   UNL     1       0.284  -0.299  24.007  0.00  0.00    +0.209 C 
BRANCH   3   2
ATOM      1  C   UNL     1       1.135   0.012  22.902  0.00  0.00    +0.175 C 
ATOM      2  O   UNL     1       0.457  -0.350  23.202  0.00  0.00    -0.343 OA
ENDBRANCH   3   2
ENDBRANCH   4   3
ENDBRANCH   7   6
ENDBRANCH   8   7
BRANCH  13  14
ATOM     14  C   UNL     1      -4.074   1.091  24.968  0.00  0.00    +0.147 C 
BRANCH  14  15
ATOM     15  N   UNL     1      -3.527   1.691  24.820  0.00  0.00    -0.200 NA
ATOM     16  C   UNL     1      -3.706   2.470  25.024  0.00  0.00    +0.286 C 
ATOM     17  O   UNL     1      -4.430   2.649  25.374  0.00  0.00    -0.269 OA
BRANCH  16  18
ATOM     18  C   UNL     1      -3.159   3.071  24.876  0.00  0.00    +0.291 C 
BRANCH  18  19
ATOM     19  O   UNL     1      -2.660   3.331  25.479  0.00  0.00    -0.466 OA
BRANCH  19  20
ATOM     20  C   UNL     1      -2.045   3.854  25.307  0.00  0.00    +0.139 A 
ATOM     21  C   UNL     1      -2.182   4.667  25.313  0.00  0.00    +0.037 A 
ATOM     22  C   UNL     1      -1.566   5.190  25.142  0.00  0.00    +0.003 A 
ATOM     23  C   UNL     1      -0.815   4.899  24.965  0.00  0.00    +0.000 A 
ATOM     24  C   UNL     1      -0.679   4.086  24.960  0.00  0.00    +0.003 A 
ATOM     25  C   UNL     1      -1.293   3.563  25.131  0.00  0.00    +0.037 A 
ENDBRANCH  19  20
ENDBRANCH  18  19
ENDBRANCH  16  18
ENDBRANCH  14  15
ENDBRANCH  13  14
TORSDOF 9
ENDMDL
MODEL 6
REMARK VINA RESULT:      -9.6      1.551      4.878
REMARK  Name = 
REMARK  9 active torsions:
REMARK  status: ('A' for Active; 'I' for Inactive)
REMARK    1  A    between atoms: O_2  and  C_3
REMARK    2  A    between atoms: C_3  and  C_4
REMARK    3  A    between atoms: C_6  and  C_7
REMARK    4  A    between atoms: C_7  and  C_8
REMARK    5  A    between atoms: C_13  and  C_14
REMARK    6  A    between atoms: C_14  and  N_15
REMARK    7  A    between atoms: C_16  and  C_18
REMARK    8  A    between atoms: C_18  and  O_19
REMARK    9  A    between atoms: O_19  and  C_20
REMARK                            x       y       z     vdW  Elec       q    Type
REMARK                         _______ _______ _______ _____ _____    ______ ____
ROOT
ATOM      8  C   UNL     1      -1.512  -1.441  24.976  0.00  0.00    +0.121 C 
ATOM      9  C   UNL     1      -1.417  -2.222  24.727  0.00  0.00    +0.033 C 
ATOM     10  C   UNL     1      -2.071  -2.655  24.468  0.00  0.00    +0.038 C 
ATOM     11  C   UNL     1      -2.819  -2.306  24.459  0.00  0.00    +0.181 C 
ATOM     12  O   UNL     1      -3.472  -2.738  24.201  0.00  0.00    -0.220 OA
ATOM     13  C   UNL     1      -2.913  -1.526  24.708  0.00  0.00    +0.167 C 
ATOM     26  O   UNL     1      -2.259  -1.093  24.966  0.00  0.00    -0.354 OA
ENDROOT
BRANCH   8   7
ATOM      7  C   UNL     1      -0.858  -1.008  25.234  0.00  0.00    +0.079 C 
BRANCH   7   6
ATOM      4  C   UNL     1      -0.198   0.806  24.323  0.00  0.00    +0.184 A 
ATOM      5  C   UNL     1      -0.559   0.403  24.946  0.00  0.00    +0.056 A 
ATOM      6  C   UNL     1      -0.553  -0.403  24.764  0.00  0.00    +0.103 A 
ATOM     27  N   UNL     1      -0.189  -0.496  24.031  0.00  0.00    -0.082 NA
ATOM     28  O   UNL     1       0.031   0.251  23.758  0.00  0.00    -0.356 OA
BRANCH   4   3
ATOM      3  C   UNL     1      -0.086   1.622  24.275  0.00  0.00    +0.209 C 
BRANCH   3   2
ATOM      1  C   UNL     1      -0.625   2.946  24.260  0.00  0.00    +0.175 C 
ATOM      2  O   UNL     1      -0.738   2.129  24.296  0.00  0.00    -0.343 OA
ENDBRANCH   3   2
ENDBRANCH   4   3
ENDBRANCH   7   6
ENDBRANCH   8   7
BRANCH  13  14
ATOM     14  C   UNL     1      -3.661  -1.178  24.698  0.00  0.00    +0.147 C 
BRANCH  14  15
ATOM     15  N   UNL     1      -3.764  -0.414  24.995  0.00  0.00    -0.200 NA
ATOM     16  C   UNL     1      -4.441   0.015  24.800  0.00  0.00    +0.286 C 
ATOM     17  O   UNL     1      -5.014  -0.318  24.310  0.00  0.00    -0.269 OA
BRANCH  16  18
ATOM     18  C   UNL     1      -4.544   0.779  25.097  0.00  0.00    +0.291 C 
BRANCH  18  19
ATOM     19  O   UNL     1      -4.856   1.369  24.613  0.00  0.00    -0.466 OA
BRANCH  19  20
ATOM     20  C   UNL     1      -4.877   2.151  24.878  0.00  0.00    +0.139 A 
ATOM     21  C   UNL     1      -5.478   2.398  25.386  0.00  0.00    +0.037 A 
ATOM     22  C   UNL     1      -5.499   3.180  25.651  0.00  0.00    +0.003 A 
ATOM     23  C   UNL     1      -4.918   3.713  25.408  0.00  0.00    +0.000 A 
ATOM     24  C   UNL     1      -4.317   3.465  24.900  0.00  0.00    +0.003 A 
ATOM     25  C   UNL     1      -4.296   2.685  24.635  0.00  0.00    +0.037 A 
ENDBRANCH  19  20
ENDBRANCH  18  19
ENDBRANCH  16  18
ENDBRANCH  14  15
ENDBRANCH  13  14
TORSDOF 9
ENDMDL
MODEL 7
REMARK VINA RESULT:      -7.8     16.109     18.578
REMARK  Name = 
REMARK  9 active torsions:
REMARK  status: ('A' for Active; 'I' for Inactive)
REMARK    1  A    between atoms: O_2  and  C_3
REMARK    2  A    between atoms: C_3  and  C_4
REMARK    3  A    between atoms: C_6  and  C_7
REMARK    4  A    between atoms: C_7  and  C_8
REMARK    5  A    between atoms: C_13  and  C_14
REMARK    6  A    between atoms: C_14  and  N_15
REMARK    7  A    between atoms: C_16  and  C_18
REMARK    8  A    between atoms: C_18  and  O_19
REMARK    9  A    between atoms: O_19  and  C_20
REMARK                            x       y       z     vdW  Elec       q    Type
REMARK                         _______ _______ _______ _____ _____    ______ ____
ROOT
ATOM      8  C   UNL     1      11.460   8.447  20.270  0.00  0.00    +0.121 C 
ATOM      9  C   UNL     1      10.763   8.154  20.600  0.00  0.00    +0.033 C 
ATOM     10  C   UNL     1      10.795   7.669  21.266  0.00  0.00    +0.038 C 
ATOM     11  C   UNL     1      11.524   7.476  21.603  0.00  0.00    +0.181 C 
ATOM     12  O   UNL     1      11.555   6.992  22.268  0.00  0.00    -0.220 OA
ATOM     13  C   UNL     1      12.220   7.770  21.272  0.00  0.00    +0.167 C 
ATOM     26  O   UNL     1      12.188   8.256  20.606  0.00  0.00    -0.354 OA
ENDROOT
BRANCH   8   7
ATOM      7  C   UNL     1      11.429   8.933  19.603  0.00  0.00    +0.079 C 
BRANCH   7   6
ATOM      4  C   UNL     1      12.313   8.439  17.723  0.00  0.00    +0.184 A 
ATOM      5  C   UNL     1      12.300   8.883  18.419  0.00  0.00    +0.056 A 
ATOM      6  C   UNL     1      11.651   8.636  18.866  0.00  0.00    +0.103 A 
ATOM     27  N   UNL     1      11.264   8.041  18.447  0.00  0.00    -0.082 NA
ATOM     28  O   UNL     1      11.673   7.918  17.741  0.00  0.00    -0.356 OA
BRANCH   4   3
ATOM      3  C   UNL     1      12.868   8.505  17.117  0.00  0.00    +0.209 C 
BRANCH   3   2
ATOM      1  C   UNL     1      14.053   8.018  16.482  0.00  0.00    +0.175 C 
ATOM      2  O   UNL     1      13.412   7.897  16.989  0.00  0.00    -0.343 OA
ENDBRANCH   3   2
ENDBRANCH   4   3
ENDBRANCH   7   6
ENDBRANCH   8   7
BRANCH  13  14
ATOM     14  C   UNL     1      12.948   7.578  21.609  0.00  0.00    +0.147 C 
BRANCH  14  15
ATOM     15  N   UNL     1      13.523   7.194  21.157  0.00  0.00    -0.200 NA
ATOM     16  C   UNL     1      14.307   7.182  21.413  0.00  0.00    +0.286 C 
ATOM     17  O   UNL     1      14.517   7.551  22.119  0.00  0.00    -0.269 OA
BRANCH  16  18
ATOM     18  C   UNL     1      14.882   6.798  20.961  0.00  0.00    +0.291 C 
BRANCH  18  19
ATOM     19  O   UNL     1      15.455   7.239  20.564  0.00  0.00    -0.466 OA
BRANCH  19  20
ATOM     20  C   UNL     1      16.050   6.854  20.140  0.00  0.00    +0.139 A 
ATOM     21  C   UNL     1      16.803   6.775  20.467  0.00  0.00    +0.037 A 
ATOM     22  C   UNL     1      17.398   6.390  20.043  0.00  0.00    +0.003 A 
ATOM     23  C   UNL     1      17.239   6.086  19.293  0.00  0.00    +0.000 A 
ATOM     24  C   UNL     1      16.485   6.166  18.966  0.00  0.00    +0.003 A 
ATOM     25  C   UNL     1      15.891   6.550  19.389  0.00  0.00    +0.037 A 
ENDBRANCH  19  20
ENDBRANCH  18  19
ENDBRANCH  16  18
ENDBRANCH  14  15
ENDBRANCH  13  14
TORSDOF 9
ENDMDL
MODEL 8
REMARK VINA RESULT:      -7.0     16.044     18.634
REMARK  Name = 
REMARK  9 active torsions:
REMARK  status: ('A' for Active; 'I' for Inactive)
REMARK    1  A    between atoms: O_2  and  C_3
REMARK    2  A    between atoms: C_3  and  C_4
REMARK    3  A    between atoms: C_6  and  C_7
REMARK    4  A    between atoms: C_7  and  C_8
REMARK    5  A    between atoms: C_13  and  C_14
REMARK    6  A    between atoms: C_14  and  N_15
REMARK    7  A    between atoms: C_16  and  C_18
REMARK    8  A    between atoms: C_18  and  O_19
REMARK    9  A    between atoms: O_19  and  C_20
REMARK                            x       y       z     vdW  Elec       q    Type
REMARK                         _______ _______ _______ _____ _____    ______ ____
ROOT
ATOM      8  C   UNL     1      14.126   8.656  17.717  0.00  0.00    +0.121 C 
ATOM      9  C   UNL     1      14.232   8.677  16.899  0.00  0.00    +0.033 C 
ATOM     10  C   UNL     1      13.576   8.701  16.399  0.00  0.00    +0.038 C 
ATOM     11  C   UNL     1      12.814   8.703  16.718  0.00  0.00    +0.181 C 
ATOM     12  O   UNL     1      12.159   8.726  16.218  0.00  0.00    -0.220 OA
ATOM     13  C   UNL     1      12.709   8.681  17.536  0.00  0.00    +0.167 C 
ATOM     26  O   UNL     1      13.365   8.658  18.035  0.00  0.00    -0.354 OA
ENDROOT
BRANCH   8   7
ATOM      7  C   UNL     1      14.783   8.632  18.218  0.00  0.00    +0.079 C 
BRANCH   7   6
ATOM      4  C   UNL     1      15.254   7.050  19.572  0.00  0.00    +0.184 A 
ATOM      5  C   UNL     1      15.054   7.837  19.425  0.00  0.00    +0.056 A 
ATOM      6  C   UNL     1      14.978   7.932  18.609  0.00  0.00    +0.103 A 
ATOM     27  N   UNL     1      15.131   7.205  18.252  0.00  0.00    -0.082 NA
ATOM     28  O   UNL     1      15.302   6.659  18.847  0.00  0.00    -0.356 OA
BRANCH   4   3
ATOM      3  C   UNL     1      15.384   6.714  20.314  0.00  0.00    +0.209 C 
BRANCH   3   2
ATOM      1  C   UNL     1      16.299   6.359  21.353  0.00  0.00    +0.175 C 
ATOM      2  O   UNL     1      16.154   6.551  20.563  0.00  0.00    -0.343 OA
ENDBRANCH   3   2
ENDBRANCH   4   3
ENDBRANCH   7   6
ENDBRANCH   8   7
BRANCH  13  14
ATOM     14  C   UNL     1      11.948   8.683  17.853  0.00  0.00    +0.147 C 
BRANCH  14  15
ATOM     15  N   UNL     1      11.841   8.785  18.665  0.00  0.00    -0.200 NA
ATOM     16  C   UNL     1      11.097   8.662  19.001  0.00  0.00    +0.286 C 
ATOM     17  O   UNL     1      10.462   8.438  18.526  0.00  0.00    -0.269 OA
BRANCH  16  18
ATOM     18  C   UNL     1      10.990   8.764  19.813  0.00  0.00    +0.291 C 
BRANCH  18  19
ATOM     19  O   UNL     1      10.632   8.169  20.259  0.00  0.00    -0.466 OA
BRANCH  19  20
ATOM     20  C   UNL     1      10.642   8.210  21.084  0.00  0.00    +0.139 A 
ATOM     21  C   UNL     1      10.703   8.941  21.459  0.00  0.00    +0.037 A 
ATOM     22  C   UNL     1      10.713   8.982  22.284  0.00  0.00    +0.003 A 
ATOM     23  C   UNL     1      10.662   8.291  22.732  0.00  0.00    +0.000 A 
ATOM     24  C   UNL     1      10.600   7.559  22.355  0.00  0.00    +0.003 A 
ATOM     25  C   UNL     1      10.590   7.519  21.531  0.00  0.00    +0.037 A 
ENDBRANCH  19  20
ENDBRANCH  18  19
ENDBRANCH  16  18
ENDBRANCH  14  15
ENDBRANCH  13  14
TORSDOF 9
ENDMDL
