MODEL 1
REMARK VINA RESULT:     -13.8      0.000      0.000
REMARK  Name = 
REMARK  8 active torsions:
REMARK  status: ('A' for Active; 'I' for Inactive)
REMARK    1  A    between atoms: O_2  and  C_3
REMARK    2  A    between atoms: C_6  and  C_9
REMARK    3  A    between atoms: C_11  and  C_12
REMARK    4  A    between atoms: C_12  and  C_13
REMARK    5  A    between atoms: C_18  and  C_19
REMARK    6  A    between atoms: C_19  and  C_20
REMARK    7  A    between atoms: C_25  and  C_26
REMARK    8  A    between atoms: C_26  and  C_27
REMARK                            x       y       z     vdW  Elec       q    Type
REMARK                         _______ _______ _______ _____ _____    ______ ____
ROOT
ATOM     13  C   UNL     1      -2.434  -1.557  25.082  0.00  0.00    +0.024 C 
ATOM     14  C   UNL     1      -2.785  -2.228  24.758  0.00  0.00    +0.089 C 
ATOM     15  N   UNL     1      -2.355  -2.713  24.246  0.00  0.00    -0.218 NA
ATOM     16  C   UNL     1      -1.573  -2.524  24.059  0.00  0.00    +0.089 C 
ATOM     17  C   UNL     1      -1.222  -1.851  24.385  0.00  0.00    +0.019 C 
ATOM     18  C   UNL     1      -1.653  -1.368  24.897  0.00  0.00    +0.012 C 
ENDROOT
BRANCH  13  12
ATOM     12  C   UNL     1      -2.865  -1.073  25.594  0.00  0.00    +0.051 C 
BRANCH  12  11
ATOM      9  C   UNL     1      -4.393   0.325  25.084  0.00  0.00    +0.177 A 
ATOM     10  C   UNL     1      -3.691   0.136  25.471  0.00  0.00    +0.058 A 
ATOM     11  C   UNL     1      -3.519  -0.655  25.315  0.00  0.00    +0.101 A 
ATOM     35  N   UNL     1      -4.115  -0.955  24.830  0.00  0.00    -0.081 NA
ATOM     36  O   UNL     1      -4.656  -0.349  24.687  0.00  0.00    -0.354 OA
BRANCH   9   6
ATOM      3  C   UNL     1      -5.518   2.531  25.105  0.00  0.00    +0.139 A 
ATOM      4  C   UNL     1      -4.822   2.427  24.676  0.00  0.00    +0.037 A 
ATOM      5  C   UNL     1      -4.447   1.692  24.669  0.00  0.00    +0.006 A 
ATOM      6  C   UNL     1      -4.769   1.061  25.091  0.00  0.00    +0.037 A 
ATOM      7  C   UNL     1      -5.466   1.164  25.520  0.00  0.00    +0.006 A 
ATOM      8  C   UNL     1      -5.841   1.899  25.527  0.00  0.00    +0.037 A 
BRANCH   3   2
ATOM      1  C   UNL     1      -5.535   3.907  25.488  0.00  0.00    +0.252 C 
ATOM      2  O   UNL     1      -5.893   3.265  25.112  0.00  0.00    -0.471 OA
ENDBRANCH   3   2
ENDBRANCH   9   6
ENDBRANCH  12  11
ENDBRANCH  13  12
BRANCH  18  19
ATOM     19  C   UNL     1      -1.302  -0.696  25.221  0.00  0.00    +0.085 C 
BRANCH  19  20
ATOM     20  C   UNL     1      -0.780  -0.243  24.770  0.00  0.00    +0.226 C 
ATOM     21  O   UNL     1      -0.429  -0.567  24.098  0.00  0.00    -0.275 OA
ATOM     22  N   UNL     1      -0.611   0.533  24.991  0.00  0.00    -0.280 N 
ATOM     23  C   UNL     1      -0.089   0.986  24.540  0.00  0.00    +0.093 C 
ATOM     24  C   UNL     1       0.082   1.762  24.760  0.00  0.00    +0.022 C 
ATOM     25  C   UNL     1      -0.270   2.086  25.433  0.00  0.00    +0.008 C 
ATOM     33  C   UNL     1      -0.792   1.633  25.885  0.00  0.00    +0.022 C 
ATOM     34  C   UNL     1      -0.962   0.857  25.663  0.00  0.00    +0.093 C 
BRANCH  25  26
ATOM     26  C   UNL     1      -0.100   2.862  25.654  0.00  0.00    +0.026 C 
BRANCH  26  27
ATOM     27  C   UNL     1      -0.637   3.466  25.488  0.00  0.00    -0.022 A 
ATOM     28  C   UNL     1      -1.331   3.533  25.929  0.00  0.00    -0.004 A 
ATOM     29  C   UNL     1      -1.868   4.136  25.764  0.00  0.00    -0.000 A 
ATOM     30  C   UNL     1      -1.711   4.673  25.157  0.00  0.00    -0.000 A 
ATOM     31  C   UNL     1      -1.018   4.606  24.716  0.00  0.00    -0.000 A 
ATOM     32  C   UNL     1      -0.480   4.003  24.881  0.00  0.00    -0.004 A 
ENDBRANCH  26  27
ENDBRANCH  25  26
ENDBRANCH  19  20
ENDBRANCH  18  19
TORSDOF 8
ENDMDL
MODEL 2
REMARK VINA RESULT:     -13.5      1.388      4.287
REMARK  Name = 
REMARK  8 active torsions:
REMARK  status: ('A' for Active; 'I' for Inactive)
REMARK    1  A    between atoms: O_2  and  C_3
REMARK    2  A    between atoms: C_6  and  C_9
REMARK    3  A    between atoms: C_11  and  C_12
REMARK    4  A    between atoms: C_12  and  C_13
REMARK    5  A    between atoms: C_18  and  C_19
REMARK    6  A    between atoms: C_19  and  C_20
REMARK    7  A    between atoms: C_25  and  C_26
REMARK    8  A    between atoms: C_26  and  C_27
REMARK                            x       y       z     vdW  Elec       q    Type
REMARK                         _______ _______ _______ _____ _____    ______ ____
ROOT
ATOM     13  C   UNL     1      -0.968   3.540  25.274  0.00  0.00    +0.024 C 
ATOM     14  C   UNL     1      -0.943   4.312  24.988  0.00  0.00    +0.089 C 
ATOM     15  N   UNL     1      -0.450   4.502  24.353  0.00  0.00    -0.218 NA
ATOM     16  C   UNL     1       0.018   3.918  24.006  0.00  0.00    +0.089 C 
ATOM     17  C   UNL     1      -0.008   3.144  24.293  0.00  0.00    +0.019 C 
ATOM     18  C   UNL     1      -0.501   2.955  24.927  0.00  0.00    +0.012 C 
ENDROOT
BRANCH  13  12
ATOM     12  C   UNL     1      -1.462   3.350  25.908  0.00  0.00    +0.051 C 
BRANCH  12  11
ATOM      9  C   UNL     1      -3.584   3.395  25.691  0.00  0.00    +0.177 A 
ATOM     10  C   UNL     1      -2.865   2.993  25.655  0.00  0.00    +0.058 A 
ATOM     11  C   UNL     1      -2.268   3.521  25.870  0.00  0.00    +0.101 A 
ATOM     35  N   UNL     1      -2.618   4.248  26.039  0.00  0.00    -0.081 NA
ATOM     36  O   UNL     1      -3.433   4.170  25.929  0.00  0.00    -0.354 OA
BRANCH   9   6
ATOM      3  C   UNL     1      -5.810   2.440  25.179  0.00  0.00    +0.139 A 
ATOM      4  C   UNL     1      -5.126   2.031  24.966  0.00  0.00    +0.037 A 
ATOM      5  C   UNL     1      -4.384   2.349  25.137  0.00  0.00    +0.006 A 
ATOM      6  C   UNL     1      -4.326   3.076  25.520  0.00  0.00    +0.037 A 
ATOM      7  C   UNL     1      -5.010   3.487  25.734  0.00  0.00    +0.006 A 
ATOM      8  C   UNL     1      -5.752   3.169  25.563  0.00  0.00    +0.037 A 
BRANCH   3   2
ATOM      1  C   UNL     1      -6.615   1.345  24.738  0.00  0.00    +0.252 C 
ATOM      2  O   UNL     1      -6.551   2.122  25.008  0.00  0.00    -0.471 OA
ENDBRANCH   3   2
ENDBRANCH   9   6
ENDBRANCH  12  11
ENDBRANCH  13  12
BRANCH  18  19
ATOM     19  C   UNL     1      -0.526   2.182  25.213  0.00  0.00    +0.085 C 
BRANCH  19  20
ATOM     20  C   UNL     1      -0.284   1.556  24.733  0.00  0.00    +0.226 C 
ATOM     21  O   UNL     1       0.220   1.696  24.096  0.00  0.00    -0.275 OA
ATOM     22  N   UNL     1      -0.546   0.790  24.891  0.00  0.00    -0.280 N 
ATOM     23  C   UNL     1      -0.304   0.164  24.411  0.00  0.00    +0.093 C 
ATOM     24  C   UNL     1      -0.566  -0.602  24.568  0.00  0.00    +0.022 C 
ATOM     25  C   UNL     1      -1.070  -0.743  25.207  0.00  0.00    +0.008 C 
ATOM     33  C   UNL     1      -1.312  -0.116  25.687  0.00  0.00    +0.022 C 
ATOM     34  C   UNL     1      -1.050   0.649  25.529  0.00  0.00    +0.093 C 
BRANCH  25  26
ATOM     26  C   UNL     1      -1.332  -1.509  25.364  0.00  0.00    +0.026 C 
BRANCH  26  27
ATOM     27  C   UNL     1      -2.087  -1.743  25.131  0.00  0.00    -0.022 A 
ATOM     28  C   UNL     1      -2.183  -2.238  24.478  0.00  0.00    -0.004 A 
ATOM     29  C   UNL     1      -2.939  -2.472  24.245  0.00  0.00    -0.000 A 
ATOM     30  C   UNL     1      -3.599  -2.210  24.665  0.00  0.00    -0.000 A 
ATOM     31  C   UNL     1      -3.504  -1.716  25.318  0.00  0.00    -0.000 A 
ATOM     32  C   UNL     1      -2.748  -1.481  25.551  0.00  0.00    -0.004 A 
ENDBRANCH  26  27
ENDBRANCH  25  26
ENDBRANCH  19  20
ENDBRANCH  18  19
TORSDOF 8
ENDMDL
MODEL 3
REMARK VINA RESULT:     -13.2      1.604      4.781
REMARK  Name = 
REMARK  8 active torsions:
REMARK  status: ('A' for Active; 'I' for Inactive)
REMARK    1  A    between atoms: O_2  and  C_3
REMARK    2  A    between atoms: C_6  and  C_9
REMARK    3  A    between atoms: C_11  and  C_12
REMARK    4  A    between atoms: C_12  and  C_13
REMARK    5  A    between atoms: C_18  and  C_19
REMARK    6  A    between atoms: C_19  and  C_20
REMARK    7  A    between atoms: C_25  and  C_26
REMARK    8  A    between atoms: C_26  and  C_27
REMARK                            x       y       z     vdW  Elec       q    Type
REMARK                         _______ _______ _______ _____ _____    ______ ____
ROOT
ATOM     13  C   UNL     1      -0.297   2.111  24.898  0.00  0.00    +0.024 C 
ATOM     14  C   UNL     1       0.375   1.842  25.292  0.00  0.00    +0.089 C 
ATOM     15  N   UNL     1       0.648   2.240  25.961  0.00  0.00    -0.218 NA
ATOM     16  C   UNL     1       0.247   2.908  26.236  0.00  0.00    +0.089 C 
ATOM     17  C   UNL     1      -0.426   3.176  25.841  0.00  0.00    +0.019 C 
ATOM     18  C   UNL     1      -0.698   2.777  25.172  0.00  0.00    +0.012 C 
ENDROOT
BRANCH  13  12
ATOM     12  C   UNL     1      -0.569   1.712  24.228  0.00  0.00    +0.051 C 
BRANCH  12  11
ATOM      9  C   UNL     1      -1.149  -0.337  24.358  0.00  0.00    +0.177 A 
ATOM     10  C   UNL     1      -1.326   0.466  24.414  0.00  0.00    +0.058 A 
ATOM     11  C   UNL     1      -0.641   0.891  24.237  0.00  0.00    +0.101 A 
ATOM     35  N   UNL     1      -0.041   0.349  24.072  0.00  0.00    -0.081 NA
ATOM     36  O   UNL     1      -0.355  -0.410  24.146  0.00  0.00    -0.354 OA
BRANCH   9   6
ATOM      3  C   UNL     1      -2.725  -2.206  24.753  0.00  0.00    +0.139 A 
ATOM      4  C   UNL     1      -1.935  -2.362  24.576  0.00  0.00    +0.037 A 
ATOM      5  C   UNL     1      -1.409  -1.740  24.445  0.00  0.00    +0.006 A 
ATOM      6  C   UNL     1      -1.675  -0.961  24.490  0.00  0.00    +0.037 A 
ATOM      7  C   UNL     1      -2.465  -0.802  24.666  0.00  0.00    +0.006 A 
ATOM      8  C   UNL     1      -2.990  -1.425  24.798  0.00  0.00    +0.037 A 
BRANCH   3   2
ATOM      1  C   UNL     1      -3.872  -2.961  24.359  0.00  0.00    +0.252 C 
ATOM      2  O   UNL     1      -3.249  -2.827  24.885  0.00  0.00    -0.471 OA
ENDBRANCH   3   2
ENDBRANCH   9   6
ENDBRANCH  12  11
ENDBRANCH  13  12
BRANCH  18  19
ATOM     19  C   UNL     1      -1.371   3.046  24.778  0.00  0.00    +0.085 C 
BRANCH  19  20
ATOM     20  C   UNL     1      -1.852   3.619  25.126  0.00  0.00    +0.226 C 
ATOM     21  O   UNL     1      -1.513   4.249  25.536  0.00  0.00    -0.275 OA
ATOM     22  N   UNL     1      -2.673   3.561  25.063  0.00  0.00    -0.280 N 
ATOM     23  C   UNL     1      -3.154   4.134  25.411  0.00  0.00    +0.093 C 
ATOM     24  C   UNL     1      -3.975   4.077  25.349  0.00  0.00    +0.022 C 
ATOM     25  C   UNL     1      -4.314   3.446  24.939  0.00  0.00    +0.008 C 
ATOM     33  C   UNL     1      -3.833   2.873  24.591  0.00  0.00    +0.022 C 
ATOM     34  C   UNL     1      -3.013   2.931  24.653  0.00  0.00    +0.093 C 
BRANCH  25  26
ATOM     26  C   UNL     1      -5.135   3.389  24.877  0.00  0.00    +0.026 C 
BRANCH  26  27
ATOM     27  C   UNL     1      -5.532   2.753  25.220  0.00  0.00    -0.022 A 
ATOM     28  C   UNL     1      -5.739   2.100  24.761  0.00  0.00    -0.004 A 
ATOM     29  C   UNL     1      -6.136   1.463  25.104  0.00  0.00    -0.000 A 
ATOM     30  C   UNL     1      -6.325   1.480  25.907  0.00  0.00    -0.000 A 
ATOM     31  C   UNL     1      -6.117   2.132  26.366  0.00  0.00    -0.000 A 
ATOM     32  C   UNL     1      -5.720   2.769  26.023  0.00  0.00    -0.004 A 
ENDBRANCH  26  27
ENDBRANCH  25  26
ENDBRANCH  19  20
ENDBRANCH  18  19
TORSDOF 8
ENDMDL
MODEL 4
REMARK VINA RESULT:     -13.0      1.525      4.405
REMARK  Name = 
REMARK  8 active torsions:
REMARK  status: ('A' for Active; 'I' for Inactive)
REMARK    1  A    between atoms: O_2  and  C_3
REMARK    2  A    between atoms: C_6  and  C_9
REMARK    3  A    between atoms: C_11  and  C_12
REMARK    4  A    between atoms: C_12  and  C_13
REMARK    5  A    between atoms: C_18  and  C_19
REMARK    6  A    between atoms: C_19  and  C_20
REMARK    7  A    between atoms: C_25  and  C_26
REMARK    8  A    between atoms: C_26  and  C_27
REMARK                            x       y       z     vdW  Elec       q    Type
REMARK                         _______ _______ _______ _____ _____    ______ ____
ROOT
ATOM     13  C   UNL     1       0.061   1.957  24.964  0.00  0.00    +0.024 C 
ATOM     14  C   UNL     1       0.510   2.518  24.561  0.00  0.00    +0.089 C 
ATOM     15  N   UNL     1       0.939   2.300  23.890  0.00  0.00    -0.218 NA
ATOM     16  C   UNL     1       0.918   1.519  23.623  0.00  0.00    +0.089 C 
ATOM     17  C   UNL     1       0.468   0.957  24.027  0.00  0.00    +0.019 C 
ATOM     18  C   UNL     1       0.040   1.176  24.698  0.00  0.00    +0.012 C 
ENDROOT
BRANCH  13  12
ATOM     12  C   UNL     1      -0.368   2.175  25.635  0.00  0.00    +0.051 C 
BRANCH  12  11
ATOM      9  C   UNL     1      -2.102   3.412  25.511  0.00  0.00    +0.177 A 
ATOM     10  C   UNL     1      -1.750   2.668  25.556  0.00  0.00    +0.058 A 
ATOM     11  C   UNL     1      -0.933   2.774  25.586  0.00  0.00    +0.101 A 
ATOM     35  N   UNL     1      -0.780   3.585  25.559  0.00  0.00    -0.081 NA
ATOM     36  O   UNL     1      -1.503   3.979  25.513  0.00  0.00    -0.354 OA
BRANCH   9   6
ATOM      3  C   UNL     1      -4.533   3.867  25.391  0.00  0.00    +0.139 A 
ATOM      4  C   UNL     1      -4.134   3.576  24.730  0.00  0.00    +0.037 A 
ATOM      5  C   UNL     1      -3.324   3.425  24.770  0.00  0.00    +0.006 A 
ATOM      6  C   UNL     1      -2.913   3.564  25.471  0.00  0.00    +0.037 A 
ATOM      7  C   UNL     1      -3.311   3.854  26.133  0.00  0.00    +0.006 A 
ATOM      8  C   UNL     1      -4.121   4.006  26.093  0.00  0.00    +0.037 A 
BRANCH   3   2
ATOM      1  C   UNL     1      -5.882   3.447  25.605  0.00  0.00    +0.252 C 
ATOM      2  O   UNL     1      -5.342   4.018  25.351  0.00  0.00    -0.471 OA
ENDBRANCH   3   2
ENDBRANCH   9   6
ENDBRANCH  12  11
ENDBRANCH  13  12
BRANCH  18  19
ATOM     19  C   UNL     1      -0.409   0.614  25.101  0.00  0.00    +0.085 C 
BRANCH  19  20
ATOM     20  C   UNL     1      -0.378  -0.179  24.875  0.00  0.00    +0.226 C 
ATOM     21  O   UNL     1       0.306  -0.483  24.530  0.00  0.00    -0.275 OA
ATOM     22  N   UNL     1      -1.032  -0.667  24.995  0.00  0.00    -0.280 N 
ATOM     23  C   UNL     1      -1.001  -1.461  24.769  0.00  0.00    +0.093 C 
ATOM     24  C   UNL     1      -1.654  -1.950  24.889  0.00  0.00    +0.022 C 
ATOM     25  C   UNL     1      -2.339  -1.646  25.234  0.00  0.00    +0.008 C 
ATOM     33  C   UNL     1      -2.370  -0.853  25.460  0.00  0.00    +0.022 C 
ATOM     34  C   UNL     1      -1.717  -0.364  25.340  0.00  0.00    +0.093 C 
BRANCH  25  26
ATOM     26  C   UNL     1      -2.992  -2.136  25.354  0.00  0.00    +0.026 C 
BRANCH  26  27
ATOM     27  C   UNL     1      -3.537  -2.253  24.746  0.00  0.00    -0.022 A 
ATOM     28  C   UNL     1      -3.601  -2.991  24.385  0.00  0.00    -0.004 A 
ATOM     29  C   UNL     1      -4.145  -3.108  23.777  0.00  0.00    -0.000 A 
ATOM     30  C   UNL     1      -4.627  -2.485  23.529  0.00  0.00    -0.000 A 
ATOM     31  C   UNL     1      -4.563  -1.747  23.890  0.00  0.00    -0.000 A 
ATOM     32  C   UNL     1      -4.018  -1.630  24.498  0.00  0.00    -0.004 A 
ENDBRANCH  26  27
ENDBRANCH  25  26
ENDBRANCH  19  20
ENDBRANCH  18  19
TORSDOF 8
ENDMDL
MODEL 5
REMARK VINA RESULT:     -12.7      1.364      3.949
REMARK  Name = 
REMARK  8 active torsions:
REMARK  status: ('A' for Active; 'I' for Inactive)
REMARK    1  A    between atoms: O_2  and  C_3
REMARK    2  A    between atoms: C_6  and  C_9
REMARK    3  A    between atoms: C_11  and  C_12
REMARK    4  A    between atoms: C_12  and  C_13
REMARK    5  A    between atoms: C_18  and  C_19
REMARK    6  A    between atoms: C_19  and  C_20
REMARK    7  A    between atoms: C_25  and  C_26
REMARK    8  A    between atoms: C_26  and  C_27
REMARK                            x       y       z     vdW  Elec       q    Type
REMARK                         _______ _______ _______ _____ _____    ______ ____
ROOT
ATOM     13  C   UNL     1      -0.840  -0.700  24.365  0.00  0.00    +0.024 C 
ATOM     14  C   UNL     1      -0.108  -0.978  24.620  0.00  0.00    +0.089 C 
ATOM     15  N   UNL     1      -0.067  -1.614  25.145  0.00  0.00    -0.218 NA
ATOM     16  C   UNL     1      -0.761  -1.971  25.414  0.00  0.00    +0.089 C 
ATOM     17  C   UNL     1      -1.495  -1.692  25.158  0.00  0.00    +0.019 C 
ATOM     18  C   UNL     1      -1.534  -1.056  24.633  0.00  0.00    +0.012 C 
ENDROOT
BRANCH  13  12
ATOM     12  C   UNL     1      -0.880  -0.064  23.840  0.00  0.00    +0.051 C 
BRANCH  12  11
ATOM      9  C   UNL     1      -0.372   1.929  24.407  0.00  0.00    +0.177 A 
ATOM     10  C   UNL     1      -0.933   1.344  24.258  0.00  0.00    +0.058 A 
ATOM     11  C   UNL     1      -0.532   0.657  24.038  0.00  0.00    +0.101 A 
ATOM     35  N   UNL     1       0.277   0.818  24.052  0.00  0.00    -0.081 NA
ATOM     36  O   UNL     1       0.376   1.605  24.280  0.00  0.00    -0.354 OA
BRANCH   9   6
ATOM      3  C   UNL     1      -0.847   4.254  25.114  0.00  0.00    +0.139 A 
ATOM      4  C   UNL     1      -0.567   4.103  24.353  0.00  0.00    +0.037 A 
ATOM      5  C   UNL     1      -0.408   3.328  24.117  0.00  0.00    +0.006 A 
ATOM      6  C   UNL     1      -0.530   2.705  24.643  0.00  0.00    +0.037 A 
ATOM      7  C   UNL     1      -0.810   2.855  25.404  0.00  0.00    +0.006 A 
ATOM      8  C   UNL     1      -0.968   3.630  25.640  0.00  0.00    +0.037 A 
BRANCH   3   2
ATOM      1  C   UNL     1      -1.664   5.424  25.048  0.00  0.00    +0.252 C 
ATOM      2  O   UNL     1      -1.005   5.028  25.349  0.00  0.00    -0.471 OA
ENDBRANCH   3   2
ENDBRANCH   9   6
ENDBRANCH  12  11
ENDBRANCH  13  12
BRANCH  18  19
ATOM     19  C   UNL     1      -2.267  -0.778  24.379  0.00  0.00    +0.085 C 
BRANCH  19  20
ATOM     20  C   UNL     1      -2.924  -0.828  24.876  0.00  0.00    +0.226 C 
ATOM     21  O   UNL     1      -2.980  -1.442  25.424  0.00  0.00    -0.275 OA
ATOM     22  N   UNL     1      -3.524  -0.264  24.825  0.00  0.00    -0.280 N 
ATOM     23  C   UNL     1      -4.180  -0.314  25.322  0.00  0.00    +0.093 C 
ATOM     24  C   UNL     1      -4.781   0.249  25.271  0.00  0.00    +0.022 C 
ATOM     25  C   UNL     1      -4.725   0.863  24.723  0.00  0.00    +0.008 C 
ATOM     33  C   UNL     1      -4.068   0.913  24.225  0.00  0.00    +0.022 C 
ATOM     34  C   UNL     1      -3.468   0.350  24.277  0.00  0.00    +0.093 C 
BRANCH  25  26
ATOM     26  C   UNL     1      -5.325   1.427  24.672  0.00  0.00    +0.026 C 
BRANCH  26  27
ATOM     27  C   UNL     1      -5.201   2.189  24.961  0.00  0.00    -0.022 A 
ATOM     28  C   UNL     1      -4.784   2.739  24.509  0.00  0.00    -0.004 A 
ATOM     29  C   UNL     1      -4.660   3.501  24.798  0.00  0.00    -0.000 A 
ATOM     30  C   UNL     1      -4.953   3.714  25.540  0.00  0.00    -0.000 A 
ATOM     31  C   UNL     1      -5.370   3.165  25.991  0.00  0.00    -0.000 A 
ATOM     32  C   UNL     1      -5.495   2.402  25.703  0.00  0.00    -0.004 A 
ENDBRANCH  26  27
ENDBRANCH  25  26
ENDBRANCH  19  20
ENDBRANCH  18  19
TORSDOF 8
ENDMDL
MODEL 6
REMARK VINA RESULT:     -12.7      1.334      4.246
REMARK  Name = 
REMARK  8 active torsions:
REMARK  status: ('A' for Active; 'I' for Inactive)
REMARK    1  A    between atoms: O_2  and  C_3
REMARK    2  A    between atoms: C_6  and  C_9
REMARK    3  A    between atoms: C_11  and  C_12
REMARK    4  A    between atoms: C_12  and  C_13
REMARK    5  A    between atoms: C_18  and  C_19
REMARK    6  A    between atoms: C_19  and  C_20
REMARK    7  A    between atoms: C_25  and  C_26
REMARK    8  A    between atoms: C_26  and  C_27
REMARK                            x       y       z     vdW  Elec       q    Type
REMARK                         _______ _______ _______ _____ _____    ______ ____
ROOT
ATOM     13  C   UNL     1      -5.398   1.690  25.076  0.00  0.00    +0.024 C 
ATOM     14  C   UNL     1      -5.988   1.227  25.416  0.00  0.00    +0.089 C 
ATOM     15  N   UNL     1      -6.444   1.527  26.035  0.00  0.00    -0.218 NA
ATOM     16  C   UNL     1      -6.308   2.292  26.313  0.00  0.00    +0.089 C 
ATOM     17  C   UNL     1      -5.717   2.756  25.973  0.00  0.00    +0.019 C 
ATOM     18  C   UNL     1      -5.261   2.455  25.354  0.00  0.00    +0.012 C 
ENDROOT
BRANCH  13  12
ATOM     12  C   UNL     1      -4.942   1.389  24.457  0.00  0.00    +0.051 C 
BRANCH  12  11
ATOM      9  C   UNL     1      -3.824  -0.420  24.629  0.00  0.00    +0.177 A 
ATOM     10  C   UNL     1      -3.867   0.403  24.637  0.00  0.00    +0.058 A 
ATOM     11  C   UNL     1      -4.651   0.619  24.496  0.00  0.00    +0.101 A 
ATOM     35  N   UNL     1      -5.092  -0.072  24.400  0.00  0.00    -0.081 NA
ATOM     36  O   UNL     1      -4.580  -0.714  24.482  0.00  0.00    -0.354 OA
BRANCH   9   6
ATOM      3  C   UNL     1      -1.781  -1.773  24.982  0.00  0.00    +0.139 A 
ATOM      4  C   UNL     1      -2.478  -2.135  24.730  0.00  0.00    +0.037 A 
ATOM      5  C   UNL     1      -3.158  -1.684  24.612  0.00  0.00    +0.006 A 
ATOM      6  C   UNL     1      -3.142  -0.871  24.747  0.00  0.00    +0.037 A 
ATOM      7  C   UNL     1      -2.446  -0.508  24.999  0.00  0.00    +0.006 A 
ATOM      8  C   UNL     1      -1.765  -0.959  25.117  0.00  0.00    +0.037 A 
BRANCH   3   2
ATOM      1  C   UNL     1      -0.369  -1.851  25.186  0.00  0.00    +0.252 C 
ATOM      2  O   UNL     1      -1.101  -2.224  25.099  0.00  0.00    -0.471 OA
ENDBRANCH   3   2
ENDBRANCH   9   6
ENDBRANCH  12  11
ENDBRANCH  13  12
BRANCH  18  19
ATOM     19  C   UNL     1      -4.671   2.919  25.014  0.00  0.00    +0.085 C 
BRANCH  19  20
ATOM     20  C   UNL     1      -4.290   3.497  25.463  0.00  0.00    +0.226 C 
ATOM     21  O   UNL     1      -4.721   3.955  25.997  0.00  0.00    -0.275 OA
ATOM     22  N   UNL     1      -3.479   3.618  25.377  0.00  0.00    -0.280 N 
ATOM     23  C   UNL     1      -3.098   4.197  25.826  0.00  0.00    +0.093 C 
ATOM     24  C   UNL     1      -2.286   4.318  25.741  0.00  0.00    +0.022 C 
ATOM     25  C   UNL     1      -1.855   3.861  25.206  0.00  0.00    +0.008 C 
ATOM     33  C   UNL     1      -2.236   3.282  24.757  0.00  0.00    +0.022 C 
ATOM     34  C   UNL     1      -3.047   3.161  24.843  0.00  0.00    +0.093 C 
BRANCH  25  26
ATOM     26  C   UNL     1      -1.043   3.982  25.121  0.00  0.00    +0.026 C 
BRANCH  26  27
ATOM     27  C   UNL     1      -0.522   3.346  25.182  0.00  0.00    -0.022 A 
ATOM     28  C   UNL     1      -0.304   3.062  25.925  0.00  0.00    -0.004 A 
ATOM     29  C   UNL     1       0.217   2.425  25.987  0.00  0.00    -0.000 A 
ATOM     30  C   UNL     1       0.520   2.073  25.304  0.00  0.00    -0.000 A 
ATOM     31  C   UNL     1       0.302   2.358  24.562  0.00  0.00    -0.000 A 
ATOM     32  C   UNL     1      -0.219   2.994  24.500  0.00  0.00    -0.004 A 
ENDBRANCH  26  27
ENDBRANCH  25  26
ENDBRANCH  19  20
ENDBRANCH  18  19
TORSDOF 8
ENDMDL
MODEL 7
REMARK VINA RESULT:     -12.6      1.821      5.814
REMARK  Name = 
REMARK  8 active torsions:
REMARK  status: ('A' for Active; 'I' for Inactive)
REMARK    1  A    between atoms: O_2  and  C_3
REMARK    2  A    between atoms: C_6  and  C_9
REMARK    3  A    between atoms: C_11  and  C_12
REMARK    4  A    between atoms: C_12  and  C_13
REMARK    5  A    between atoms: C_18  and  C_19
REMARK    6  A    between atoms: C_19  and  C_20
REMARK    7  A    between atoms: C_25  and  C_26
REMARK    8  A    between atoms: C_26  and  C_27
REMARK                            x       y       z     vdW  Elec       q    Type
REMARK                         _______ _______ _______ _____ _____    ______ ____
ROOT
ATOM     13  C   UNL     1      -1.408   3.820  25.537  0.00  0.00    +0.024 C 
ATOM     14  C   UNL     1      -0.845   4.398  25.371  0.00  0.00    +0.089 C 
ATOM     15  N   UNL     1      -1.076   5.111  25.024  0.00  0.00    -0.218 NA
ATOM     16  C   UNL     1      -1.870   5.244  24.844  0.00  0.00    +0.089 C 
ATOM     17  C   UNL     1      -2.434   4.664  25.011  0.00  0.00    +0.019 C 
ATOM     18  C   UNL     1      -2.203   3.952  25.358  0.00  0.00    +0.012 C 
ENDROOT
BRANCH  13  12
ATOM     12  C   UNL     1      -1.177   3.107  25.884  0.00  0.00    +0.051 C 
BRANCH  12  11
ATOM      9  C   UNL     1       0.196   1.856  24.834  0.00  0.00    +0.177 A 
ATOM     10  C   UNL     1      -0.568   2.140  24.959  0.00  0.00    +0.058 A 
ATOM     11  C   UNL     1      -0.537   2.687  25.577  0.00  0.00    +0.101 A 
ATOM     35  N   UNL     1       0.245   2.739  25.833  0.00  0.00    -0.081 NA
ATOM     36  O   UNL     1       0.699   2.225  25.374  0.00  0.00    -0.354 OA
BRANCH   9   6
ATOM      3  C   UNL     1       0.863   0.182  23.136  0.00  0.00    +0.139 A 
ATOM      4  C   UNL     1       0.141   0.108  23.527  0.00  0.00    +0.037 A 
ATOM      5  C   UNL     1      -0.082   0.666  24.093  0.00  0.00    +0.006 A 
ATOM      6  C   UNL     1       0.418   1.297  24.268  0.00  0.00    +0.037 A 
ATOM      7  C   UNL     1       1.141   1.372  23.877  0.00  0.00    +0.006 A 
ATOM      8  C   UNL     1       1.364   0.815  23.312  0.00  0.00    +0.037 A 
BRANCH   3   2
ATOM      1  C   UNL     1       1.789  -0.277  22.149  0.00  0.00    +0.252 C 
ATOM      2  O   UNL     1       1.085  -0.375  22.571  0.00  0.00    -0.471 OA
ENDBRANCH   3   2
ENDBRANCH   9   6
ENDBRANCH  12  11
ENDBRANCH  13  12
BRANCH  18  19
ATOM     19  C   UNL     1      -2.765   3.373  25.524  0.00  0.00    +0.085 C 
BRANCH  19  20
ATOM     20  C   UNL     1      -3.387   3.239  24.998  0.00  0.00    +0.226 C 
ATOM     21  O   UNL     1      -3.645   3.844  24.501  0.00  0.00    -0.275 OA
ATOM     22  N   UNL     1      -3.750   2.499  24.970  0.00  0.00    -0.280 N 
ATOM     23  C   UNL     1      -4.372   2.364  24.444  0.00  0.00    +0.093 C 
ATOM     24  C   UNL     1      -4.737   1.624  24.415  0.00  0.00    +0.022 C 
ATOM     25  C   UNL     1      -4.478   1.018  24.912  0.00  0.00    +0.008 C 
ATOM     33  C   UNL     1      -3.856   1.153  25.438  0.00  0.00    +0.022 C 
ATOM     34  C   UNL     1      -3.493   1.893  25.466  0.00  0.00    +0.093 C 
BRANCH  25  26
ATOM     26  C   UNL     1      -4.842   0.279  24.883  0.00  0.00    +0.026 C 
BRANCH  26  27
ATOM     27  C   UNL     1      -4.397  -0.394  24.709  0.00  0.00    -0.022 A 
ATOM     28  C   UNL     1      -4.011  -0.801  25.312  0.00  0.00    -0.004 A 
ATOM     29  C   UNL     1      -3.567  -1.473  25.138  0.00  0.00    -0.000 A 
ATOM     30  C   UNL     1      -3.508  -1.738  24.358  0.00  0.00    -0.000 A 
ATOM     31  C   UNL     1      -3.894  -1.330  23.754  0.00  0.00    -0.000 A 
ATOM     32  C   UNL     1      -4.339  -0.658  23.929  0.00  0.00    -0.004 A 
ENDBRANCH  26  27
ENDBRANCH  25  26
ENDBRANCH  19  20
ENDBRANCH  18  19
TORSDOF 8
ENDMDL
MODEL 8
REMARK VINA RESULT:     -12.5      1.509      4.313
REMARK  Name = 
REMARK  8 active torsions:
REMARK  status: ('A' for Active; 'I' for Inactive)
REMARK    1  A    between atoms: O_2  and  C_3
REMARK    2  A    between atoms: C_6  and  C_9
REMARK    3  A    between atoms: C_11  and  C_12
REMARK    4  A    between atoms: C_12  and  C_13
REMARK    5  A    between atoms: C_18  and  C_19
REMARK    6  A    between atoms: C_19  and  C_20
REMARK    7  A    between atoms: C_25  and  C_26
REMARK    8  A    between atoms: C_26  and  C_27
REMARK                            x       y       z     vdW  Elec       q    Type
REMARK                         _______ _______ _______ _____ _____    ______ ____
ROOT
ATOM     13  C   UNL     1      -3.146  -1.629  24.755  0.00  0.00    +0.024 C 
ATOM     14  C   UNL     1      -3.174  -2.451  24.699  0.00  0.00    +0.089 C 
ATOM     15  N   UNL     1      -3.772  -2.815  24.262  0.00  0.00    -0.218 NA
ATOM     16  C   UNL     1      -4.342  -2.355  23.881  0.00  0.00    +0.089 C 
ATOM     17  C   UNL     1      -4.313  -1.532  23.937  0.00  0.00    +0.019 C 
ATOM     18  C   UNL     1      -3.715  -1.169  24.375  0.00  0.00    +0.012 C 
ENDROOT
BRANCH  13  12
ATOM     12  C   UNL     1      -2.547  -1.266  25.192  0.00  0.00    +0.051 C 
BRANCH  12  11
ATOM      9  C   UNL     1      -0.591  -0.994  24.384  0.00  0.00    +0.177 A 
ATOM     10  C   UNL     1      -1.354  -0.719  24.530  0.00  0.00    +0.058 A 
ATOM     11  C   UNL     1      -1.764  -1.309  24.936  0.00  0.00    +0.101 A 
ATOM     35  N   UNL     1      -1.254  -1.949  25.040  0.00  0.00    -0.081 NA
ATOM     36  O   UNL     1      -0.528  -1.754  24.698  0.00  0.00    -0.354 OA
BRANCH   9   6
ATOM      3  C   UNL     1       1.200   0.244  23.205  0.00  0.00    +0.139 A 
ATOM      4  C   UNL     1       1.117  -0.569  23.092  0.00  0.00    +0.037 A 
ATOM      5  C   UNL     1       0.520  -0.981  23.485  0.00  0.00    +0.006 A 
ATOM      6  C   UNL     1       0.006  -0.581  23.991  0.00  0.00    +0.037 A 
ATOM      7  C   UNL     1       0.089   0.232  24.105  0.00  0.00    +0.006 A 
ATOM      8  C   UNL     1       0.686   0.645  23.712  0.00  0.00    +0.037 A 
BRANCH   3   2
ATOM      1  C   UNL     1       2.450   0.251  22.514  0.00  0.00    +0.252 C 
ATOM      2  O   UNL     1       1.796   0.656  22.813  0.00  0.00    -0.471 OA
ENDBRANCH   3   2
ENDBRANCH   9   6
ENDBRANCH  12  11
ENDBRANCH  13  12
BRANCH  18  19
ATOM     19  C   UNL     1      -3.686  -0.347  24.431  0.00  0.00    +0.085 C 
BRANCH  19  20
ATOM     20  C   UNL     1      -4.363   0.076  24.640  0.00  0.00    +0.226 C 
ATOM     21  O   UNL     1      -5.055  -0.326  24.840  0.00  0.00    -0.275 OA
ATOM     22  N   UNL     1      -4.347   0.900  24.650  0.00  0.00    -0.280 N 
ATOM     23  C   UNL     1      -5.024   1.324  24.859  0.00  0.00    +0.093 C 
ATOM     24  C   UNL     1      -5.010   2.149  24.869  0.00  0.00    +0.022 C 
ATOM     25  C   UNL     1      -4.317   2.551  24.669  0.00  0.00    +0.008 C 
ATOM     33  C   UNL     1      -3.640   2.127  24.459  0.00  0.00    +0.022 C 
ATOM     34  C   UNL     1      -3.656   1.303  24.450  0.00  0.00    +0.093 C 
BRANCH  25  26
ATOM     26  C   UNL     1      -4.302   3.375  24.678  0.00  0.00    +0.026 C 
BRANCH  26  27
ATOM     27  C   UNL     1      -3.712   3.773  25.095  0.00  0.00    -0.022 A 
ATOM     28  C   UNL     1      -3.796   3.905  25.905  0.00  0.00    -0.004 A 
ATOM     29  C   UNL     1      -3.206   4.302  26.322  0.00  0.00    -0.000 A 
ATOM     30  C   UNL     1      -2.530   4.567  25.928  0.00  0.00    -0.000 A 
ATOM     31  C   UNL     1      -2.446   4.436  25.119  0.00  0.00    -0.000 A 
ATOM     32  C   UNL     1      -3.037   4.038  24.702  0.00  0.00    -0.004 A 
ENDBRANCH  26  27
ENDBRANCH  25  26
ENDBRANCH  19  20
ENDBRANCH  18  19
TORSDOF 8
ENDMDL
MODEL 9
REMARK VINA RESULT:     -12.4      2.737      5.982
REMARK  Name = 
REMARK  8 active torsions:
REMARK  status: ('A' for Active; 'I' for Inactive)
REMARK    1  A    between atoms: O_2  and  C_3
REMARK    2  A    between atoms: C_6  and  C_9
REMARK    3  A    between atoms: C_11  and  C_12
REMARK    4  A    between atoms: C_12  and  C_13
REMARK    5  A    between atoms: C_18  and  C_19
REMARK    6  A    between atoms: C_19  and  C_20
REMARK    7  A    between atoms: C_25  and  C_26
REMARK    8  A    between atoms: C_26  and  C_27
REMARK                            x       y       z     vdW  Elec       q    Type
REMARK                         _______ _______ _______ _____ _____    ______ ____
ROOT
ATOM     13  C   UNL     1      -0.125  -0.055  23.881  0.00  0.00    +0.024 C 
ATOM     14  C   UNL     1       0.154  -0.814  24.037  0.00  0.00    +0.089 C 
ATOM     15  N   UNL     1      -0.164  -1.251  24.661  0.00  0.00    -0.218 NA
ATOM     16  C   UNL     1      -0.762  -0.926  25.129  0.00  0.00    +0.089 C 
ATOM     17  C   UNL     1      -1.040  -0.165  24.972  0.00  0.00    +0.019 C 
ATOM     18  C   UNL     1      -0.722   0.271  24.348  0.00  0.00    +0.012 C 
ENDROOT
BRANCH  13  12
ATOM     12  C   UNL     1       0.194   0.381  23.257  0.00  0.00    +0.051 C 
BRANCH  12  11
ATOM      9  C   UNL     1       2.249   0.080  22.766  0.00  0.00    +0.177 A 
ATOM     10  C   UNL     1       1.664   0.405  23.248  0.00  0.00    +0.058 A 
ATOM     11  C   UNL     1       0.930   0.179  22.945  0.00  0.00    +0.101 A 
ATOM     35  N   UNL     1       1.063  -0.285  22.276  0.00  0.00    -0.081 NA
ATOM     36  O   UNL     1       1.878  -0.346  22.165  0.00  0.00    -0.354 OA
BRANCH   9   6
ATOM      3  C   UNL     1       4.692   0.340  23.069  0.00  0.00    +0.139 A 
ATOM      4  C   UNL     1       4.327  -0.374  23.259  0.00  0.00    +0.037 A 
ATOM      5  C   UNL     1       3.512  -0.461  23.158  0.00  0.00    +0.006 A 
ATOM      6  C   UNL     1       3.064   0.167  22.867  0.00  0.00    +0.037 A 
ATOM      7  C   UNL     1       3.429   0.882  22.678  0.00  0.00    +0.006 A 
ATOM      8  C   UNL     1       4.243   0.969  22.779  0.00  0.00    +0.037 A 
BRANCH   3   2
ATOM      1  C   UNL     1       5.862   0.188  23.876  0.00  0.00    +0.252 C 
ATOM      2  O   UNL     1       5.506   0.427  23.170  0.00  0.00    -0.471 OA
ENDBRANCH   3   2
ENDBRANCH   9   6
ENDBRANCH  12  11
ENDBRANCH  13  12
BRANCH  18  19
ATOM     19  C   UNL     1      -1.001   1.030  24.192  0.00  0.00    +0.085 C 
BRANCH  19  20
ATOM     20  C   UNL     1      -1.263   1.510  24.811  0.00  0.00    +0.226 C 
ATOM     21  O   UNL     1      -0.819   1.568  25.503  0.00  0.00    -0.275 OA
ATOM     22  N   UNL     1      -1.969   1.929  24.736  0.00  0.00    -0.280 N 
ATOM     23  C   UNL     1      -2.231   2.408  25.355  0.00  0.00    +0.093 C 
ATOM     24  C   UNL     1      -2.937   2.829  25.282  0.00  0.00    +0.022 C 
ATOM     25  C   UNL     1      -3.381   2.770  24.588  0.00  0.00    +0.008 C 
ATOM     33  C   UNL     1      -3.119   2.291  23.969  0.00  0.00    +0.022 C 
ATOM     34  C   UNL     1      -2.413   1.871  24.044  0.00  0.00    +0.093 C 
BRANCH  25  26
ATOM     26  C   UNL     1      -4.087   3.190  24.515  0.00  0.00    +0.026 C 
BRANCH  26  27
ATOM     27  C   UNL     1      -4.777   2.904  24.865  0.00  0.00    -0.022 A 
ATOM     28  C   UNL     1      -5.161   2.249  24.544  0.00  0.00    -0.004 A 
ATOM     29  C   UNL     1      -5.851   1.962  24.894  0.00  0.00    -0.000 A 
ATOM     30  C   UNL     1      -6.156   2.331  25.567  0.00  0.00    -0.000 A 
ATOM     31  C   UNL     1      -5.771   2.986  25.888  0.00  0.00    -0.000 A 
ATOM     32  C   UNL     1      -5.082   3.273  25.538  0.00  0.00    -0.004 A 
ENDBRANCH  26  27
ENDBRANCH  25  26
ENDBRANCH  19  20
ENDBRANCH  18  19
TORSDOF 8
ENDMDL
