MODEL 1
REMARK VINA RESULT:     -11.7      0.000      0.000
REMARK  Name = 
REMARK  5 active torsions:
REMARK  status: ('A' for Active; 'I' for Inactive)
REMARK    1  A    between atoms: C_2  and  N_3
REMARK    2  A    between atoms: C_2  and  C_25
REMARK    3  A    between atoms: C_4  and  C_6
REMARK    4  A    between atoms: C_13  and  N_15
REMARK    5  A    between atoms: N_18  and  C_19
REMARK                            x       y       z     vdW  Elec       q    Type
REMARK                         _______ _______ _______ _____ _____    ______ ____
ROOT
ATOM      6  C   UNL     1      -3.649   2.745  24.735  0.00  0.00    +0.200 C 
ATOM      7  O   UNL     1      -3.057   2.581  24.183  0.00  0.00    -0.216 OA
ATOM      8  C   UNL     1      -4.084   3.149  25.308  0.00  0.00    +0.075 C 
ATOM      9  C   UNL     1      -4.761   2.804  25.630  0.00  0.00    +0.187 C 
ATOM     10  O   UNL     1      -5.196   3.208  26.203  0.00  0.00    -0.220 OA
ATOM     11  C   UNL     1      -5.002   2.056  25.379  0.00  0.00    +0.202 C 
ATOM     12  O   UNL     1      -5.679   1.712  25.701  0.00  0.00    -0.219 OA
ATOM     13  C   UNL     1      -4.567   1.653  24.806  0.00  0.00    +0.133 C 
ATOM     14  C   UNL     1      -3.890   1.997  24.484  0.00  0.00    +0.064 C 
ENDROOT
BRANCH  13  15
ATOM     15  N   UNL     1      -4.809   0.905  24.556  0.00  0.00    -0.186 NA
ATOM     16  C   UNL     1      -4.334   0.246  24.702  0.00  0.00    +0.339 C 
ATOM     17  O   UNL     1      -3.616   0.335  25.099  0.00  0.00    -0.249 OA
ATOM     18  N   UNL     1      -4.576  -0.501  24.452  0.00  0.00    -0.189 NA
BRANCH  18  19
ATOM     19  C   UNL     1      -4.102  -1.159  24.598  0.00  0.00    +0.097 C 
ATOM     20  C   UNL     1      -3.849  -1.633  23.972  0.00  0.00    +0.022 C 
ATOM     21  C   UNL     1      -3.373  -2.292  24.119  0.00  0.00    +0.002 C 
ATOM     22  C   UNL     1      -3.151  -2.476  24.892  0.00  0.00    +0.000 C 
ATOM     23  C   UNL     1      -3.404  -2.002  25.518  0.00  0.00    +0.002 C 
ATOM     24  C   UNL     1      -3.879  -1.344  25.371  0.00  0.00    +0.022 C 
ENDBRANCH  18  19
ENDBRANCH  13  15
BRANCH   6   4
ATOM      3  N   UNL     1      -2.449   3.413  25.131  0.00  0.00    -0.196 NA
ATOM      4  C   UNL     1      -3.201   3.436  24.794  0.00  0.00    +0.269 C 
ATOM      5  O   UNL     1      -3.507   4.150  24.516  0.00  0.00    -0.271 OA
BRANCH   3   2
ATOM      1  C   UNL     1      -2.372   4.840  25.146  0.00  0.00    +0.033 C 
ATOM      2  C   UNL     1      -2.002   4.104  25.190  0.00  0.00    +0.175 C 
BRANCH   2  25
ATOM     25  C   UNL     1      -1.185   4.059  25.293  0.00  0.00    +0.281 C 
ATOM     26  N   UNL     1      -0.693   4.621  24.942  0.00  0.00    -0.086 NA
ATOM     27  O   UNL     1      -0.859   3.452  25.748  0.00  0.00    -0.270 OA
ENDBRANCH   2  25
ENDBRANCH   3   2
ENDBRANCH   6   4
TORSDOF 5
ENDMDL
MODEL 2
REMARK VINA RESULT:     -11.7      2.182      5.626
REMARK  Name = 
REMARK  5 active torsions:
REMARK  status: ('A' for Active; 'I' for Inactive)
REMARK    1  A    between atoms: C_2  and  N_3
REMARK    2  A    between atoms: C_2  and  C_25
REMARK    3  A    between atoms: C_4  and  C_6
REMARK    4  A    between atoms: C_13  and  N_15
REMARK    5  A    between atoms: N_18  and  C_19
REMARK                            x       y       z     vdW  Elec       q    Type
REMARK                         _______ _______ _______ _____ _____    ______ ____
ROOT
ATOM      6  C   UNL     1      -1.782  -0.514  25.195  0.00  0.00    +0.200 C 
ATOM      7  O   UNL     1      -2.379  -0.425  25.758  0.00  0.00    -0.216 OA
ATOM      8  C   UNL     1      -1.341  -0.837  24.576  0.00  0.00    +0.075 C 
ATOM      9  C   UNL     1      -0.660  -0.454  24.312  0.00  0.00    +0.187 C 
ATOM     10  O   UNL     1      -0.219  -0.777  23.694  0.00  0.00    -0.220 OA
ATOM     11  C   UNL     1      -0.419   0.251  24.666  0.00  0.00    +0.202 C 
ATOM     12  O   UNL     1       0.262   0.634  24.402  0.00  0.00    -0.219 OA
ATOM     13  C   UNL     1      -0.860   0.574  25.284  0.00  0.00    +0.133 C 
ATOM     14  C   UNL     1      -1.541   0.191  25.548  0.00  0.00    +0.064 C 
ENDROOT
BRANCH  13  15
ATOM     15  N   UNL     1      -0.619   1.280  25.638  0.00  0.00    -0.186 NA
ATOM     16  C   UNL     1      -1.005   1.985  25.457  0.00  0.00    +0.339 C 
ATOM     17  O   UNL     1      -1.632   1.987  24.921  0.00  0.00    -0.249 OA
ATOM     18  N   UNL     1      -0.763   2.690  25.810  0.00  0.00    -0.189 NA
BRANCH  18  19
ATOM     19  C   UNL     1      -1.149   3.396  25.629  0.00  0.00    +0.097 C 
ATOM     20  C   UNL     1      -1.887   3.559  25.959  0.00  0.00    +0.022 C 
ATOM     21  C   UNL     1      -2.274   4.266  25.777  0.00  0.00    +0.002 C 
ATOM     22  C   UNL     1      -1.921   4.809  25.265  0.00  0.00    +0.000 C 
ATOM     23  C   UNL     1      -1.183   4.646  24.936  0.00  0.00    +0.002 C 
ATOM     24  C   UNL     1      -0.797   3.940  25.117  0.00  0.00    +0.022 C 
ENDBRANCH  18  19
ENDBRANCH  13  15
BRANCH   6   4
ATOM      3  N   UNL     1      -3.003  -1.114  24.757  0.00  0.00    -0.196 NA
ATOM      4  C   UNL     1      -2.230  -1.189  25.036  0.00  0.00    +0.269 C 
ATOM      5  O   UNL     1      -1.905  -1.937  25.157  0.00  0.00    -0.271 OA
BRANCH   3   2
ATOM      1  C   UNL     1      -3.257  -2.506  24.958  0.00  0.00    +0.033 C 
ATOM      2  C   UNL     1      -3.451  -1.789  24.599  0.00  0.00    +0.175 C 
BRANCH   2  25
ATOM     25  C   UNL     1      -4.092  -1.745  24.082  0.00  0.00    +0.281 C 
ATOM     26  N   UNL     1      -4.292  -2.398  23.617  0.00  0.00    -0.086 NA
ATOM     27  O   UNL     1      -4.534  -1.051  24.030  0.00  0.00    -0.270 OA
ENDBRANCH   2  25
ENDBRANCH   3   2
ENDBRANCH   6   4
TORSDOF 5
ENDMDL
MODEL 3
REMARK VINA RESULT:     -11.1      1.225      4.958
REMARK  Name = 
REMARK  5 active torsions:
REMARK  status: ('A' for Active; 'I' for Inactive)
REMARK    1  A    between atoms: C_2  and  N_3
REMARK    2  A    between atoms: C_2  and  C_25
REMARK    3  A    between atoms: C_4  and  C_6
REMARK    4  A    between atoms: C_13  and  N_15
REMARK    5  A    between atoms: N_18  and  C_19
REMARK                            x       y       z     vdW  Elec       q    Type
REMARK                         _______ _______ _______ _____ _____    ______ ____
ROOT
ATOM      6  C   UNL     1      -3.576   0.247  24.785  0.00  0.00    +0.200 C 
ATOM      7  O   UNL     1      -2.822   0.006  24.549  0.00  0.00    -0.216 OA
ATOM      8  C   UNL     1      -4.334   0.214  25.110  0.00  0.00    +0.075 C 
ATOM      9  C   UNL     1      -4.817   0.884  25.096  0.00  0.00    +0.187 C 
ATOM     10  O   UNL     1      -5.575   0.851  25.421  0.00  0.00    -0.220 OA
ATOM     11  C   UNL     1      -4.542   1.584  24.758  0.00  0.00    +0.202 C 
ATOM     12  O   UNL     1      -5.025   2.252  24.744  0.00  0.00    -0.219 OA
ATOM     13  C   UNL     1      -3.784   1.615  24.433  0.00  0.00    +0.133 C 
ATOM     14  C   UNL     1      -3.301   0.947  24.447  0.00  0.00    +0.064 C 
ENDROOT
BRANCH  13  15
ATOM     15  N   UNL     1      -3.510   2.316  24.094  0.00  0.00    -0.186 NA
ATOM     16  C   UNL     1      -2.917   2.751  24.468  0.00  0.00    +0.339 C 
ATOM     17  O   UNL     1      -2.597   2.485  25.180  0.00  0.00    -0.249 OA
ATOM     18  N   UNL     1      -2.643   3.451  24.130  0.00  0.00    -0.189 NA
BRANCH  18  19
ATOM     19  C   UNL     1      -2.050   3.885  24.503  0.00  0.00    +0.097 C 
ATOM     20  C   UNL     1      -2.247   4.530  24.978  0.00  0.00    +0.022 C 
ATOM     21  C   UNL     1      -1.654   4.965  25.353  0.00  0.00    +0.002 C 
ATOM     22  C   UNL     1      -0.862   4.754  25.251  0.00  0.00    +0.000 C 
ATOM     23  C   UNL     1      -0.665   4.109  24.776  0.00  0.00    +0.002 C 
ATOM     24  C   UNL     1      -1.258   3.675  24.402  0.00  0.00    +0.022 C 
ENDBRANCH  18  19
ENDBRANCH  13  15
BRANCH   6   4
ATOM      3  N   UNL     1      -3.615  -1.151  24.490  0.00  0.00    -0.196 NA
ATOM      4  C   UNL     1      -3.589  -0.538  25.041  0.00  0.00    +0.269 C 
ATOM      5  O   UNL     1      -3.577  -0.708  25.849  0.00  0.00    -0.271 OA
BRANCH   3   2
ATOM      1  C   UNL     1      -3.483  -2.113  25.540  0.00  0.00    +0.033 C 
ATOM      2  C   UNL     1      -3.628  -1.936  24.747  0.00  0.00    +0.175 C 
BRANCH   2  25
ATOM     25  C   UNL     1      -3.785  -2.542  24.210  0.00  0.00    +0.281 C 
ATOM     26  N   UNL     1      -3.257  -3.173  24.135  0.00  0.00    -0.086 NA
ATOM     27  O   UNL     1      -4.468  -2.519  23.749  0.00  0.00    -0.270 OA
ENDBRANCH   2  25
ENDBRANCH   3   2
ENDBRANCH   6   4
TORSDOF 5
ENDMDL
MODEL 4
REMARK VINA RESULT:     -10.7      2.210      3.232
REMARK  Name = 
REMARK  5 active torsions:
REMARK  status: ('A' for Active; 'I' for Inactive)
REMARK    1  A    between atoms: C_2  and  N_3
REMARK    2  A    between atoms: C_2  and  C_25
REMARK    3  A    between atoms: C_4  and  C_6
REMARK    4  A    between atoms: C_13  and  N_15
REMARK    5  A    between atoms: N_18  and  C_19
REMARK                            x       y       z     vdW  Elec       q    Type
REMARK                         _______ _______ _______ _____ _____    ______ ____
ROOT
ATOM      6  C   UNL     1      -0.858   1.742  25.280  0.00  0.00    +0.200 C 
ATOM      7  O   UNL     1      -1.362   1.794  25.932  0.00  0.00    -0.216 OA
ATOM      8  C   UNL     1      -0.375   1.975  24.652  0.00  0.00    +0.075 C 
ATOM      9  C   UNL     1      -0.009   1.405  24.182  0.00  0.00    +0.187 C 
ATOM     10  O   UNL     1       0.475   1.639  23.554  0.00  0.00    -0.220 OA
ATOM     11  C   UNL     1      -0.125   0.604  24.337  0.00  0.00    +0.202 C 
ATOM     12  O   UNL     1       0.242   0.035  23.866  0.00  0.00    -0.219 OA
ATOM     13  C   UNL     1      -0.607   0.371  24.964  0.00  0.00    +0.133 C 
ATOM     14  C   UNL     1      -0.974   0.940  25.436  0.00  0.00    +0.064 C 
ENDROOT
BRANCH  13  15
ATOM     15  N   UNL     1      -0.723  -0.431  25.120  0.00  0.00    -0.186 NA
ATOM     16  C   UNL     1      -1.447  -0.785  24.945  0.00  0.00    +0.339 C 
ATOM     17  O   UNL     1      -2.056  -0.338  24.615  0.00  0.00    -0.249 OA
ATOM     18  N   UNL     1      -1.562  -1.587  25.101  0.00  0.00    -0.189 NA
BRANCH  18  19
ATOM     19  C   UNL     1      -2.286  -1.941  24.926  0.00  0.00    +0.097 C 
ATOM     20  C   UNL     1      -2.362  -2.417  24.256  0.00  0.00    +0.022 C 
ATOM     21  C   UNL     1      -3.086  -2.771  24.081  0.00  0.00    +0.002 C 
ATOM     22  C   UNL     1      -3.735  -2.650  24.577  0.00  0.00    +0.000 C 
ATOM     23  C   UNL     1      -3.659  -2.174  25.246  0.00  0.00    +0.002 C 
ATOM     24  C   UNL     1      -2.935  -1.820  25.421  0.00  0.00    +0.022 C 
ENDBRANCH  18  19
ENDBRANCH  13  15
BRANCH   6   4
ATOM      3  N   UNL     1      -1.636   2.938  25.199  0.00  0.00    -0.196 NA
ATOM      4  C   UNL     1      -0.917   2.562  25.350  0.00  0.00    +0.269 C 
ATOM      5  O   UNL     1      -0.258   3.006  25.573  0.00  0.00    -0.271 OA
BRANCH   3   2
ATOM      1  C   UNL     1      -1.012   4.219  25.313  0.00  0.00    +0.033 C 
ATOM      2  C   UNL     1      -1.695   3.758  25.269  0.00  0.00    +0.175 C 
BRANCH   2  25
ATOM     25  C   UNL     1      -2.437   4.117  25.296  0.00  0.00    +0.281 C 
ATOM     26  N   UNL     1      -2.727   4.412  26.010  0.00  0.00    -0.086 NA
ATOM     27  O   UNL     1      -2.890   4.181  24.609  0.00  0.00    -0.270 OA
ENDBRANCH   2  25
ENDBRANCH   3   2
ENDBRANCH   6   4
TORSDOF 5
ENDMDL
MODEL 5
REMARK VINA RESULT:     -10.6      1.511      2.555
REMARK  Name = 
REMARK  5 active torsions:
REMARK  status: ('A' for Active; 'I' for Inactive)
REMARK    1  A    between atoms: C_2  and  N_3
REMARK    2  A    between atoms: C_2  and  C_25
REMARK    3  A    between atoms: C_4  and  C_6
REMARK    4  A    between atoms: C_13  and  N_15
REMARK    5  A    between atoms: N_18  and  C_19
REMARK                            x       y       z     vdW  Elec       q    Type
REMARK                         _______ _______ _______ _____ _____    ______ ____
ROOT
ATOM      6  C   UNL     1      -3.104   2.222  24.621  0.00  0.00    +0.200 C 
ATOM      7  O   UNL     1      -3.775   2.083  24.160  0.00  0.00    -0.216 OA
ATOM      8  C   UNL     1      -2.578   2.606  25.128  0.00  0.00    +0.075 C 
ATOM      9  C   UNL     1      -1.870   2.239  25.341  0.00  0.00    +0.187 C 
ATOM     10  O   UNL     1      -1.344   2.622  25.848  0.00  0.00    -0.220 OA
ATOM     11  C   UNL     1      -1.689   1.490  25.048  0.00  0.00    +0.202 C 
ATOM     12  O   UNL     1      -0.982   1.124  25.261  0.00  0.00    -0.219 OA
ATOM     13  C   UNL     1      -2.215   1.107  24.541  0.00  0.00    +0.133 C 
ATOM     14  C   UNL     1      -2.923   1.473  24.327  0.00  0.00    +0.064 C 
ENDROOT
BRANCH  13  15
ATOM     15  N   UNL     1      -2.033   0.357  24.248  0.00  0.00    -0.186 NA
ATOM     16  C   UNL     1      -2.512  -0.288  24.437  0.00  0.00    +0.339 C 
ATOM     17  O   UNL     1      -3.173  -0.183  24.919  0.00  0.00    -0.249 OA
ATOM     18  N   UNL     1      -2.329  -1.036  24.143  0.00  0.00    -0.189 NA
BRANCH  18  19
ATOM     19  C   UNL     1      -2.808  -1.681  24.332  0.00  0.00    +0.097 C 
ATOM     20  C   UNL     1      -3.503  -1.816  23.910  0.00  0.00    +0.022 C 
ATOM     21  C   UNL     1      -3.982  -2.462  24.099  0.00  0.00    +0.002 C 
ATOM     22  C   UNL     1      -3.765  -2.971  24.711  0.00  0.00    +0.000 C 
ATOM     23  C   UNL     1      -3.070  -2.835  25.133  0.00  0.00    +0.002 C 
ATOM     24  C   UNL     1      -2.591  -2.191  24.944  0.00  0.00    +0.022 C 
ENDBRANCH  18  19
ENDBRANCH  13  15
BRANCH   6   4
ATOM      3  N   UNL     1      -4.211   2.914  25.201  0.00  0.00    -0.196 NA
ATOM      4  C   UNL     1      -3.518   2.924  24.754  0.00  0.00    +0.269 C 
ATOM      5  O   UNL     1      -3.240   3.634  24.440  0.00  0.00    -0.271 OA
BRANCH   3   2
ATOM      1  C   UNL     1      -4.329   4.330  25.051  0.00  0.00    +0.033 C 
ATOM      2  C   UNL     1      -4.626   3.615  25.335  0.00  0.00    +0.175 C 
BRANCH   2  25
ATOM     25  C   UNL     1      -5.337   3.600  25.752  0.00  0.00    +0.281 C 
ATOM     26  N   UNL     1      -5.901   4.190  25.627  0.00  0.00    -0.086 NA
ATOM     27  O   UNL     1      -5.485   2.996  26.294  0.00  0.00    -0.270 OA
ENDBRANCH   2  25
ENDBRANCH   3   2
ENDBRANCH   6   4
TORSDOF 5
ENDMDL
MODEL 6
REMARK VINA RESULT:     -10.5      2.342      4.394
REMARK  Name = 
REMARK  5 active torsions:
REMARK  status: ('A' for Active; 'I' for Inactive)
REMARK    1  A    between atoms: C_2  and  N_3
REMARK    2  A    between atoms: C_2  and  C_25
REMARK    3  A    between atoms: C_4  and  C_6
REMARK    4  A    between atoms: C_13  and  N_15
REMARK    5  A    between atoms: N_18  and  C_19
REMARK                            x       y       z     vdW  Elec       q    Type
REMARK                         _______ _______ _______ _____ _____    ______ ____
ROOT
ATOM      6  C   UNL     1      -1.204   1.220  24.446  0.00  0.00    +0.200 C 
ATOM      7  O   UNL     1      -1.627   0.811  23.867  0.00  0.00    -0.216 OA
ATOM      8  C   UNL     1      -0.604   1.406  24.981  0.00  0.00    +0.075 C 
ATOM      9  C   UNL     1      -0.661   2.089  25.442  0.00  0.00    +0.187 C 
ATOM     10  O   UNL     1      -0.061   2.275  25.977  0.00  0.00    -0.220 OA
ATOM     11  C   UNL     1      -1.316   2.584  25.367  0.00  0.00    +0.202 C 
ATOM     12  O   UNL     1      -1.372   3.266  25.827  0.00  0.00    -0.219 OA
ATOM     13  C   UNL     1      -1.915   2.397  24.832  0.00  0.00    +0.133 C 
ATOM     14  C   UNL     1      -1.860   1.715  24.372  0.00  0.00    +0.064 C 
ENDROOT
BRANCH  13  15
ATOM     15  N   UNL     1      -2.571   2.893  24.758  0.00  0.00    -0.186 NA
ATOM     16  C   UNL     1      -3.321   2.620  24.968  0.00  0.00    +0.339 C 
ATOM     17  O   UNL     1      -3.416   1.852  25.253  0.00  0.00    -0.249 OA
ATOM     18  N   UNL     1      -3.975   3.116  24.894  0.00  0.00    -0.189 NA
BRANCH  18  19
ATOM     19  C   UNL     1      -4.725   2.844  25.104  0.00  0.00    +0.097 C 
ATOM     20  C   UNL     1      -5.140   2.345  24.596  0.00  0.00    +0.022 C 
ATOM     21  C   UNL     1      -5.890   2.072  24.806  0.00  0.00    +0.002 C 
ATOM     22  C   UNL     1      -6.225   2.299  25.525  0.00  0.00    +0.000 C 
ATOM     23  C   UNL     1      -5.809   2.798  26.034  0.00  0.00    +0.002 C 
ATOM     24  C   UNL     1      -5.060   3.071  25.824  0.00  0.00    +0.022 C 
ENDBRANCH  18  19
ENDBRANCH  13  15
BRANCH   6   4
ATOM      3  N   UNL     1      -0.922  -0.177  24.549  0.00  0.00    -0.196 NA
ATOM      4  C   UNL     1      -0.695   0.582  24.320  0.00  0.00    +0.269 C 
ATOM      5  O   UNL     1       0.039   0.704  23.964  0.00  0.00    -0.271 OA
BRANCH   3   2
ATOM      1  C   UNL     1       0.238  -0.730  23.923  0.00  0.00    +0.033 C 
ATOM      2  C   UNL     1      -0.413  -0.815  24.422  0.00  0.00    +0.175 C 
BRANCH   2  25
ATOM     25  C   UNL     1      -0.556  -1.537  24.795  0.00  0.00    +0.281 C 
ATOM     26  N   UNL     1      -1.087  -2.075  24.462  0.00  0.00    -0.086 NA
ATOM     27  O   UNL     1      -0.170  -1.721  25.501  0.00  0.00    -0.270 OA
ENDBRANCH   2  25
ENDBRANCH   3   2
ENDBRANCH   6   4
TORSDOF 5
ENDMDL
