REMARK  Name = 
REMARK  8 active torsions:
REMARK  status: ('A' for Active; 'I' for Inactive)
REMARK    1  A    between atoms: O_2  and  C_3
REMARK    2  A    between atoms: C_6  and  N_7
REMARK    3  A    between atoms: C_8  and  O_10
REMARK    4  A    between atoms: O_10  and  C_11
REMARK    5  A    between atoms: C_11  and  C_12
REMARK    6  A    between atoms: C_19  and  C_20
REMARK    7  A    between atoms: C_22  and  C_26
REMARK    8  A    between atoms: C_27  and  O_28
REMARK                            x       y       z     vdW  Elec       q    Type
REMARK                         _______ _______ _______ _____ _____    ______ ____
ROOT
ATOM     12  C   UNL     1       1.814  -2.106   0.000  0.00  0.00    +0.102 C 
ATOM     13  C   UNL     1       1.661  -1.343   0.000  0.00  0.00    +0.020 C 
ATOM     14  C   UNL     1       0.923  -1.010   0.000  0.00  0.00    +0.010 C 
ATOM     15  C   UNL     1       0.961  -0.114   0.000  0.00  0.00    +0.018 C 
ATOM     16  C   UNL     1       1.205  -0.720   0.000  0.00  0.00    +0.072 C 
ATOM     17  N   UNL     1       1.065  -1.759   0.000  0.00  0.00    -0.270 NA
ATOM     18  C   UNL     1       0.226  -2.118   0.000  0.00  0.00    +0.078 C 
ATOM     19  C   UNL     1       0.119  -1.362   0.000  0.00  0.00    +0.056 C 
ENDROOT
BRANCH  19  20
ATOM     20  C   UNL     1      -0.602  -0.960   0.000  0.00  0.00    +0.058 A 
ATOM     21  C   UNL     1      -1.350  -1.307   0.000  0.00  0.00    +0.035 A 
ATOM     22  C   UNL     1      -1.911  -0.703   0.000  0.00  0.00    +0.105 A 
ATOM     23  N   UNL     1      -1.510   0.018   0.000  0.00  0.00    -0.169 NA
ATOM     24  N   UNL     1      -0.700  -0.141   0.000  0.00  0.00    -0.253 N 
ATOM     25  C   UNL     1      -0.095   0.420   0.000  0.00  0.00    +0.153 C 
BRANCH  22  26
ATOM     26  C   UNL     1      -2.730  -0.801   0.000  0.00  0.00    +0.053 A 
ATOM     27  C   UNL     1      -3.055  -1.560   0.000  0.00  0.00    +0.140 A 
ATOM     30  C   UNL     1      -3.874  -1.658   0.000  0.00  0.00    +0.037 A 
ATOM     31  C   UNL     1      -4.369  -0.998   0.000  0.00  0.00    +0.003 A 
ATOM     32  C   UNL     1      -4.044  -0.239   0.000  0.00  0.00    +0.000 A 
ATOM     33  C   UNL     1      -3.225  -0.141   0.000  0.00  0.00    +0.005 A 
BRANCH  27  28
ATOM     28  O   UNL     1      -2.560  -2.220   0.000  0.00  0.00    -0.471 OA
ATOM     29  C   UNL     1      -2.884  -2.978   0.000  0.00  0.00    +0.252 C 
ENDBRANCH  27  28
ENDBRANCH  22  26
ENDBRANCH  19  20
BRANCH  12  11
ATOM     11  C   UNL     1       2.324  -2.754   0.000  0.00  0.00    +0.226 C 
BRANCH  11  10
ATOM     10  O   UNL     1       2.018  -3.520   0.000  0.00  0.00    -0.432 OA
BRANCH  10   8
ATOM      7  N   UNL     1       2.223  -4.934   0.000  0.00  0.00    -0.142 NA
ATOM      8  C   UNL     1       2.529  -4.168   0.000  0.00  0.00    +0.425 C 
ATOM      9  O   UNL     1       3.345  -4.050   0.000  0.00  0.00    -0.224 OA
BRANCH   7   6
ATOM      3  C   UNL     1       3.754  -6.878   0.000  0.00  0.00    +0.139 A 
ATOM      4  C   UNL     1       2.938  -6.996   0.000  0.00  0.00    +0.038 A 
ATOM      5  C   UNL     1       2.427  -6.348   0.000  0.00  0.00    +0.020 A 
ATOM      6  C   UNL     1       2.733  -5.582   0.000  0.00  0.00    +0.077 A 
ATOM     34  C   UNL     1       3.550  -5.464   0.000  0.00  0.00    +0.020 A 
ATOM     35  C   UNL     1       4.060  -6.112   0.000  0.00  0.00    +0.038 A 
BRANCH   3   2
ATOM      1  C   UNL     1       5.081  -7.409   0.000  0.00  0.00    +0.252 C 
ATOM      2  O   UNL     1       4.264  -7.527   0.000  0.00  0.00    -0.471 OA
ENDBRANCH   3   2
ENDBRANCH   7   6
ENDBRANCH  10   8
ENDBRANCH  11  10
ENDBRANCH  12  11
TORSDOF 8
