REMARK  Name = 
REMARK  6 active torsions:
REMARK  status: ('A' for Active; 'I' for Inactive)
REMARK    1  A    between atoms: C_2  and  C_3
REMARK    2  A    between atoms: C_3  and  N_4
REMARK    3  A    between atoms: N_7  and  C_8
REMARK    4  A    between atoms: C_12  and  N_16
REMARK    5  A    between atoms: C_19  and  C_23
REMARK    6  A    between atoms: C_26  and  C_29
REMARK                            x       y       z     vdW  Elec       q    Type
REMARK                         _______ _______ _______ _____ _____    ______ ____
ROOT
ATOM     16  N   UNL     1       3.094   1.197   0.000  0.00  0.00    -0.200 NA
ATOM     17  C   UNL     1       3.901   1.369   0.000  0.00  0.00    +0.237 A 
ATOM     18  N   UNL     1       4.156   2.153   0.000  0.00  0.00    -0.212 NA
ATOM     19  C   UNL     1       4.963   2.325   0.000  0.00  0.00    +0.086 A 
ATOM     20  C   UNL     1       5.515   1.712   0.000  0.00  0.00    +0.040 A 
ATOM     21  C   UNL     1       5.260   0.927   0.000  0.00  0.00    +0.103 A 
ATOM     22  N   UNL     1       4.453   0.756   0.000  0.00  0.00    -0.211 NA
ENDROOT
BRANCH  16  12
ATOM      8  C   UNL     1       1.270  -0.922   0.000  0.00  0.00    +0.156 C 
ATOM      9  C   UNL     1       0.785  -0.255   0.000  0.00  0.00    +0.166 C 
ATOM     10  O   UNL     1       1.270   0.412   0.000  0.00  0.00    -0.350 OA
ATOM     11  C   UNL     1       2.054   0.158   0.000  0.00  0.00    +0.166 C 
ATOM     12  C   UNL     1       2.839   0.412   0.000  0.00  0.00    +0.154 C 
ATOM     13  C   UNL     1       3.324  -0.255   0.000  0.00  0.00    +0.166 C 
ATOM     14  O   UNL     1       2.839  -0.922   0.000  0.00  0.00    -0.350 OA
ATOM     15  C   UNL     1       2.054  -0.667   0.000  0.00  0.00    +0.166 C 
BRANCH   8   7
ATOM      4  N   UNL     1      -0.047  -2.663   0.000  0.00  0.00    -0.182 NA
ATOM      5  C   UNL     1       0.208  -1.879   0.000  0.00  0.00    +0.340 C 
ATOM      6  O   UNL     1      -0.344  -1.265   0.000  0.00  0.00    -0.249 OA
ATOM      7  N   UNL     1       1.015  -1.707   0.000  0.00  0.00    -0.184 NA
BRANCH   4   3
ATOM      3  C   UNL     1      -0.854  -2.835   0.000  0.00  0.00    +0.143 C 
BRANCH   3   2
ATOM      1  C   UNL     1      -1.916  -3.791   0.000  0.00  0.00    -0.003 C 
ATOM      2  C   UNL     1      -1.109  -3.619   0.000  0.00  0.00    -0.003 C 
ENDBRANCH   3   2
ENDBRANCH   4   3
ENDBRANCH   8   7
ENDBRANCH  16  12
BRANCH  19  23
ATOM     23  C   UNL     1       5.218   3.109   0.000  0.00  0.00    +0.018 A 
ATOM     24  C   UNL     1       4.665   3.723   0.000  0.00  0.00    +0.001 A 
ATOM     25  C   UNL     1       4.920   4.507   0.000  0.00  0.00    +0.000 A 
ATOM     26  C   UNL     1       5.727   4.679   0.000  0.00  0.00    +0.000 A 
ATOM     27  C   UNL     1       6.279   4.066   0.000  0.00  0.00    +0.000 A 
ATOM     28  C   UNL     1       6.024   3.281   0.000  0.00  0.00    +0.001 A 
BRANCH  26  29
ATOM     29  C   UNL     1       5.982   5.463   0.000  0.00  0.00    +0.000 A 
ATOM     30  C   UNL     1       5.430   6.076   0.000  0.00  0.00    +0.000 A 
ATOM     31  C   UNL     1       5.685   6.861   0.000  0.00  0.00    +0.000 A 
ATOM     32  C   UNL     1       6.492   7.032   0.000  0.00  0.00    +0.000 A 
ATOM     33  C   UNL     1       7.044   6.419   0.000  0.00  0.00    +0.000 A 
ATOM     34  C   UNL     1       6.789   5.635   0.000  0.00  0.00    +0.000 A 
ENDBRANCH  26  29
ENDBRANCH  19  23
TORSDOF 6
