REMARK  Name = 
REMARK  6 active torsions:
REMARK  status: ('A' for Active; 'I' for Inactive)
REMARK    1  A    between atoms: C_5  and  C_6
REMARK    2  A    between atoms: C_6  and  N_7
REMARK    3  A    between atoms: N_7  and  C_8
REMARK    4  A    between atoms: C_8  and  C_9
REMARK    5  A    between atoms: C_9  and  C_10
REMARK    6  A    between atoms: C_13  and  C_15
REMARK                            x       y       z     vdW  Elec       q    Type
REMARK                         _______ _______ _______ _____ _____    ______ ____
ROOT
ATOM      9  C   UNL     1       3.365  -1.918   0.000  0.00  0.00    +0.070 C 
ENDROOT
BRANCH   9  10
ATOM     10  C   UNL     1       2.568  -2.132   0.000  0.00  0.00    +0.102 A 
ATOM     11  N   UNL     1       2.273  -2.902   0.000  0.00  0.00    -0.081 NA
ATOM     12  O   UNL     1       1.449  -2.859   0.000  0.00  0.00    -0.349 OA
ATOM     13  C   UNL     1       1.236  -2.062   0.000  0.00  0.00    +0.230 A 
ATOM     14  C   UNL     1       1.927  -1.613   0.000  0.00  0.00    +0.063 A 
BRANCH  13  15
ATOM     15  C   UNL     1       0.465  -1.766   0.000  0.00  0.00    +0.286 C 
ATOM     16  O   UNL     1      -0.176  -2.285   0.000  0.00  0.00    -0.266 OA
ATOM     17  N   UNL     1       0.336  -0.951   0.000  0.00  0.00    -0.274 N 
ATOM     18  C   UNL     1      -0.434  -0.656   0.000  0.00  0.00    +0.094 C 
ATOM     19  C   UNL     1      -0.563   0.159   0.000  0.00  0.00    +0.022 C 
ATOM     20  C   UNL     1       0.078   0.678   0.000  0.00  0.00    +0.004 C 
ATOM     21  C   UNL     1       0.848   0.383   0.000  0.00  0.00    +0.022 C 
ATOM     22  C   UNL     1       0.977  -0.432   0.000  0.00  0.00    +0.094 C 
ENDBRANCH  13  15
ENDBRANCH   9  10
BRANCH   9   8
ATOM      8  C   UNL     1       3.949  -2.502   0.000  0.00  0.00    +0.120 C 
ATOM     23  C   UNL     1       4.532  -3.085   0.000  0.00  0.00    +0.161 C 
ATOM     24  O   UNL     1       3.949  -3.668   0.000  0.00  0.00    -0.351 OA
ATOM     25  C   UNL     1       3.365  -3.085   0.000  0.00  0.00    +0.161 C 
BRANCH   8   7
ATOM      7  N   UNL     1       4.532  -1.918   0.000  0.00  0.00    -0.211 NA
BRANCH   7   6
ATOM      6  C   UNL     1       4.319  -1.121   0.000  0.00  0.00    +0.115 C 
BRANCH   6   5
ATOM      1  F   UNL     1       6.652   1.212   0.000  0.00  0.00    -0.204 F 
ATOM      2  C   UNL     1       6.069   0.629   0.000  0.00  0.00    +0.140 A 
ATOM      3  C   UNL     1       6.282  -0.168   0.000  0.00  0.00    +0.029 A 
ATOM      4  C   UNL     1       5.699  -0.751   0.000  0.00  0.00    -0.001 A 
ATOM      5  C   UNL     1       4.902  -0.538   0.000  0.00  0.00    -0.005 A 
ATOM     26  C   UNL     1       4.689   0.259   0.000  0.00  0.00    -0.001 A 
ATOM     27  C   UNL     1       5.272   0.842   0.000  0.00  0.00    +0.029 A 
ENDBRANCH   6   5
ENDBRANCH   7   6
ENDBRANCH   8   7
ENDBRANCH   9   8
TORSDOF 6
