MODEL 1
REMARK VINA RESULT:      -9.3      0.000      0.000
REMARK  Name = 
REMARK  7 active torsions:
REMARK  status: ('A' for Active; 'I' for Inactive)
REMARK    1  A    between atoms: O_2  and  C_3
REMARK    2  A    between atoms: C_3  and  C_4
REMARK    3  A    between atoms: C_4  and  O_5
REMARK    4  A    between atoms: O_5  and  C_6
REMARK    5  A    between atoms: C_9  and  C_12
REMARK    6  A    between atoms: C_15  and  C_17
REMARK    7  A    between atoms: N_21  and  C_22
REMARK                            x       y       z     vdW  Elec       q    Type
REMARK                         _______ _______ _______ _____ _____    ______ ____
ROOT
ATOM     12  C   UNL     1      -1.214   0.465  24.537  0.00  0.00    +0.205 A 
ATOM     13  N   UNL     1      -1.277   0.410  25.358  0.00  0.00    -0.056 NA
ATOM     14  O   UNL     1      -2.061   0.556  25.565  0.00  0.00    -0.336 OA
ATOM     15  C   UNL     1      -2.484   0.702  24.871  0.00  0.00    +0.251 A 
ATOM     16  N   UNL     1      -1.961   0.646  24.237  0.00  0.00    -0.190 NA
ENDROOT
BRANCH  12   9
ATOM      6  C   UNL     1       0.850   0.145  23.209  0.00  0.00    +0.225 A 
ATOM      7  C   UNL     1       0.433  -0.509  23.488  0.00  0.00    +0.058 A 
ATOM      8  C   UNL     1      -0.255  -0.403  23.930  0.00  0.00    +0.010 A 
ATOM      9  C   UNL     1      -0.526   0.359  24.095  0.00  0.00    +0.058 A 
ATOM     10  C   UNL     1      -0.109   1.014  23.816  0.00  0.00    +0.105 A 
ATOM     11  N   UNL     1       0.579   0.908  23.373  0.00  0.00    -0.210 NA
BRANCH   6   5
ATOM      5  O   UNL     1       1.538   0.039  22.767  0.00  0.00    -0.457 OA
BRANCH   5   4
ATOM      4  C   UNL     1       2.235   0.421  22.989  0.00  0.00    +0.239 C 
BRANCH   4   3
ATOM      3  C   UNL     1       2.940   0.256  22.593  0.00  0.00    +0.189 C 
BRANCH   3   2
ATOM      1  C   UNL     1       4.345   0.463  22.745  0.00  0.00    +0.174 C 
ATOM      2  O   UNL     1       3.583   0.767  22.666  0.00  0.00    -0.347 OA
ENDBRANCH   3   2
ENDBRANCH   4   3
ENDBRANCH   5   4
ENDBRANCH   6   5
ENDBRANCH  12   9
BRANCH  15  17
ATOM     17  C   UNL     1      -3.290   0.874  24.823  0.00  0.00    +0.138 C 
ATOM     18  C   UNL     1      -3.625   1.627  24.809  0.00  0.00    +0.027 C 
ATOM     19  C   UNL     1      -4.445   1.540  24.757  0.00  0.00    +0.019 C 
ATOM     20  C   UNL     1      -4.614   0.733  24.740  0.00  0.00    +0.072 C 
ATOM     21  N   UNL     1      -3.902   0.321  24.780  0.00  0.00    -0.268 NA
BRANCH  21  22
ATOM     22  C   UNL     1      -3.814  -0.499  24.778  0.00  0.00    +0.061 C 
ATOM     23  C   UNL     1      -3.836  -0.913  24.065  0.00  0.00    +0.033 C 
ATOM     24  C   UNL     1      -3.747  -1.734  24.062  0.00  0.00    +0.074 C 
ATOM     25  N   UNL     1      -3.637  -2.140  24.772  0.00  0.00    -0.271 NA
ATOM     26  C   UNL     1      -3.549  -2.960  24.769  0.00  0.00    +0.090 C 
ATOM     27  C   UNL     1      -3.615  -1.725  25.485  0.00  0.00    +0.074 C 
ATOM     28  C   UNL     1      -3.704  -0.904  25.487  0.00  0.00    +0.033 C 
ENDBRANCH  21  22
ENDBRANCH  15  17
TORSDOF 7
ENDMDL
MODEL 2
REMARK VINA RESULT:      -8.9      2.614      4.538
REMARK  Name = 
REMARK  7 active torsions:
REMARK  status: ('A' for Active; 'I' for Inactive)
REMARK    1  A    between atoms: O_2  and  C_3
REMARK    2  A    between atoms: C_3  and  C_4
REMARK    3  A    between atoms: C_4  and  O_5
REMARK    4  A    between atoms: O_5  and  C_6
REMARK    5  A    between atoms: C_9  and  C_12
REMARK    6  A    between atoms: C_15  and  C_17
REMARK    7  A    between atoms: N_21  and  C_22
REMARK                            x       y       z     vdW  Elec       q    Type
REMARK                         _______ _______ _______ _____ _____    ______ ____
ROOT
ATOM     12  C   UNL     1      -0.956   1.815  25.482  0.00  0.00    +0.205 A 
ATOM     13  N   UNL     1      -0.744   2.091  26.230  0.00  0.00    -0.056 NA
ATOM     14  O   UNL     1      -0.742   2.915  26.207  0.00  0.00    -0.336 OA
ATOM     15  C   UNL     1      -0.953   3.149  25.444  0.00  0.00    +0.251 A 
ATOM     16  N   UNL     1      -1.085   2.469  24.997  0.00  0.00    -0.190 NA
ENDROOT
BRANCH  12   9
ATOM      6  C   UNL     1      -1.168  -0.558  24.813  0.00  0.00    +0.225 A 
ATOM      7  C   UNL     1      -1.374  -0.325  25.576  0.00  0.00    +0.058 A 
ATOM      8  C   UNL     1      -1.303   0.466  25.799  0.00  0.00    +0.010 A 
ATOM      9  C   UNL     1      -1.027   1.024  25.259  0.00  0.00    +0.058 A 
ATOM     10  C   UNL     1      -0.821   0.791  24.494  0.00  0.00    +0.105 A 
ATOM     11  N   UNL     1      -0.892  -0.000  24.271  0.00  0.00    -0.210 NA
BRANCH   6   5
ATOM      5  O   UNL     1      -1.239  -1.349  24.590  0.00  0.00    -0.457 OA
BRANCH   5   4
ATOM      4  C   UNL     1      -1.954  -1.747  24.700  0.00  0.00    +0.239 C 
BRANCH   4   3
ATOM      3  C   UNL     1      -2.097  -2.456  24.303  0.00  0.00    +0.189 C 
BRANCH   3   2
ATOM      1  C   UNL     1      -3.459  -2.884  24.248  0.00  0.00    +0.174 C 
ATOM      2  O   UNL     1      -2.699  -2.958  24.560  0.00  0.00    -0.347 OA
ENDBRANCH   3   2
ENDBRANCH   4   3
ENDBRANCH   5   4
ENDBRANCH   6   5
ENDBRANCH  12   9
BRANCH  15  17
ATOM     17  C   UNL     1      -1.019   3.927  25.177  0.00  0.00    +0.138 C 
ATOM     18  C   UNL     1      -0.398   4.410  24.929  0.00  0.00    +0.027 C 
ATOM     19  C   UNL     1      -0.715   5.140  24.710  0.00  0.00    +0.019 C 
ATOM     20  C   UNL     1      -1.532   5.107  24.823  0.00  0.00    +0.072 C 
ATOM     21  N   UNL     1      -1.720   4.359  25.111  0.00  0.00    -0.268 NA
BRANCH  21  22
ATOM     22  C   UNL     1      -2.476   4.087  25.301  0.00  0.00    +0.061 C 
ATOM     23  C   UNL     1      -2.953   3.756  24.714  0.00  0.00    +0.033 C 
ATOM     24  C   UNL     1      -3.709   3.484  24.903  0.00  0.00    +0.074 C 
ATOM     25  N   UNL     1      -3.987   3.543  25.678  0.00  0.00    -0.271 NA
ATOM     26  C   UNL     1      -4.742   3.270  25.867  0.00  0.00    +0.090 C 
ATOM     27  C   UNL     1      -3.510   3.873  26.264  0.00  0.00    +0.074 C 
ATOM     28  C   UNL     1      -2.754   4.145  26.075  0.00  0.00    +0.033 C 
ENDBRANCH  21  22
ENDBRANCH  15  17
TORSDOF 7
ENDMDL
MODEL 3
REMARK VINA RESULT:      -8.6      0.816      2.199
REMARK  Name = 
REMARK  7 active torsions:
REMARK  status: ('A' for Active; 'I' for Inactive)
REMARK    1  A    between atoms: O_2  and  C_3
REMARK    2  A    between atoms: C_3  and  C_4
REMARK    3  A    between atoms: C_4  and  O_5
REMARK    4  A    between atoms: O_5  and  C_6
REMARK    5  A    between atoms: C_9  and  C_12
REMARK    6  A    between atoms: C_15  and  C_17
REMARK    7  A    between atoms: N_21  and  C_22
REMARK                            x       y       z     vdW  Elec       q    Type
REMARK                         _______ _______ _______ _____ _____    ______ ____
ROOT
ATOM     12  C   UNL     1      -0.932   0.118  24.452  0.00  0.00    +0.205 A 
ATOM     13  N   UNL     1      -1.025   0.346  25.239  0.00  0.00    -0.056 NA
ATOM     14  O   UNL     1      -1.803   0.189  25.461  0.00  0.00    -0.336 OA
ATOM     15  C   UNL     1      -2.193  -0.136  24.809  0.00  0.00    +0.251 A 
ATOM     16  N   UNL     1      -1.654  -0.180  24.187  0.00  0.00    -0.190 NA
ENDROOT
BRANCH  12   9
ATOM      6  C   UNL     1       1.145   0.296  23.118  0.00  0.00    +0.225 A 
ATOM      7  C   UNL     1       0.786  -0.438  23.225  0.00  0.00    +0.058 A 
ATOM      8  C   UNL     1       0.093  -0.497  23.669  0.00  0.00    +0.010 A 
ATOM      9  C   UNL     1      -0.240   0.177  24.007  0.00  0.00    +0.058 A 
ATOM     10  C   UNL     1       0.120   0.913  23.900  0.00  0.00    +0.105 A 
ATOM     11  N   UNL     1       0.813   0.972  23.456  0.00  0.00    -0.210 NA
BRANCH   6   5
ATOM      5  O   UNL     1       1.838   0.356  22.674  0.00  0.00    -0.457 OA
BRANCH   5   4
ATOM      4  C   UNL     1       2.565   0.451  23.053  0.00  0.00    +0.239 C 
BRANCH   4   3
ATOM      3  C   UNL     1       3.264   0.438  22.615  0.00  0.00    +0.189 C 
BRANCH   3   2
ATOM      1  C   UNL     1       4.642   0.513  22.983  0.00  0.00    +0.174 C 
ATOM      2  O   UNL     1       3.914   0.881  22.862  0.00  0.00    -0.347 OA
ENDBRANCH   3   2
ENDBRANCH   4   3
ENDBRANCH   5   4
ENDBRANCH   6   5
ENDBRANCH  12   9
BRANCH  15  17
ATOM     17  C   UNL     1      -2.982  -0.375  24.788  0.00  0.00    +0.138 C 
ATOM     18  C   UNL     1      -3.260  -1.142  24.910  0.00  0.00    +0.027 C 
ATOM     19  C   UNL     1      -4.083  -1.128  24.837  0.00  0.00    +0.019 C 
ATOM     20  C   UNL     1      -4.311  -0.354  24.670  0.00  0.00    +0.072 C 
ATOM     21  N   UNL     1      -3.632   0.112  24.639  0.00  0.00    -0.268 NA
BRANCH  21  22
ATOM     22  C   UNL     1      -3.605   0.922  24.487  0.00  0.00    +0.061 C 
ATOM     23  C   UNL     1      -3.655   1.460  25.112  0.00  0.00    +0.033 C 
ATOM     24  C   UNL     1      -3.628   2.271  24.960  0.00  0.00    +0.074 C 
ATOM     25  N   UNL     1      -3.550   2.544  24.185  0.00  0.00    -0.271 NA
ATOM     26  C   UNL     1      -3.523   3.354  24.035  0.00  0.00    +0.090 C 
ATOM     27  C   UNL     1      -3.500   2.006  23.562  0.00  0.00    +0.074 C 
ATOM     28  C   UNL     1      -3.527   1.195  23.713  0.00  0.00    +0.033 C 
ENDBRANCH  21  22
ENDBRANCH  15  17
TORSDOF 7
ENDMDL
MODEL 4
REMARK VINA RESULT:      -8.5      2.731      5.066
REMARK  Name = 
REMARK  7 active torsions:
REMARK  status: ('A' for Active; 'I' for Inactive)
REMARK    1  A    between atoms: O_2  and  C_3
REMARK    2  A    between atoms: C_3  and  C_4
REMARK    3  A    between atoms: C_4  and  O_5
REMARK    4  A    between atoms: O_5  and  C_6
REMARK    5  A    between atoms: C_9  and  C_12
REMARK    6  A    between atoms: C_15  and  C_17
REMARK    7  A    between atoms: N_21  and  C_22
REMARK                            x       y       z     vdW  Elec       q    Type
REMARK                         _______ _______ _______ _____ _____    ______ ____
ROOT
ATOM     12  C   UNL     1      -3.610   1.872  24.327  0.00  0.00    +0.205 A 
ATOM     13  N   UNL     1      -3.617   2.431  23.721  0.00  0.00    -0.056 NA
ATOM     14  O   UNL     1      -3.377   3.154  24.037  0.00  0.00    -0.336 OA
ATOM     15  C   UNL     1      -3.222   3.041  24.840  0.00  0.00    +0.251 A 
ATOM     16  N   UNL     1      -3.366   2.250  25.018  0.00  0.00    -0.190 NA
ENDROOT
BRANCH  12   9
ATOM      6  C   UNL     1      -4.215  -0.518  24.109  0.00  0.00    +0.225 A 
ATOM      7  C   UNL     1      -4.573  -0.053  24.689  0.00  0.00    +0.058 A 
ATOM      8  C   UNL     1      -4.371   0.743  24.761  0.00  0.00    +0.010 A 
ATOM      9  C   UNL     1      -3.811   1.076  24.254  0.00  0.00    +0.058 A 
ATOM     10  C   UNL     1      -3.453   0.610  23.674  0.00  0.00    +0.105 A 
ATOM     11  N   UNL     1      -3.655  -0.187  23.601  0.00  0.00    -0.210 NA
BRANCH   6   5
ATOM      5  O   UNL     1      -4.417  -1.314  24.037  0.00  0.00    -0.457 OA
BRANCH   5   4
ATOM      4  C   UNL     1      -3.894  -1.898  24.297  0.00  0.00    +0.239 C 
BRANCH   4   3
ATOM      3  C   UNL     1      -4.035  -2.690  24.113  0.00  0.00    +0.189 C 
BRANCH   3   2
ATOM      1  C   UNL     1      -2.824  -3.323  24.529  0.00  0.00    +0.174 C 
ATOM      2  O   UNL     1      -3.648  -3.285  24.532  0.00  0.00    -0.347 OA
ENDBRANCH   3   2
ENDBRANCH   4   3
ENDBRANCH   5   4
ENDBRANCH   6   5
ENDBRANCH  12   9
BRANCH  15  17
ATOM     17  C   UNL     1      -2.967   3.620  25.369  0.00  0.00    +0.138 C 
ATOM     18  C   UNL     1      -3.450   4.148  25.781  0.00  0.00    +0.027 C 
ATOM     19  C   UNL     1      -2.964   4.627  26.246  0.00  0.00    +0.019 C 
ATOM     20  C   UNL     1      -2.183   4.395  26.122  0.00  0.00    +0.072 C 
ATOM     21  N   UNL     1      -2.183   3.773  25.580  0.00  0.00    -0.268 NA
BRANCH  21  22
ATOM     22  C   UNL     1      -1.519   3.374  25.298  0.00  0.00    +0.061 C 
ATOM     23  C   UNL     1      -1.212   2.736  25.723  0.00  0.00    +0.033 C 
ATOM     24  C   UNL     1      -0.547   2.335  25.441  0.00  0.00    +0.074 C 
ATOM     25  N   UNL     1      -0.191   2.572  24.735  0.00  0.00    -0.271 NA
ATOM     26  C   UNL     1       0.473   2.172  24.454  0.00  0.00    +0.090 C 
ATOM     27  C   UNL     1      -0.499   3.210  24.312  0.00  0.00    +0.074 C 
ATOM     28  C   UNL     1      -1.163   3.610  24.594  0.00  0.00    +0.033 C 
ENDBRANCH  21  22
ENDBRANCH  15  17
TORSDOF 7
ENDMDL
MODEL 5
REMARK VINA RESULT:      -8.4      1.471      2.829
REMARK  Name = 
REMARK  7 active torsions:
REMARK  status: ('A' for Active; 'I' for Inactive)
REMARK    1  A    between atoms: O_2  and  C_3
REMARK    2  A    between atoms: C_3  and  C_4
REMARK    3  A    between atoms: C_4  and  O_5
REMARK    4  A    between atoms: O_5  and  C_6
REMARK    5  A    between atoms: C_9  and  C_12
REMARK    6  A    between atoms: C_15  and  C_17
REMARK    7  A    between atoms: N_21  and  C_22
REMARK                            x       y       z     vdW  Elec       q    Type
REMARK                         _______ _______ _______ _____ _____    ______ ____
ROOT
ATOM     12  C   UNL     1      -1.578   0.671  24.646  0.00  0.00    +0.205 A 
ATOM     13  N   UNL     1      -1.665   0.691  25.466  0.00  0.00    -0.056 NA
ATOM     14  O   UNL     1      -2.426   0.957  25.636  0.00  0.00    -0.336 OA
ATOM     15  C   UNL     1      -2.812   1.101  24.920  0.00  0.00    +0.251 A 
ATOM     16  N   UNL     1      -2.287   0.924  24.309  0.00  0.00    -0.190 NA
ENDROOT
BRANCH  12   9
ATOM      6  C   UNL     1       0.451  -0.028  23.414  0.00  0.00    +0.225 A 
ATOM      7  C   UNL     1       0.018  -0.583  23.843  0.00  0.00    +0.058 A 
ATOM      8  C   UNL     1      -0.659  -0.350  24.253  0.00  0.00    +0.010 A 
ATOM      9  C   UNL     1      -0.902   0.438  24.235  0.00  0.00    +0.058 A 
ATOM     10  C   UNL     1      -0.468   0.993  23.806  0.00  0.00    +0.105 A 
ATOM     11  N   UNL     1       0.209   0.760  23.395  0.00  0.00    -0.210 NA
BRANCH   6   5
ATOM      5  O   UNL     1       1.127  -0.261  23.003  0.00  0.00    -0.457 OA
BRANCH   5   4
ATOM      4  C   UNL     1       1.744   0.275  22.884  0.00  0.00    +0.239 C 
BRANCH   4   3
ATOM      3  C   UNL     1       2.484   0.005  22.640  0.00  0.00    +0.189 C 
BRANCH   3   2
ATOM      1  C   UNL     1       3.806   0.545  22.635  0.00  0.00    +0.174 C 
ATOM      2  O   UNL     1       3.037   0.537  22.337  0.00  0.00    -0.347 OA
ENDBRANCH   3   2
ENDBRANCH   4   3
ENDBRANCH   5   4
ENDBRANCH   6   5
ENDBRANCH  12   9
BRANCH  15  17
ATOM     17  C   UNL     1      -3.585   1.375  24.833  0.00  0.00    +0.138 C 
ATOM     18  C   UNL     1      -4.253   0.909  24.702  0.00  0.00    +0.027 C 
ATOM     19  C   UNL     1      -4.906   1.410  24.650  0.00  0.00    +0.019 C 
ATOM     20  C   UNL     1      -4.642   2.185  24.748  0.00  0.00    +0.072 C 
ATOM     21  N   UNL     1      -3.826   2.164  24.861  0.00  0.00    -0.268 NA
BRANCH  21  22
ATOM     22  C   UNL     1      -3.335   2.816  24.982  0.00  0.00    +0.061 C 
ATOM     23  C   UNL     1      -3.025   3.223  24.333  0.00  0.00    +0.033 C 
ATOM     24  C   UNL     1      -2.534   3.875  24.453  0.00  0.00    +0.074 C 
ATOM     25  N   UNL     1      -2.353   4.120  25.220  0.00  0.00    -0.271 NA
ATOM     26  C   UNL     1      -1.862   4.772  25.339  0.00  0.00    +0.090 C 
ATOM     27  C   UNL     1      -2.662   3.714  25.867  0.00  0.00    +0.074 C 
ATOM     28  C   UNL     1      -3.154   3.061  25.747  0.00  0.00    +0.033 C 
ENDBRANCH  21  22
ENDBRANCH  15  17
TORSDOF 7
ENDMDL
MODEL 6
REMARK VINA RESULT:      -8.0      2.579      3.120
REMARK  Name = 
REMARK  7 active torsions:
REMARK  status: ('A' for Active; 'I' for Inactive)
REMARK    1  A    between atoms: O_2  and  C_3
REMARK    2  A    between atoms: C_3  and  C_4
REMARK    3  A    between atoms: C_4  and  O_5
REMARK    4  A    between atoms: O_5  and  C_6
REMARK    5  A    between atoms: C_9  and  C_12
REMARK    6  A    between atoms: C_15  and  C_17
REMARK    7  A    between atoms: N_21  and  C_22
REMARK                            x       y       z     vdW  Elec       q    Type
REMARK                         _______ _______ _______ _____ _____    ______ ____
ROOT
ATOM     12  C   UNL     1      -2.182   2.010  24.896  0.00  0.00    +0.205 A 
ATOM     13  N   UNL     1      -2.254   1.890  24.083  0.00  0.00    -0.056 NA
ATOM     14  O   UNL     1      -3.051   1.762  23.913  0.00  0.00    -0.336 OA
ATOM     15  C   UNL     1      -3.472   1.804  24.623  0.00  0.00    +0.251 A 
ATOM     16  N   UNL     1      -2.935   1.957  25.229  0.00  0.00    -0.190 NA
ENDROOT
BRANCH  12   9
ATOM      6  C   UNL     1      -0.077   2.454  26.120  0.00  0.00    +0.225 A 
ATOM      7  C   UNL     1      -0.617   3.064  25.994  0.00  0.00    +0.058 A 
ATOM      8  C   UNL     1      -1.319   2.916  25.586  0.00  0.00    +0.010 A 
ATOM      9  C   UNL     1      -1.480   2.158  25.304  0.00  0.00    +0.058 A 
ATOM     10  C   UNL     1      -0.939   1.548  25.430  0.00  0.00    +0.105 A 
ATOM     11  N   UNL     1      -0.238   1.696  25.838  0.00  0.00    -0.210 NA
BRANCH   6   5
ATOM      5  O   UNL     1       0.625   2.602  26.527  0.00  0.00    -0.457 OA
BRANCH   5   4
ATOM      4  C   UNL     1       0.649   2.523  27.349  0.00  0.00    +0.239 C 
BRANCH   4   3
ATOM      3  C   UNL     1       1.349   2.680  27.758  0.00  0.00    +0.189 C 
BRANCH   3   2
ATOM      1  C   UNL     1       2.082   2.719  28.983  0.00  0.00    +0.174 C 
ATOM      2  O   UNL     1       1.396   2.525  28.566  0.00  0.00    -0.347 OA
ENDBRANCH   3   2
ENDBRANCH   4   3
ENDBRANCH   5   4
ENDBRANCH   6   5
ENDBRANCH  12   9
BRANCH  15  17
ATOM     17  C   UNL     1      -4.287   1.708  24.708  0.00  0.00    +0.138 C 
ATOM     18  C   UNL     1      -4.846   2.313  24.739  0.00  0.00    +0.027 C 
ATOM     19  C   UNL     1      -5.590   1.968  24.827  0.00  0.00    +0.019 C 
ATOM     20  C   UNL     1      -5.490   1.150  24.852  0.00  0.00    +0.072 C 
ATOM     21  N   UNL     1      -4.686   0.988  24.778  0.00  0.00    -0.268 NA
BRANCH  21  22
ATOM     22  C   UNL     1      -4.338   0.240  24.775  0.00  0.00    +0.061 C 
ATOM     23  C   UNL     1      -4.213  -0.152  24.059  0.00  0.00    +0.033 C 
ATOM     24  C   UNL     1      -3.865  -0.901  24.055  0.00  0.00    +0.074 C 
ATOM     25  N   UNL     1      -3.643  -1.257  24.766  0.00  0.00    -0.271 NA
ATOM     26  C   UNL     1      -3.296  -2.005  24.761  0.00  0.00    +0.090 C 
ATOM     27  C   UNL     1      -3.769  -0.865  25.480  0.00  0.00    +0.074 C 
ATOM     28  C   UNL     1      -4.117  -0.116  25.484  0.00  0.00    +0.033 C 
ENDBRANCH  21  22
ENDBRANCH  15  17
TORSDOF 7
ENDMDL
MODEL 7
REMARK VINA RESULT:      -7.8      2.866      4.169
REMARK  Name = 
REMARK  7 active torsions:
REMARK  status: ('A' for Active; 'I' for Inactive)
REMARK    1  A    between atoms: O_2  and  C_3
REMARK    2  A    between atoms: C_3  and  C_4
REMARK    3  A    between atoms: C_4  and  O_5
REMARK    4  A    between atoms: O_5  and  C_6
REMARK    5  A    between atoms: C_9  and  C_12
REMARK    6  A    between atoms: C_15  and  C_17
REMARK    7  A    between atoms: N_21  and  C_22
REMARK                            x       y       z     vdW  Elec       q    Type
REMARK                         _______ _______ _______ _____ _____    ______ ____
ROOT
ATOM     12  C   UNL     1      -3.775   0.471  24.897  0.00  0.00    +0.205 A 
ATOM     13  N   UNL     1      -4.056   0.112  25.584  0.00  0.00    -0.056 NA
ATOM     14  O   UNL     1      -4.158  -0.691  25.430  0.00  0.00    -0.336 OA
ATOM     15  C   UNL     1      -3.940  -0.829  24.645  0.00  0.00    +0.251 A 
ATOM     16  N   UNL     1      -3.704  -0.111  24.317  0.00  0.00    -0.190 NA
ENDROOT
BRANCH  12   9
ATOM      6  C   UNL     1      -3.240   2.872  24.623  0.00  0.00    +0.225 A 
ATOM      7  C   UNL     1      -3.998   2.596  24.451  0.00  0.00    +0.058 A 
ATOM      8  C   UNL     1      -4.176   1.796  24.542  0.00  0.00    +0.010 A 
ATOM      9  C   UNL     1      -3.597   1.271  24.806  0.00  0.00    +0.058 A 
ATOM     10  C   UNL     1      -2.838   1.547  24.978  0.00  0.00    +0.105 A 
ATOM     11  N   UNL     1      -2.660   2.348  24.887  0.00  0.00    -0.210 NA
BRANCH   6   5
ATOM      5  O   UNL     1      -3.062   3.672  24.532  0.00  0.00    -0.457 OA
BRANCH   5   4
ATOM      4  C   UNL     1      -2.428   4.003  24.944  0.00  0.00    +0.239 C 
BRANCH   4   3
ATOM      3  C   UNL     1      -2.238   4.799  24.838  0.00  0.00    +0.189 C 
BRANCH   3   2
ATOM      1  C   UNL     1      -0.926   5.359  24.922  0.00  0.00    +0.174 C 
ATOM      2  O   UNL     1      -1.635   5.142  25.284  0.00  0.00    -0.347 OA
ENDBRANCH   3   2
ENDBRANCH   4   3
ENDBRANCH   5   4
ENDBRANCH   6   5
ENDBRANCH  12   9
BRANCH  15  17
ATOM     17  C   UNL     1      -3.957  -1.558  24.259  0.00  0.00    +0.138 C 
ATOM     18  C   UNL     1      -4.604  -1.886  23.867  0.00  0.00    +0.027 C 
ATOM     19  C   UNL     1      -4.374  -2.618  23.564  0.00  0.00    +0.019 C 
ATOM     20  C   UNL     1      -3.585  -2.742  23.768  0.00  0.00    +0.072 C 
ATOM     21  N   UNL     1      -3.326  -2.088  24.198  0.00  0.00    -0.268 NA
BRANCH  21  22
ATOM     22  C   UNL     1      -2.571  -1.981  24.511  0.00  0.00    +0.061 C 
ATOM     23  C   UNL     1      -2.421  -2.177  25.299  0.00  0.00    +0.033 C 
ATOM     24  C   UNL     1      -1.665  -2.070  25.614  0.00  0.00    +0.074 C 
ATOM     25  N   UNL     1      -1.061  -1.766  25.141  0.00  0.00    -0.271 NA
ATOM     26  C   UNL     1      -0.306  -1.659  25.456  0.00  0.00    +0.090 C 
ATOM     27  C   UNL     1      -1.211  -1.571  24.354  0.00  0.00    +0.074 C 
ATOM     28  C   UNL     1      -1.967  -1.678  24.040  0.00  0.00    +0.033 C 
ENDBRANCH  21  22
ENDBRANCH  15  17
TORSDOF 7
ENDMDL
MODEL 8
REMARK VINA RESULT:      -7.7      2.651      4.309
REMARK  Name = 
REMARK  7 active torsions:
REMARK  status: ('A' for Active; 'I' for Inactive)
REMARK    1  A    between atoms: O_2  and  C_3
REMARK    2  A    between atoms: C_3  and  C_4
REMARK    3  A    between atoms: C_4  and  O_5
REMARK    4  A    between atoms: O_5  and  C_6
REMARK    5  A    between atoms: C_9  and  C_12
REMARK    6  A    between atoms: C_15  and  C_17
REMARK    7  A    between atoms: N_21  and  C_22
REMARK                            x       y       z     vdW  Elec       q    Type
REMARK                         _______ _______ _______ _____ _____    ______ ____
ROOT
ATOM     12  C   UNL     1      -3.746   1.103  24.338  0.00  0.00    +0.205 A 
ATOM     13  N   UNL     1      -3.857   1.541  23.648  0.00  0.00    -0.056 NA
ATOM     14  O   UNL     1      -4.300   2.209  23.837  0.00  0.00    -0.336 OA
ATOM     15  C   UNL     1      -4.463   2.186  24.647  0.00  0.00    +0.251 A 
ATOM     16  N   UNL     1      -4.121   1.502  24.955  0.00  0.00    -0.190 NA
ENDROOT
BRANCH  12   9
ATOM      6  C   UNL     1      -2.507  -1.031  24.524  0.00  0.00    +0.225 A 
ATOM      7  C   UNL     1      -3.329  -1.025  24.590  0.00  0.00    +0.058 A 
ATOM      8  C   UNL     1      -3.742  -0.313  24.528  0.00  0.00    +0.010 A 
ATOM      9  C   UNL     1      -3.333   0.392  24.400  0.00  0.00    +0.058 A 
ATOM     10  C   UNL     1      -2.510   0.385  24.334  0.00  0.00    +0.105 A 
ATOM     11  N   UNL     1      -2.097  -0.327  24.396  0.00  0.00    -0.210 NA
BRANCH   6   5
ATOM      5  O   UNL     1      -2.094  -1.743  24.587  0.00  0.00    -0.457 OA
BRANCH   5   4
ATOM      4  C   UNL     1      -1.352  -1.759  24.949  0.00  0.00    +0.239 C 
BRANCH   4   3
ATOM      3  C   UNL     1      -0.910  -2.456  24.951  0.00  0.00    +0.189 C 
BRANCH   3   2
ATOM      1  C   UNL     1       0.443  -2.589  25.389  0.00  0.00    +0.174 C 
ATOM      2  O   UNL     1      -0.365  -2.596  25.554  0.00  0.00    -0.347 OA
ENDBRANCH   3   2
ENDBRANCH   4   3
ENDBRANCH   5   4
ENDBRANCH   6   5
ENDBRANCH  12   9
BRANCH  15  17
ATOM     17  C   UNL     1      -4.893   2.748  25.071  0.00  0.00    +0.138 C 
ATOM     18  C   UNL     1      -5.697   2.710  25.250  0.00  0.00    +0.027 C 
ATOM     19  C   UNL     1      -5.894   3.386  25.680  0.00  0.00    +0.019 C 
ATOM     20  C   UNL     1      -5.211   3.841  25.766  0.00  0.00    +0.072 C 
ATOM     21  N   UNL     1      -4.593   3.448  25.390  0.00  0.00    -0.268 NA
BRANCH  21  22
ATOM     22  C   UNL     1      -3.811   3.706  25.340  0.00  0.00    +0.061 C 
ATOM     23  C   UNL     1      -3.549   4.097  24.661  0.00  0.00    +0.033 C 
ATOM     24  C   UNL     1      -2.767   4.356  24.610  0.00  0.00    +0.074 C 
ATOM     25  N   UNL     1      -2.247   4.224  25.238  0.00  0.00    -0.271 NA
ATOM     26  C   UNL     1      -1.466   4.483  25.187  0.00  0.00    +0.090 C 
ATOM     27  C   UNL     1      -2.509   3.834  25.916  0.00  0.00    +0.074 C 
ATOM     28  C   UNL     1      -3.291   3.575  25.966  0.00  0.00    +0.033 C 
ENDBRANCH  21  22
ENDBRANCH  15  17
TORSDOF 7
ENDMDL
MODEL 9
REMARK VINA RESULT:      -7.5      2.325      3.166
REMARK  Name = 
REMARK  7 active torsions:
REMARK  status: ('A' for Active; 'I' for Inactive)
REMARK    1  A    between atoms: O_2  and  C_3
REMARK    2  A    between atoms: C_3  and  C_4
REMARK    3  A    between atoms: C_4  and  O_5
REMARK    4  A    between atoms: O_5  and  C_6
REMARK    5  A    between atoms: C_9  and  C_12
REMARK    6  A    between atoms: C_15  and  C_17
REMARK    7  A    between atoms: N_21  and  C_22
REMARK                            x       y       z     vdW  Elec       q    Type
REMARK                         _______ _______ _______ _____ _____    ______ ____
ROOT
ATOM     12  C   UNL     1      -0.893   2.236  24.925  0.00  0.00    +0.205 A 
ATOM     13  N   UNL     1      -1.198   2.130  25.684  0.00  0.00    -0.056 NA
ATOM     14  O   UNL     1      -1.604   2.815  25.895  0.00  0.00    -0.336 OA
ATOM     15  C   UNL     1      -1.550   3.347  25.265  0.00  0.00    +0.251 A 
ATOM     16  N   UNL     1      -1.111   2.988  24.666  0.00  0.00    -0.190 NA
ENDROOT
BRANCH  12   9
ATOM      6  C   UNL     1       0.441   0.588  23.648  0.00  0.00    +0.225 A 
ATOM      7  C   UNL     1      -0.346   0.427  23.831  0.00  0.00    +0.058 A 
ATOM      8  C   UNL     1      -0.791   0.976  24.257  0.00  0.00    +0.010 A 
ATOM      9  C   UNL     1      -0.448   1.687  24.499  0.00  0.00    +0.058 A 
ATOM     10  C   UNL     1       0.340   1.848  24.315  0.00  0.00    +0.105 A 
ATOM     11  N   UNL     1       0.785   1.298  23.889  0.00  0.00    -0.210 NA
BRANCH   6   5
ATOM      5  O   UNL     1       0.886   0.039  23.222  0.00  0.00    -0.457 OA
BRANCH   5   4
ATOM      4  C   UNL     1       1.603   0.264  22.880  0.00  0.00    +0.239 C 
BRANCH   4   3
ATOM      3  C   UNL     1       2.039  -0.281  22.440  0.00  0.00    +0.189 C 
BRANCH   3   2
ATOM      1  C   UNL     1       3.384   0.137  22.197  0.00  0.00    +0.174 C 
ATOM      2  O   UNL     1       2.622  -0.017  21.920  0.00  0.00    -0.347 OA
ENDBRANCH   3   2
ENDBRANCH   4   3
ENDBRANCH   5   4
ENDBRANCH   6   5
ENDBRANCH  12   9
BRANCH  15  17
ATOM     17  C   UNL     1      -1.879   4.103  25.240  0.00  0.00    +0.138 C 
ATOM     18  C   UNL     1      -1.470   4.813  25.335  0.00  0.00    +0.027 C 
ATOM     19  C   UNL     1      -2.015   5.430  25.270  0.00  0.00    +0.019 C 
ATOM     20  C   UNL     1      -2.759   5.101  25.135  0.00  0.00    +0.072 C 
ATOM     21  N   UNL     1      -2.676   4.281  25.117  0.00  0.00    -0.268 NA
BRANCH  21  22
ATOM     22  C   UNL     1      -3.281   3.734  24.996  0.00  0.00    +0.061 C 
ATOM     23  C   UNL     1      -3.466   3.487  24.230  0.00  0.00    +0.033 C 
ATOM     24  C   UNL     1      -4.071   2.939  24.109  0.00  0.00    +0.074 C 
ATOM     25  N   UNL     1      -4.492   2.639  24.753  0.00  0.00    -0.271 NA
ATOM     26  C   UNL     1      -5.097   2.092  24.631  0.00  0.00    +0.090 C 
ATOM     27  C   UNL     1      -4.307   2.886  25.517  0.00  0.00    +0.074 C 
ATOM     28  C   UNL     1      -3.701   3.434  25.639  0.00  0.00    +0.033 C 
ENDBRANCH  21  22
ENDBRANCH  15  17
TORSDOF 7
ENDMDL
MODEL 10
REMARK VINA RESULT:      -6.3     14.972     18.844
REMARK  Name = 
REMARK  7 active torsions:
REMARK  status: ('A' for Active; 'I' for Inactive)
REMARK    1  A    between atoms: O_2  and  C_3
REMARK    2  A    between atoms: C_3  and  C_4
REMARK    3  A    between atoms: C_4  and  O_5
REMARK    4  A    between atoms: O_5  and  C_6
REMARK    5  A    between atoms: C_9  and  C_12
REMARK    6  A    between atoms: C_15  and  C_17
REMARK    7  A    between atoms: N_21  and  C_22
REMARK                            x       y       z     vdW  Elec       q    Type
REMARK                         _______ _______ _______ _____ _____    ______ ____
ROOT
ATOM     12  C   UNL     1      14.226   7.365  19.310  0.00  0.00    +0.205 A 
ATOM     13  N   UNL     1      14.545   7.834  18.712  0.00  0.00    -0.056 NA
ATOM     14  O   UNL     1      15.319   7.585  18.577  0.00  0.00    -0.336 OA
ATOM     15  C   UNL     1      15.479   6.960  19.093  0.00  0.00    +0.251 A 
ATOM     16  N   UNL     1      14.803   6.825  19.545  0.00  0.00    -0.190 NA
ENDROOT
BRANCH  12   9
ATOM      6  C   UNL     1      11.938   7.546  20.238  0.00  0.00    +0.225 A 
ATOM      7  C   UNL     1      12.348   8.226  20.016  0.00  0.00    +0.058 A 
ATOM      8  C   UNL     1      13.110   8.166  19.707  0.00  0.00    +0.010 A 
ATOM      9  C   UNL     1      13.463   7.425  19.620  0.00  0.00    +0.058 A 
ATOM     10  C   UNL     1      13.053   6.744  19.842  0.00  0.00    +0.105 A 
ATOM     11  N   UNL     1      12.291   6.804  20.151  0.00  0.00    -0.210 NA
BRANCH   6   5
ATOM      5  O   UNL     1      11.176   7.606  20.547  0.00  0.00    -0.457 OA
BRANCH   5   4
ATOM      4  C   UNL     1      11.045   8.032  21.242  0.00  0.00    +0.239 C 
BRANCH   4   3
ATOM      3  C   UNL     1      10.312   7.990  21.620  0.00  0.00    +0.189 C 
BRANCH   3   2
ATOM      1  C   UNL     1      10.238   8.956  22.669  0.00  0.00    +0.174 C 
ATOM      2  O   UNL     1      10.252   8.169  22.422  0.00  0.00    -0.347 OA
ENDBRANCH   3   2
ENDBRANCH   4   3
ENDBRANCH   5   4
ENDBRANCH   6   5
ENDBRANCH  12   9
BRANCH  15  17
ATOM     17  C   UNL     1      16.190   6.545  19.145  0.00  0.00    +0.138 C 
ATOM     18  C   UNL     1      16.412   5.903  18.678  0.00  0.00    +0.027 C 
ATOM     19  C   UNL     1      17.164   5.662  18.918  0.00  0.00    +0.019 C 
ATOM     20  C   UNL     1      17.405   6.155  19.534  0.00  0.00    +0.072 C 
ATOM     21  N   UNL     1      16.804   6.701  19.674  0.00  0.00    -0.268 NA
BRANCH  21  22
ATOM     22  C   UNL     1      16.813   7.299  20.243  0.00  0.00    +0.061 C 
ATOM     23  C   UNL     1      17.083   8.053  20.043  0.00  0.00    +0.033 C 
ATOM     24  C   UNL     1      17.093   8.651  20.611  0.00  0.00    +0.074 C 
ATOM     25  N   UNL     1      16.832   8.495  21.379  0.00  0.00    -0.271 NA
ATOM     26  C   UNL     1      16.842   9.094  21.946  0.00  0.00    +0.090 C 
ATOM     27  C   UNL     1      16.562   7.742  21.578  0.00  0.00    +0.074 C 
ATOM     28  C   UNL     1      16.553   7.144  21.009  0.00  0.00    +0.033 C 
ENDBRANCH  21  22
ENDBRANCH  15  17
TORSDOF 7
ENDMDL
