MODEL 1
REMARK VINA RESULT:     -10.6      0.000      0.000
REMARK  Name = 
REMARK  4 active torsions:
REMARK  status: ('A' for Active; 'I' for Inactive)
REMARK    1  A    between atoms: C_2  and  C_4
REMARK    2  A    between atoms: C_4  and  C_5
REMARK    3  A    between atoms: C_5  and  C_6
REMARK    4  A    between atoms: N_14  and  C_15
REMARK                            x       y       z     vdW  Elec       q    Type
REMARK                         _______ _______ _______ _____ _____    ______ ____
ROOT
ATOM      6  C   UNL     1      -1.437   2.707  24.781  0.00  0.00    +0.226 C 
ATOM      7  O   UNL     1      -0.660   2.486  24.612  0.00  0.00    -0.275 OA
ATOM      8  N   UNL     1      -2.033   2.137  24.795  0.00  0.00    -0.276 N 
ATOM      9  C   UNL     1      -2.809   2.358  24.963  0.00  0.00    +0.115 C 
ATOM     10  C   UNL     1      -3.406   1.787  24.978  0.00  0.00    +0.116 C 
ATOM     11  N   UNL     1      -3.225   0.998  24.824  0.00  0.00    -0.261 N 
ATOM     12  C   UNL     1      -2.449   0.777  24.656  0.00  0.00    +0.116 C 
ATOM     13  C   UNL     1      -2.438  -0.038  24.527  0.00  0.00    +0.116 C 
ATOM     14  N   UNL     1      -3.207  -0.321  24.616  0.00  0.00    -0.264 N 
ATOM     21  C   UNL     1      -3.694   0.319  24.800  0.00  0.00    +0.307 C 
ATOM     22  O   UNL     1      -4.507   0.286  24.935  0.00  0.00    -0.252 OA
ATOM     23  C   UNL     1      -1.852   1.347  24.641  0.00  0.00    +0.115 C 
ENDROOT
BRANCH  14  15
ATOM     15  C   UNL     1      -3.447  -1.106  24.536  0.00  0.00    +0.077 C 
ATOM     16  C   UNL     1      -3.243  -1.661  25.112  0.00  0.00    +0.020 C 
ATOM     17  C   UNL     1      -3.483  -2.446  25.032  0.00  0.00    +0.002 C 
ATOM     18  C   UNL     1      -3.927  -2.677  24.375  0.00  0.00    +0.000 C 
ATOM     19  C   UNL     1      -4.131  -2.121  23.799  0.00  0.00    +0.002 C 
ATOM     20  C   UNL     1      -3.891  -1.336  23.879  0.00  0.00    +0.020 C 
ENDBRANCH  14  15
BRANCH   6   5
ATOM      5  C   UNL     1      -1.618   3.497  24.934  0.00  0.00    +0.097 C 
BRANCH   5   4
ATOM      4  C   UNL     1      -1.011   4.040  25.067  0.00  0.00    +0.124 C 
BRANCH   4   2
ATOM      1  O   UNL     1      -0.690   5.389  24.722  0.00  0.00    -0.246 OA
ATOM      2  C   UNL     1      -1.181   4.847  25.104  0.00  0.00    +0.365 C 
ATOM      3  O   UNL     1      -1.840   5.111  25.522  0.00  0.00    -0.246 OA
ENDBRANCH   4   2
ENDBRANCH   5   4
ENDBRANCH   6   5
TORSDOF 4
ENDMDL
MODEL 2
REMARK VINA RESULT:     -10.3      1.233      5.299
REMARK  Name = 
REMARK  4 active torsions:
REMARK  status: ('A' for Active; 'I' for Inactive)
REMARK    1  A    between atoms: C_2  and  C_4
REMARK    2  A    between atoms: C_4  and  C_5
REMARK    3  A    between atoms: C_5  and  C_6
REMARK    4  A    between atoms: N_14  and  C_15
REMARK                            x       y       z     vdW  Elec       q    Type
REMARK                         _______ _______ _______ _____ _____    ______ ____
ROOT
ATOM      6  C   UNL     1      -3.329  -0.358  24.424  0.00  0.00    +0.226 C 
ATOM      7  O   UNL     1      -3.987  -0.167  23.964  0.00  0.00    -0.275 OA
ATOM      8  N   UNL     1      -2.816   0.236  24.677  0.00  0.00    -0.276 N 
ATOM      9  C   UNL     1      -2.159   0.045  25.137  0.00  0.00    +0.115 C 
ATOM     10  C   UNL     1      -1.645   0.640  25.390  0.00  0.00    +0.116 C 
ATOM     11  N   UNL     1      -1.790   1.425  25.182  0.00  0.00    -0.261 N 
ATOM     12  C   UNL     1      -2.446   1.616  24.722  0.00  0.00    +0.116 C 
ATOM     13  C   UNL     1      -2.446   2.433  24.604  0.00  0.00    +0.116 C 
ATOM     14  N   UNL     1      -1.789   2.747  24.992  0.00  0.00    -0.264 N 
ATOM     21  C   UNL     1      -1.383   2.124  25.349  0.00  0.00    +0.307 C 
ATOM     22  O   UNL     1      -0.692   2.189  25.795  0.00  0.00    -0.252 OA
ATOM     23  C   UNL     1      -2.960   1.022  24.469  0.00  0.00    +0.115 C 
ENDROOT
BRANCH  14  15
ATOM     15  C   UNL     1      -1.576   3.543  25.017  0.00  0.00    +0.077 C 
ATOM     16  C   UNL     1      -0.890   3.798  24.637  0.00  0.00    +0.020 C 
ATOM     17  C   UNL     1      -0.676   4.595  24.663  0.00  0.00    +0.002 C 
ATOM     18  C   UNL     1      -1.150   5.136  25.069  0.00  0.00    +0.000 C 
ATOM     19  C   UNL     1      -1.836   4.880  25.449  0.00  0.00    +0.002 C 
ATOM     20  C   UNL     1      -2.050   4.084  25.423  0.00  0.00    +0.020 C 
ENDBRANCH  14  15
BRANCH   6   5
ATOM      5  C   UNL     1      -3.185  -1.143  24.633  0.00  0.00    +0.097 C 
BRANCH   5   4
ATOM      4  C   UNL     1      -3.744  -1.725  24.459  0.00  0.00    +0.124 C 
BRANCH   4   2
ATOM      1  O   UNL     1      -3.435  -3.044  24.004  0.00  0.00    -0.246 OA
ATOM      2  C   UNL     1      -3.579  -2.517  24.622  0.00  0.00    +0.365 C 
ATOM      3  O   UNL     1      -3.558  -2.782  25.402  0.00  0.00    -0.246 OA
ENDBRANCH   4   2
ENDBRANCH   5   4
ENDBRANCH   6   5
TORSDOF 4
ENDMDL
MODEL 3
REMARK VINA RESULT:      -9.4      2.603      3.839
REMARK  Name = 
REMARK  4 active torsions:
REMARK  status: ('A' for Active; 'I' for Inactive)
REMARK    1  A    between atoms: C_2  and  C_4
REMARK    2  A    between atoms: C_4  and  C_5
REMARK    3  A    between atoms: C_5  and  C_6
REMARK    4  A    between atoms: N_14  and  C_15
REMARK                            x       y       z     vdW  Elec       q    Type
REMARK                         _______ _______ _______ _____ _____    ______ ____
ROOT
ATOM      6  C   UNL     1      -0.598   0.427  24.024  0.00  0.00    +0.226 C 
ATOM      7  O   UNL     1      -0.517  -0.112  24.643  0.00  0.00    -0.275 OA
ATOM      8  N   UNL     1      -1.273   0.899  23.972  0.00  0.00    -0.276 N 
ATOM      9  C   UNL     1      -1.353   1.437  23.353  0.00  0.00    +0.115 C 
ATOM     10  C   UNL     1      -2.029   1.908  23.301  0.00  0.00    +0.116 C 
ATOM     11  N   UNL     1      -2.624   1.840  23.869  0.00  0.00    -0.261 N 
ATOM     12  C   UNL     1      -2.543   1.301  24.487  0.00  0.00    +0.116 C 
ATOM     13  C   UNL     1      -3.216   1.356  24.962  0.00  0.00    +0.116 C 
ATOM     14  N   UNL     1      -3.713   1.928  24.636  0.00  0.00    -0.264 N 
ATOM     21  C   UNL     1      -3.346   2.228  23.961  0.00  0.00    +0.307 C 
ATOM     22  O   UNL     1      -3.650   2.813  23.463  0.00  0.00    -0.252 OA
ATOM     23  C   UNL     1      -1.868   0.830  24.540  0.00  0.00    +0.115 C 
ENDROOT
BRANCH  14  15
ATOM     15  C   UNL     1      -4.446   2.161  24.934  0.00  0.00    +0.077 C 
ATOM     16  C   UNL     1      -4.509   2.853  25.379  0.00  0.00    +0.020 C 
ATOM     17  C   UNL     1      -5.243   3.086  25.676  0.00  0.00    +0.002 C 
ATOM     18  C   UNL     1      -5.913   2.626  25.530  0.00  0.00    +0.000 C 
ATOM     19  C   UNL     1      -5.848   1.933  25.085  0.00  0.00    +0.002 C 
ATOM     20  C   UNL     1      -5.115   1.701  24.787  0.00  0.00    +0.020 C 
ENDBRANCH  14  15
BRANCH   6   5
ATOM      5  C   UNL     1      -0.003   0.496  23.456  0.00  0.00    +0.097 C 
BRANCH   5   4
ATOM      4  C   UNL     1       0.616  -0.049  23.440  0.00  0.00    +0.124 C 
BRANCH   4   2
ATOM      1  O   UNL     1       1.141  -0.357  22.147  0.00  0.00    -0.246 OA
ATOM      2  C   UNL     1       1.215   0.022  22.876  0.00  0.00    +0.365 C 
ATOM      3  O   UNL     1       1.885   0.473  23.041  0.00  0.00    -0.246 OA
ENDBRANCH   4   2
ENDBRANCH   5   4
ENDBRANCH   6   5
TORSDOF 4
ENDMDL
MODEL 4
REMARK VINA RESULT:      -8.1      2.142      2.809
REMARK  Name = 
REMARK  4 active torsions:
REMARK  status: ('A' for Active; 'I' for Inactive)
REMARK    1  A    between atoms: C_2  and  C_4
REMARK    2  A    between atoms: C_4  and  C_5
REMARK    3  A    between atoms: C_5  and  C_6
REMARK    4  A    between atoms: N_14  and  C_15
REMARK                            x       y       z     vdW  Elec       q    Type
REMARK                         _______ _______ _______ _____ _____    ______ ____
ROOT
ATOM      6  C   UNL     1      -5.405   2.265  25.348  0.00  0.00    +0.226 C 
ATOM      7  O   UNL     1      -6.180   2.068  25.551  0.00  0.00    -0.275 OA
ATOM      8  N   UNL     1      -4.868   1.673  25.145  0.00  0.00    -0.276 N 
ATOM      9  C   UNL     1      -4.094   1.869  24.942  0.00  0.00    +0.115 C 
ATOM     10  C   UNL     1      -3.556   1.276  24.740  0.00  0.00    +0.116 C 
ATOM     11  N   UNL     1      -3.795   0.486  24.741  0.00  0.00    -0.261 N 
ATOM     12  C   UNL     1      -4.569   0.290  24.944  0.00  0.00    +0.116 C 
ATOM     13  C   UNL     1      -4.645  -0.531  24.896  0.00  0.00    +0.116 C 
ATOM     14  N   UNL     1      -3.917  -0.841  24.664  0.00  0.00    -0.264 N 
ATOM     21  C   UNL     1      -3.392  -0.213  24.568  0.00  0.00    +0.307 C 
ATOM     22  O   UNL     1      -2.601  -0.272  24.339  0.00  0.00    -0.252 OA
ATOM     23  C   UNL     1      -5.106   0.882  25.146  0.00  0.00    +0.115 C 
ENDROOT
BRANCH  14  15
ATOM     15  C   UNL     1      -3.745  -1.639  24.548  0.00  0.00    +0.077 C 
ATOM     16  C   UNL     1      -3.309  -2.053  25.113  0.00  0.00    +0.020 C 
ATOM     17  C   UNL     1      -3.136  -2.852  24.997  0.00  0.00    +0.002 C 
ATOM     18  C   UNL     1      -3.401  -3.236  24.315  0.00  0.00    +0.000 C 
ATOM     19  C   UNL     1      -3.837  -2.822  23.750  0.00  0.00    +0.002 C 
ATOM     20  C   UNL     1      -4.009  -2.023  23.867  0.00  0.00    +0.020 C 
ENDBRANCH  14  15
BRANCH   6   5
ATOM      5  C   UNL     1      -5.166   3.055  25.346  0.00  0.00    +0.097 C 
BRANCH   5   4
ATOM      4  C   UNL     1      -5.731   3.656  25.324  0.00  0.00    +0.124 C 
BRANCH   4   2
ATOM      1  O   UNL     1      -6.045   4.944  25.858  0.00  0.00    -0.246 OA
ATOM      2  C   UNL     1      -5.511   4.435  25.489  0.00  0.00    +0.365 C 
ATOM      3  O   UNL     1      -4.760   4.703  25.284  0.00  0.00    -0.246 OA
ENDBRANCH   4   2
ENDBRANCH   5   4
ENDBRANCH   6   5
TORSDOF 4
ENDMDL
MODEL 5
REMARK VINA RESULT:      -8.0      2.450      3.930
REMARK  Name = 
REMARK  4 active torsions:
REMARK  status: ('A' for Active; 'I' for Inactive)
REMARK    1  A    between atoms: C_2  and  C_4
REMARK    2  A    between atoms: C_4  and  C_5
REMARK    3  A    between atoms: C_5  and  C_6
REMARK    4  A    between atoms: N_14  and  C_15
REMARK                            x       y       z     vdW  Elec       q    Type
REMARK                         _______ _______ _______ _____ _____    ______ ____
ROOT
ATOM      6  C   UNL     1      -3.886   2.109  24.374  0.00  0.00    +0.226 C 
ATOM      7  O   UNL     1      -3.947   2.692  23.793  0.00  0.00    -0.275 OA
ATOM      8  N   UNL     1      -3.197   1.660  24.437  0.00  0.00    -0.276 N 
ATOM      9  C   UNL     1      -3.136   1.078  25.018  0.00  0.00    +0.115 C 
ATOM     10  C   UNL     1      -2.447   0.628  25.081  0.00  0.00    +0.116 C 
ATOM     11  N   UNL     1      -1.819   0.762  24.563  0.00  0.00    -0.261 N 
ATOM     12  C   UNL     1      -1.880   1.344  23.982  0.00  0.00    +0.116 C 
ATOM     13  C   UNL     1      -1.175   1.350  23.553  0.00  0.00    +0.116 C 
ATOM     14  N   UNL     1      -0.679   0.772  23.868  0.00  0.00    -0.264 N 
ATOM     21  C   UNL     1      -1.077   0.408  24.492  0.00  0.00    +0.307 C 
ATOM     22  O   UNL     1      -0.784  -0.203  24.964  0.00  0.00    -0.252 OA
ATOM     23  C   UNL     1      -2.569   1.793  23.919  0.00  0.00    +0.115 C 
ENDROOT
BRANCH  14  15
ATOM     15  C   UNL     1       0.082   0.589  23.606  0.00  0.00    +0.077 C 
ATOM     16  C   UNL     1       0.713   1.086  23.794  0.00  0.00    +0.020 C 
ATOM     17  C   UNL     1       1.473   0.904  23.532  0.00  0.00    +0.002 C 
ATOM     18  C   UNL     1       1.603   0.225  23.080  0.00  0.00    +0.000 C 
ATOM     19  C   UNL     1       0.970  -0.272  22.892  0.00  0.00    +0.002 C 
ATOM     20  C   UNL     1       0.210  -0.089  23.154  0.00  0.00    +0.020 C 
ENDBRANCH  14  15
BRANCH   6   5
ATOM      5  C   UNL     1      -4.514   1.975  24.892  0.00  0.00    +0.097 C 
BRANCH   5   4
ATOM      4  C   UNL     1      -5.157   2.493  24.902  0.00  0.00    +0.124 C 
BRANCH   4   2
ATOM      1  O   UNL     1      -5.779   2.729  26.167  0.00  0.00    -0.246 OA
ATOM      2  C   UNL     1      -5.782   2.364  25.427  0.00  0.00    +0.365 C 
ATOM      3  O   UNL     1      -6.407   1.872  25.211  0.00  0.00    -0.246 OA
ENDBRANCH   4   2
ENDBRANCH   5   4
ENDBRANCH   6   5
TORSDOF 4
ENDMDL
MODEL 6
REMARK VINA RESULT:      -7.9      2.213      5.023
REMARK  Name = 
REMARK  4 active torsions:
REMARK  status: ('A' for Active; 'I' for Inactive)
REMARK    1  A    between atoms: C_2  and  C_4
REMARK    2  A    between atoms: C_4  and  C_5
REMARK    3  A    between atoms: C_5  and  C_6
REMARK    4  A    between atoms: N_14  and  C_15
REMARK                            x       y       z     vdW  Elec       q    Type
REMARK                         _______ _______ _______ _____ _____    ______ ____
ROOT
ATOM      6  C   UNL     1      -3.412  -1.348  24.968  0.00  0.00    +0.226 C 
ATOM      7  O   UNL     1      -3.734  -1.673  25.655  0.00  0.00    -0.275 OA
ATOM      8  N   UNL     1      -3.554  -0.557  24.780  0.00  0.00    -0.276 N 
ATOM      9  C   UNL     1      -3.233  -0.232  24.094  0.00  0.00    +0.115 C 
ATOM     10  C   UNL     1      -3.374   0.560  23.907  0.00  0.00    +0.116 C 
ATOM     11  N   UNL     1      -3.837   1.025  24.407  0.00  0.00    -0.261 N 
ATOM     12  C   UNL     1      -4.158   0.700  25.093  0.00  0.00    +0.116 C 
ATOM     13  C   UNL     1      -4.589   1.290  25.477  0.00  0.00    +0.116 C 
ATOM     14  N   UNL     1      -4.534   1.979  25.028  0.00  0.00    -0.264 N 
ATOM     21  C   UNL     1      -4.069   1.816  24.367  0.00  0.00    +0.307 C 
ATOM     22  O   UNL     1      -3.872   2.349  23.769  0.00  0.00    -0.252 OA
ATOM     23  C   UNL     1      -4.016  -0.091  25.281  0.00  0.00    +0.115 C 
ENDROOT
BRANCH  14  15
ATOM     15  C   UNL     1      -4.883   2.705  25.209  0.00  0.00    +0.077 C 
ATOM     16  C   UNL     1      -5.701   2.757  25.302  0.00  0.00    +0.020 C 
ATOM     17  C   UNL     1      -6.050   3.482  25.482  0.00  0.00    +0.002 C 
ATOM     18  C   UNL     1      -5.580   4.156  25.570  0.00  0.00    +0.000 C 
ATOM     19  C   UNL     1      -4.761   4.103  25.477  0.00  0.00    +0.002 C 
ATOM     20  C   UNL     1      -4.413   3.377  25.296  0.00  0.00    +0.020 C 
ENDBRANCH  14  15
BRANCH   6   5
ATOM      5  C   UNL     1      -2.950  -1.813  24.468  0.00  0.00    +0.097 C 
BRANCH   5   4
ATOM      4  C   UNL     1      -2.617  -2.514  24.748  0.00  0.00    +0.124 C 
BRANCH   4   2
ATOM      1  O   UNL     1      -2.051  -3.279  23.683  0.00  0.00    -0.246 OA
ATOM      2  C   UNL     1      -1.956  -2.837  24.372  0.00  0.00    +0.365 C 
ATOM      3  O   UNL     1      -1.204  -2.716  24.685  0.00  0.00    -0.246 OA
ENDBRANCH   4   2
ENDBRANCH   5   4
ENDBRANCH   6   5
TORSDOF 4
ENDMDL
MODEL 7
REMARK VINA RESULT:      -7.8     16.288     18.603
REMARK  Name = 
REMARK  4 active torsions:
REMARK  status: ('A' for Active; 'I' for Inactive)
REMARK    1  A    between atoms: C_2  and  C_4
REMARK    2  A    between atoms: C_4  and  C_5
REMARK    3  A    between atoms: C_5  and  C_6
REMARK    4  A    between atoms: N_14  and  C_15
REMARK                            x       y       z     vdW  Elec       q    Type
REMARK                         _______ _______ _______ _____ _____    ______ ____
ROOT
ATOM      6  C   UNL     1      12.230   7.460  21.516  0.00  0.00    +0.226 C 
ATOM      7  O   UNL     1      11.901   6.705  21.568  0.00  0.00    -0.275 OA
ATOM      8  N   UNL     1      12.983   7.561  21.194  0.00  0.00    -0.276 N 
ATOM      9  C   UNL     1      13.311   8.315  21.142  0.00  0.00    +0.115 C 
ATOM     10  C   UNL     1      14.064   8.416  20.819  0.00  0.00    +0.116 C 
ATOM     11  N   UNL     1      14.487   7.761  20.548  0.00  0.00    -0.261 N 
ATOM     12  C   UNL     1      14.159   7.007  20.600  0.00  0.00    +0.116 C 
ATOM     13  C   UNL     1      14.703   6.470  20.290  0.00  0.00    +0.116 C 
ATOM     14  N   UNL     1      15.368   6.892  20.047  0.00  0.00    -0.264 N 
ATOM     21  C   UNL     1      15.235   7.690  20.206  0.00  0.00    +0.307 C 
ATOM     22  O   UNL     1      15.758   8.310  20.050  0.00  0.00    -0.252 OA
ATOM     23  C   UNL     1      13.406   6.906  20.923  0.00  0.00    +0.115 C 
ENDROOT
BRANCH  14  15
ATOM     15  C   UNL     1      16.047   6.573  19.704  0.00  0.00    +0.077 C 
ATOM     16  C   UNL     1      16.722   6.449  20.163  0.00  0.00    +0.020 C 
ATOM     17  C   UNL     1      17.401   6.130  19.821  0.00  0.00    +0.002 C 
ATOM     18  C   UNL     1      17.405   5.934  19.019  0.00  0.00    +0.000 C 
ATOM     19  C   UNL     1      16.730   6.057  18.560  0.00  0.00    +0.002 C 
ATOM     20  C   UNL     1      16.051   6.377  18.902  0.00  0.00    +0.020 C 
ENDBRANCH  14  15
BRANCH   6   5
ATOM      5  C   UNL     1      11.807   8.114  21.787  0.00  0.00    +0.097 C 
BRANCH   5   4
ATOM      4  C   UNL     1      11.094   8.006  22.189  0.00  0.00    +0.124 C 
BRANCH   4   2
ATOM      1  O   UNL     1      10.187   9.094  21.997  0.00  0.00    -0.246 OA
ATOM      2  C   UNL     1      10.687   8.659  22.489  0.00  0.00    +0.365 C 
ATOM      3  O   UNL     1      10.780   8.876  23.278  0.00  0.00    -0.246 OA
ENDBRANCH   4   2
ENDBRANCH   5   4
ENDBRANCH   6   5
TORSDOF 4
ENDMDL
MODEL 8
REMARK VINA RESULT:      -7.7      3.031      3.870
REMARK  Name = 
REMARK  4 active torsions:
REMARK  status: ('A' for Active; 'I' for Inactive)
REMARK    1  A    between atoms: C_2  and  C_4
REMARK    2  A    between atoms: C_4  and  C_5
REMARK    3  A    between atoms: C_5  and  C_6
REMARK    4  A    between atoms: N_14  and  C_15
REMARK                            x       y       z     vdW  Elec       q    Type
REMARK                         _______ _______ _______ _____ _____    ______ ____
ROOT
ATOM      6  C   UNL     1       1.385   0.093  23.036  0.00  0.00    +0.226 C 
ATOM      7  O   UNL     1       1.388  -0.575  22.552  0.00  0.00    -0.275 OA
ATOM      8  N   UNL     1       0.729   0.259  23.507  0.00  0.00    -0.276 N 
ATOM      9  C   UNL     1       0.726   0.926  23.990  0.00  0.00    +0.115 C 
ATOM     10  C   UNL     1       0.069   1.092  24.462  0.00  0.00    +0.116 C 
ATOM     11  N   UNL     1      -0.585   0.588  24.449  0.00  0.00    -0.261 N 
ATOM     12  C   UNL     1      -0.582  -0.079  23.966  0.00  0.00    +0.116 C 
ATOM     13  C   UNL     1      -1.301  -0.471  24.068  0.00  0.00    +0.116 C 
ATOM     14  N   UNL     1      -1.748  -0.045  24.615  0.00  0.00    -0.264 N 
ATOM     21  C   UNL     1      -1.305   0.610  24.850  0.00  0.00    +0.307 C 
ATOM     22  O   UNL     1      -1.542   1.185  25.393  0.00  0.00    -0.252 OA
ATOM     23  C   UNL     1       0.075  -0.245  23.494  0.00  0.00    +0.115 C 
ENDROOT
BRANCH  14  15
ATOM     15  C   UNL     1      -2.505  -0.240  24.879  0.00  0.00    +0.077 C 
ATOM     16  C   UNL     1      -3.166   0.104  24.525  0.00  0.00    +0.020 C 
ATOM     17  C   UNL     1      -3.923  -0.091  24.790  0.00  0.00    +0.002 C 
ATOM     18  C   UNL     1      -4.018  -0.630  25.409  0.00  0.00    +0.000 C 
ATOM     19  C   UNL     1      -3.356  -0.973  25.762  0.00  0.00    +0.002 C 
ATOM     20  C   UNL     1      -2.599  -0.778  25.498  0.00  0.00    +0.020 C 
ENDBRANCH  14  15
BRANCH   6   5
ATOM      5  C   UNL     1       2.039   0.596  23.049  0.00  0.00    +0.097 C 
BRANCH   5   4
ATOM      4  C   UNL     1       2.714   0.406  22.614  0.00  0.00    +0.124 C 
BRANCH   4   2
ATOM      1  O   UNL     1       4.102   0.294  22.934  0.00  0.00    -0.246 OA
ATOM      2  C   UNL     1       3.437   0.761  22.797  0.00  0.00    +0.365 C 
ATOM      3  O   UNL     1       3.492   1.582  22.841  0.00  0.00    -0.246 OA
ENDBRANCH   4   2
ENDBRANCH   5   4
ENDBRANCH   6   5
TORSDOF 4
ENDMDL
MODEL 9
REMARK VINA RESULT:      -7.1     17.364     18.932
REMARK  Name = 
REMARK  4 active torsions:
REMARK  status: ('A' for Active; 'I' for Inactive)
REMARK    1  A    between atoms: C_2  and  C_4
REMARK    2  A    between atoms: C_4  and  C_5
REMARK    3  A    between atoms: C_5  and  C_6
REMARK    4  A    between atoms: N_14  and  C_15
REMARK                            x       y       z     vdW  Elec       q    Type
REMARK                         _______ _______ _______ _____ _____    ______ ____
ROOT
ATOM      6  C   UNL     1      15.332   6.840  19.327  0.00  0.00    +0.226 C 
ATOM      7  O   UNL     1      15.748   6.485  18.709  0.00  0.00    -0.275 OA
ATOM      8  N   UNL     1      14.614   7.217  19.178  0.00  0.00    -0.276 N 
ATOM      9  C   UNL     1      14.198   7.572  19.795  0.00  0.00    +0.115 C 
ATOM     10  C   UNL     1      13.479   7.949  19.645  0.00  0.00    +0.116 C 
ATOM     11  N   UNL     1      13.177   7.971  18.878  0.00  0.00    -0.261 N 
ATOM     12  C   UNL     1      13.593   7.617  18.261  0.00  0.00    +0.116 C 
ATOM     13  C   UNL     1      13.161   7.727  17.566  0.00  0.00    +0.116 C 
ATOM     14  N   UNL     1      12.478   8.149  17.755  0.00  0.00    -0.264 N 
ATOM     21  C   UNL     1      12.488   8.301  18.565  0.00  0.00    +0.307 C 
ATOM     22  O   UNL     1      11.910   8.710  18.989  0.00  0.00    -0.252 OA
ATOM     23  C   UNL     1      14.311   7.240  18.410  0.00  0.00    +0.115 C 
ENDROOT
BRANCH  14  15
ATOM     15  C   UNL     1      11.889   8.380  17.225  0.00  0.00    +0.077 C 
ATOM     16  C   UNL     1      11.112   8.128  17.339  0.00  0.00    +0.020 C 
ATOM     17  C   UNL     1      10.522   8.359  16.809  0.00  0.00    +0.002 C 
ATOM     18  C   UNL     1      10.711   8.842  16.166  0.00  0.00    +0.000 C 
ATOM     19  C   UNL     1      11.489   9.094  16.054  0.00  0.00    +0.002 C 
ATOM     20  C   UNL     1      12.078   8.863  16.583  0.00  0.00    +0.020 C 
ENDBRANCH  14  15
BRANCH   6   5
ATOM      5  C   UNL     1      15.633   6.818  20.094  0.00  0.00    +0.097 C 
BRANCH   5   4
ATOM      4  C   UNL     1      16.398   6.536  20.229  0.00  0.00    +0.124 C 
BRANCH   4   2
ATOM      1  O   UNL     1      17.403   7.079  21.087  0.00  0.00    -0.246 OA
ATOM      2  C   UNL     1      16.737   6.605  20.978  0.00  0.00    +0.365 C 
ATOM      3  O   UNL     1      16.410   6.200  21.618  0.00  0.00    -0.246 OA
ENDBRANCH   4   2
ENDBRANCH   5   4
ENDBRANCH   6   5
TORSDOF 4
ENDMDL
