MODEL 1
REMARK VINA RESULT:      -8.3      0.000      0.000
REMARK  Name = 
REMARK  6 active torsions:
REMARK  status: ('A' for Active; 'I' for Inactive)
REMARK    1  A    between atoms: O_2  and  C_3
REMARK    2  A    between atoms: C_3  and  C_4
REMARK    3  A    between atoms: C_6  and  C_7
REMARK    4  A    between atoms: C_7  and  C_8
REMARK    5  A    between atoms: C_8  and  N_12
REMARK    6  A    between atoms: N_12  and  C_13
REMARK                            x       y       z     vdW  Elec       q    Type
REMARK                         _______ _______ _______ _____ _____    ______ ____
ROOT
ATOM      8  C   UNL     1      -4.360   1.366  24.789  0.00  0.00    +0.119 C 
ATOM      9  C   UNL     1      -4.859   0.971  25.314  0.00  0.00    +0.161 C 
ATOM     10  O   UNL     1      -5.476   1.478  25.109  0.00  0.00    -0.351 OA
ATOM     11  C   UNL     1      -4.977   1.873  24.584  0.00  0.00    +0.161 C 
ENDROOT
BRANCH   8   7
ATOM      7  C   UNL     1      -3.861   1.761  24.264  0.00  0.00    +0.070 C 
BRANCH   7   6
ATOM      4  C   UNL     1      -2.837   3.532  24.874  0.00  0.00    +0.184 A 
ATOM      5  C   UNL     1      -2.878   2.711  24.804  0.00  0.00    +0.056 A 
ATOM      6  C   UNL     1      -3.593   2.521  24.441  0.00  0.00    +0.102 A 
ATOM     20  N   UNL     1      -3.996   3.225  24.286  0.00  0.00    -0.082 NA
ATOM     21  O   UNL     1      -3.528   3.850  24.554  0.00  0.00    -0.356 OA
BRANCH   4   3
ATOM      3  C   UNL     1      -2.215   3.961  25.205  0.00  0.00    +0.209 C 
BRANCH   3   2
ATOM      1  C   UNL     1      -1.320   5.073  25.149  0.00  0.00    +0.175 C 
ATOM      2  O   UNL     1      -2.006   4.695  24.891  0.00  0.00    -0.343 OA
ENDBRANCH   3   2
ENDBRANCH   4   3
ENDBRANCH   7   6
ENDBRANCH   8   7
BRANCH   8  12
ATOM     12  N   UNL     1      -3.742   0.859  24.995  0.00  0.00    -0.217 NA
BRANCH  12  13
ATOM     13  C   UNL     1      -3.784   0.058  24.801  0.00  0.00    +0.076 C 
ATOM     14  C   UNL     1      -3.748  -0.512  25.395  0.00  0.00    +0.035 C 
ATOM     15  C   UNL     1      -3.790  -1.313  25.202  0.00  0.00    +0.074 C 
ATOM     16  N   UNL     1      -3.868  -1.543  24.414  0.00  0.00    -0.271 NA
ATOM     17  C   UNL     1      -3.910  -2.344  24.220  0.00  0.00    +0.090 C 
ATOM     18  C   UNL     1      -3.905  -0.973  23.819  0.00  0.00    +0.074 C 
ATOM     19  C   UNL     1      -3.862  -0.172  24.012  0.00  0.00    +0.035 C 
ENDBRANCH  12  13
ENDBRANCH   8  12
TORSDOF 6
ENDMDL
MODEL 2
REMARK VINA RESULT:      -8.2      1.313      4.418
REMARK  Name = 
REMARK  6 active torsions:
REMARK  status: ('A' for Active; 'I' for Inactive)
REMARK    1  A    between atoms: O_2  and  C_3
REMARK    2  A    between atoms: C_3  and  C_4
REMARK    3  A    between atoms: C_6  and  C_7
REMARK    4  A    between atoms: C_7  and  C_8
REMARK    5  A    between atoms: C_8  and  N_12
REMARK    6  A    between atoms: N_12  and  C_13
REMARK                            x       y       z     vdW  Elec       q    Type
REMARK                         _______ _______ _______ _____ _____    ______ ____
ROOT
ATOM      8  C   UNL     1      -3.764   2.311  24.628  0.00  0.00    +0.119 C 
ATOM      9  C   UNL     1      -4.138   2.999  24.889  0.00  0.00    +0.161 C 
ATOM     10  O   UNL     1      -4.706   2.913  24.296  0.00  0.00    -0.351 OA
ATOM     11  C   UNL     1      -4.332   2.226  24.037  0.00  0.00    +0.161 C 
ENDROOT
BRANCH   8   7
ATOM      7  C   UNL     1      -3.389   1.624  24.368  0.00  0.00    +0.070 C 
BRANCH   7   6
ATOM      4  C   UNL     1      -4.059  -0.402  24.436  0.00  0.00    +0.184 A 
ATOM      5  C   UNL     1      -3.632   0.204  24.074  0.00  0.00    +0.056 A 
ATOM      6  C   UNL     1      -3.723   0.886  24.528  0.00  0.00    +0.102 A 
ATOM     20  N   UNL     1      -4.206   0.702  25.172  0.00  0.00    -0.082 NA
ATOM     21  O   UNL     1      -4.413  -0.095  25.114  0.00  0.00    -0.356 OA
BRANCH   4   3
ATOM      3  C   UNL     1      -4.120  -1.179  24.167  0.00  0.00    +0.209 C 
BRANCH   3   2
ATOM      1  C   UNL     1      -3.784  -2.562  24.298  0.00  0.00    +0.175 C 
ATOM      2  O   UNL     1      -3.773  -1.793  24.596  0.00  0.00    -0.343 OA
ENDBRANCH   3   2
ENDBRANCH   4   3
ENDBRANCH   7   6
ENDBRANCH   8   7
BRANCH   8  12
ATOM     12  N   UNL     1      -3.195   2.397  25.220  0.00  0.00    -0.217 NA
BRANCH  12  13
ATOM     13  C   UNL     1      -2.644   3.009  25.177  0.00  0.00    +0.076 C 
ATOM     14  C   UNL     1      -2.738   3.682  25.644  0.00  0.00    +0.035 C 
ATOM     15  C   UNL     1      -2.187   4.295  25.601  0.00  0.00    +0.074 C 
ATOM     16  N   UNL     1      -1.542   4.234  25.090  0.00  0.00    -0.271 NA
ATOM     17  C   UNL     1      -0.991   4.846  25.048  0.00  0.00    +0.090 C 
ATOM     18  C   UNL     1      -1.448   3.561  24.623  0.00  0.00    +0.074 C 
ATOM     19  C   UNL     1      -1.999   2.948  24.666  0.00  0.00    +0.035 C 
ENDBRANCH  12  13
ENDBRANCH   8  12
TORSDOF 6
ENDMDL
MODEL 3
REMARK VINA RESULT:      -7.9      1.451      4.561
REMARK  Name = 
REMARK  6 active torsions:
REMARK  status: ('A' for Active; 'I' for Inactive)
REMARK    1  A    between atoms: O_2  and  C_3
REMARK    2  A    between atoms: C_3  and  C_4
REMARK    3  A    between atoms: C_6  and  C_7
REMARK    4  A    between atoms: C_7  and  C_8
REMARK    5  A    between atoms: C_8  and  N_12
REMARK    6  A    between atoms: N_12  and  C_13
REMARK                            x       y       z     vdW  Elec       q    Type
REMARK                         _______ _______ _______ _____ _____    ______ ____
ROOT
ATOM      8  C   UNL     1      -3.088   1.846  24.169  0.00  0.00    +0.119 C 
ATOM      9  C   UNL     1      -3.401   2.446  23.697  0.00  0.00    +0.161 C 
ATOM     10  O   UNL     1      -3.311   1.967  23.031  0.00  0.00    -0.351 OA
ATOM     11  C   UNL     1      -2.998   1.368  23.504  0.00  0.00    +0.161 C 
ENDROOT
BRANCH   8   7
ATOM      7  C   UNL     1      -2.775   1.247  24.643  0.00  0.00    +0.070 C 
BRANCH   7   6
ATOM      4  C   UNL     1      -3.581  -0.695  25.011  0.00  0.00    +0.184 A 
ATOM      5  C   UNL     1      -2.947  -0.202  24.822  0.00  0.00    +0.056 A 
ATOM      6  C   UNL     1      -3.224   0.575  24.809  0.00  0.00    +0.102 A 
ATOM     20  N   UNL     1      -4.029   0.563  24.991  0.00  0.00    -0.082 NA
ATOM     21  O   UNL     1      -4.250  -0.222  25.116  0.00  0.00    -0.356 OA
BRANCH   4   3
ATOM      3  C   UNL     1      -3.552  -1.516  25.084  0.00  0.00    +0.209 C 
BRANCH   3   2
ATOM      1  C   UNL     1      -3.676  -2.796  24.461  0.00  0.00    +0.175 C 
ATOM      2  O   UNL     1      -3.867  -1.994  24.490  0.00  0.00    -0.343 OA
ENDBRANCH   3   2
ENDBRANCH   4   3
ENDBRANCH   7   6
ENDBRANCH   8   7
BRANCH   8  12
ATOM     12  N   UNL     1      -3.177   2.325  24.836  0.00  0.00    -0.217 NA
BRANCH  12  13
ATOM     13  C   UNL     1      -2.702   2.994  24.930  0.00  0.00    +0.076 C 
ATOM     14  C   UNL     1      -1.891   2.909  25.048  0.00  0.00    +0.035 C 
ATOM     15  C   UNL     1      -1.415   3.576  25.142  0.00  0.00    +0.074 C 
ATOM     16  N   UNL     1      -1.752   4.328  25.119  0.00  0.00    -0.271 NA
ATOM     17  C   UNL     1      -1.277   4.996  25.213  0.00  0.00    +0.090 C 
ATOM     18  C   UNL     1      -2.564   4.413  25.001  0.00  0.00    +0.074 C 
ATOM     19  C   UNL     1      -3.040   3.746  24.907  0.00  0.00    +0.035 C 
ENDBRANCH  12  13
ENDBRANCH   8  12
TORSDOF 6
ENDMDL
MODEL 4
REMARK VINA RESULT:      -7.9      1.115      1.268
REMARK  Name = 
REMARK  6 active torsions:
REMARK  status: ('A' for Active; 'I' for Inactive)
REMARK    1  A    between atoms: O_2  and  C_3
REMARK    2  A    between atoms: C_3  and  C_4
REMARK    3  A    between atoms: C_6  and  C_7
REMARK    4  A    between atoms: C_7  and  C_8
REMARK    5  A    between atoms: C_8  and  N_12
REMARK    6  A    between atoms: N_12  and  C_13
REMARK                            x       y       z     vdW  Elec       q    Type
REMARK                         _______ _______ _______ _____ _____    ______ ____
ROOT
ATOM      8  C   UNL     1      -3.129   1.068  24.189  0.00  0.00    +0.119 C 
ATOM      9  C   UNL     1      -3.512   0.778  23.518  0.00  0.00    +0.161 C 
ATOM     10  O   UNL     1      -2.980   1.187  23.039  0.00  0.00    -0.351 OA
ATOM     11  C   UNL     1      -2.597   1.477  23.709  0.00  0.00    +0.161 C 
ENDROOT
BRANCH   8   7
ATOM      7  C   UNL     1      -2.747   1.358  24.860  0.00  0.00    +0.070 C 
BRANCH   7   6
ATOM      4  C   UNL     1      -2.465   3.411  25.374  0.00  0.00    +0.184 A 
ATOM      5  C   UNL     1      -2.162   2.661  25.211  0.00  0.00    +0.056 A 
ATOM      6  C   UNL     1      -2.797   2.159  25.051  0.00  0.00    +0.102 A 
ATOM     20  N   UNL     1      -3.493   2.599  25.115  0.00  0.00    -0.082 NA
ATOM     21  O   UNL     1      -3.287   3.373  25.315  0.00  0.00    -0.356 OA
BRANCH   4   3
ATOM      3  C   UNL     1      -2.023   4.081  25.563  0.00  0.00    +0.209 C 
BRANCH   3   2
ATOM      1  C   UNL     1      -1.331   5.246  25.110  0.00  0.00    +0.175 C 
ATOM      2  O   UNL     1      -1.919   4.678  25.002  0.00  0.00    -0.343 OA
ENDBRANCH   3   2
ENDBRANCH   4   3
ENDBRANCH   7   6
ENDBRANCH   8   7
BRANCH   8  12
ATOM     12  N   UNL     1      -3.661   0.659  24.669  0.00  0.00    -0.217 NA
BRANCH  12  13
ATOM     13  C   UNL     1      -3.627  -0.164  24.715  0.00  0.00    +0.076 C 
ATOM     14  C   UNL     1      -3.071  -0.527  25.204  0.00  0.00    +0.035 C 
ATOM     15  C   UNL     1      -3.036  -1.350  25.250  0.00  0.00    +0.074 C 
ATOM     16  N   UNL     1      -3.558  -1.809  24.806  0.00  0.00    -0.271 NA
ATOM     17  C   UNL     1      -3.523  -2.632  24.853  0.00  0.00    +0.090 C 
ATOM     18  C   UNL     1      -4.114  -1.447  24.318  0.00  0.00    +0.074 C 
ATOM     19  C   UNL     1      -4.149  -0.624  24.271  0.00  0.00    +0.035 C 
ENDBRANCH  12  13
ENDBRANCH   8  12
TORSDOF 6
ENDMDL
MODEL 5
REMARK VINA RESULT:      -7.8      1.423      1.996
REMARK  Name = 
REMARK  6 active torsions:
REMARK  status: ('A' for Active; 'I' for Inactive)
REMARK    1  A    between atoms: O_2  and  C_3
REMARK    2  A    between atoms: C_3  and  C_4
REMARK    3  A    between atoms: C_6  and  C_7
REMARK    4  A    between atoms: C_7  and  C_8
REMARK    5  A    between atoms: C_8  and  N_12
REMARK    6  A    between atoms: N_12  and  C_13
REMARK                            x       y       z     vdW  Elec       q    Type
REMARK                         _______ _______ _______ _____ _____    ______ ____
ROOT
ATOM      8  C   UNL     1      -2.984   0.641  24.378  0.00  0.00    +0.119 C 
ATOM      9  C   UNL     1      -2.339   0.278  24.742  0.00  0.00    +0.161 C 
ATOM     10  O   UNL     1      -1.826   0.710  24.260  0.00  0.00    -0.351 OA
ATOM     11  C   UNL     1      -2.472   1.072  23.897  0.00  0.00    +0.161 C 
ENDROOT
BRANCH   8   7
ATOM      7  C   UNL     1      -3.631   1.003  24.016  0.00  0.00    +0.070 C 
BRANCH   7   6
ATOM      4  C   UNL     1      -4.207   2.947  24.682  0.00  0.00    +0.184 A 
ATOM      5  C   UNL     1      -4.190   2.128  24.779  0.00  0.00    +0.056 A 
ATOM      6  C   UNL     1      -3.779   1.805  24.141  0.00  0.00    +0.102 A 
ATOM     20  N   UNL     1      -3.542   2.424  23.649  0.00  0.00    -0.082 NA
ATOM     21  O   UNL     1      -3.806   3.130  23.984  0.00  0.00    -0.356 OA
BRANCH   4   3
ATOM      3  C   UNL     1      -4.561   3.488  25.194  0.00  0.00    +0.209 C 
BRANCH   3   2
ATOM      1  C   UNL     1      -5.751   4.106  25.689  0.00  0.00    +0.175 C 
ATOM      2  O   UNL     1      -5.379   3.480  25.300  0.00  0.00    -0.343 OA
ENDBRANCH   3   2
ENDBRANCH   4   3
ENDBRANCH   7   6
ENDBRANCH   8   7
BRANCH   8  12
ATOM     12  N   UNL     1      -3.497   0.209  24.860  0.00  0.00    -0.217 NA
BRANCH  12  13
ATOM     13  C   UNL     1      -3.566  -0.608  24.762  0.00  0.00    +0.076 C 
ATOM     14  C   UNL     1      -3.277  -1.118  25.341  0.00  0.00    +0.035 C 
ATOM     15  C   UNL     1      -3.345  -1.934  25.244  0.00  0.00    +0.074 C 
ATOM     16  N   UNL     1      -3.703  -2.239  24.566  0.00  0.00    -0.271 NA
ATOM     17  C   UNL     1      -3.772  -3.056  24.469  0.00  0.00    +0.090 C 
ATOM     18  C   UNL     1      -3.993  -1.729  23.987  0.00  0.00    +0.074 C 
ATOM     19  C   UNL     1      -3.925  -0.913  24.085  0.00  0.00    +0.035 C 
ENDBRANCH  12  13
ENDBRANCH   8  12
TORSDOF 6
ENDMDL
MODEL 6
REMARK VINA RESULT:      -7.5      2.537      3.571
REMARK  Name = 
REMARK  6 active torsions:
REMARK  status: ('A' for Active; 'I' for Inactive)
REMARK    1  A    between atoms: O_2  and  C_3
REMARK    2  A    between atoms: C_3  and  C_4
REMARK    3  A    between atoms: C_6  and  C_7
REMARK    4  A    between atoms: C_7  and  C_8
REMARK    5  A    between atoms: C_8  and  N_12
REMARK    6  A    between atoms: N_12  and  C_13
REMARK                            x       y       z     vdW  Elec       q    Type
REMARK                         _______ _______ _______ _____ _____    ______ ____
ROOT
ATOM      8  C   UNL     1      -2.985   1.996  23.865  0.00  0.00    +0.119 C 
ATOM      9  C   UNL     1      -3.352   2.679  23.581  0.00  0.00    +0.161 C 
ATOM     10  O   UNL     1      -3.177   2.449  22.808  0.00  0.00    -0.351 OA
ATOM     11  C   UNL     1      -2.811   1.767  23.092  0.00  0.00    +0.161 C 
ENDROOT
BRANCH   8   7
ATOM      7  C   UNL     1      -2.619   1.314  24.150  0.00  0.00    +0.070 C 
BRANCH   7   6
ATOM      4  C   UNL     1      -0.568   0.749  23.981  0.00  0.00    +0.184 A 
ATOM      5  C   UNL     1      -1.371   0.569  23.931  0.00  0.00    +0.056 A 
ATOM      6  C   UNL     1      -1.797   1.247  24.129  0.00  0.00    +0.102 A 
ATOM     20  N   UNL     1      -1.257   1.847  24.301  0.00  0.00    -0.082 NA
ATOM     21  O   UNL     1      -0.497   1.539  24.210  0.00  0.00    -0.356 OA
BRANCH   4   3
ATOM      3  C   UNL     1       0.056   0.231  23.829  0.00  0.00    +0.209 C 
BRANCH   3   2
ATOM      1  C   UNL     1       1.119  -0.210  22.983  0.00  0.00    +0.175 C 
ATOM      2  O   UNL     1       0.517   0.327  23.152  0.00  0.00    -0.343 OA
ENDBRANCH   3   2
ENDBRANCH   4   3
ENDBRANCH   7   6
ENDBRANCH   8   7
BRANCH   8  12
ATOM     12  N   UNL     1      -3.160   2.225  24.639  0.00  0.00    -0.217 NA
BRANCH  12  13
ATOM     13  C   UNL     1      -3.941   2.214  24.905  0.00  0.00    +0.076 C 
ATOM     14  C   UNL     1      -4.300   2.912  25.159  0.00  0.00    +0.035 C 
ATOM     15  C   UNL     1      -5.080   2.902  25.426  0.00  0.00    +0.074 C 
ATOM     16  N   UNL     1      -5.502   2.193  25.438  0.00  0.00    -0.271 NA
ATOM     17  C   UNL     1      -6.283   2.184  25.705  0.00  0.00    +0.090 C 
ATOM     18  C   UNL     1      -5.144   1.496  25.184  0.00  0.00    +0.074 C 
ATOM     19  C   UNL     1      -4.363   1.505  24.918  0.00  0.00    +0.035 C 
ENDBRANCH  12  13
ENDBRANCH   8  12
TORSDOF 6
ENDMDL
