MODEL 1
REMARK VINA RESULT:     -13.9      0.000      0.000
REMARK  Name = 
REMARK  2 active torsions:
REMARK  status: ('A' for Active; 'I' for Inactive)
REMARK    1  A    between atoms: C_5  and  C_8
REMARK    2  A    between atoms: C_13  and  C_15
REMARK                            x       y       z     vdW  Elec       q    Type
REMARK                         _______ _______ _______ _____ _____    ______ ____
ROOT
ATOM      8  C   UNL     1      -3.940  -0.025  24.961  0.00  0.00    +0.249 C 
ATOM      9  O   UNL     1      -4.651   0.285  25.245  0.00  0.00    -0.270 OA
ATOM     10  N   UNL     1      -3.286   0.468  24.860  0.00  0.00    -0.276 N 
ATOM     11  C   UNL     1      -2.544   0.238  24.583  0.00  0.00    +0.094 C 
ATOM     12  C   UNL     1      -2.059   0.906  24.570  0.00  0.00    +0.031 C 
ATOM     13  C   UNL     1      -2.502   1.548  24.839  0.00  0.00    +0.080 C 
ATOM     14  C   UNL     1      -3.260   1.278  25.018  0.00  0.00    +0.101 C 
ENDROOT
BRANCH  13  15
ATOM     15  C   UNL     1      -2.233   2.325  24.915  0.00  0.00    +0.140 A 
ATOM     16  N   UNL     1      -1.496   2.608  24.678  0.00  0.00    -0.229 NA
ATOM     17  C   UNL     1      -1.462   3.412  24.858  0.00  0.00    +0.102 A 
ATOM     18  C   UNL     1      -2.179   3.626  25.205  0.00  0.00    +0.100 A 
ATOM     19  N   UNL     1      -2.656   2.954  25.241  0.00  0.00    -0.229 NA
ATOM     20  C   UNL     1      -2.304   4.406  25.445  0.00  0.00    +0.023 A 
ATOM     21  C   UNL     1      -1.714   4.971  25.337  0.00  0.00    +0.031 A 
ATOM     22  C   UNL     1      -0.997   4.757  24.989  0.00  0.00    +0.142 A 
ATOM     23  F   UNL     1      -0.405   5.321  24.881  0.00  0.00    -0.204 F 
ATOM     24  C   UNL     1      -0.870   3.977  24.750  0.00  0.00    +0.050 A 
ENDBRANCH  13  15
BRANCH   8   5
ATOM      1  F   UNL     1      -3.717  -3.235  24.233  0.00  0.00    -0.204 F 
ATOM      2  C   UNL     1      -3.773  -2.432  24.415  0.00  0.00    +0.140 A 
ATOM      3  C   UNL     1      -4.099  -1.907  23.869  0.00  0.00    +0.030 A 
ATOM      4  C   UNL     1      -4.155  -1.105  24.051  0.00  0.00    +0.007 A 
ATOM      5  C   UNL     1      -3.884  -0.827  24.780  0.00  0.00    +0.054 A 
ATOM      6  C   UNL     1      -3.558  -1.352  25.326  0.00  0.00    +0.007 A 
ATOM      7  C   UNL     1      -3.502  -2.155  25.143  0.00  0.00    +0.030 A 
ENDBRANCH   8   5
TORSDOF 2
ENDMDL
MODEL 2
REMARK VINA RESULT:     -13.4      1.088      5.527
REMARK  Name = 
REMARK  2 active torsions:
REMARK  status: ('A' for Active; 'I' for Inactive)
REMARK    1  A    between atoms: C_5  and  C_8
REMARK    2  A    between atoms: C_13  and  C_15
REMARK                            x       y       z     vdW  Elec       q    Type
REMARK                         _______ _______ _______ _____ _____    ______ ____
ROOT
ATOM      8  C   UNL     1      -1.429   2.480  25.494  0.00  0.00    +0.249 C 
ATOM      9  O   UNL     1      -0.864   2.127  25.982  0.00  0.00    -0.270 OA
ATOM     10  N   UNL     1      -2.002   2.016  25.124  0.00  0.00    -0.276 N 
ATOM     11  C   UNL     1      -2.599   2.290  24.624  0.00  0.00    +0.094 C 
ATOM     12  C   UNL     1      -3.045   1.639  24.380  0.00  0.00    +0.031 C 
ATOM     13  C   UNL     1      -2.723   0.964  24.729  0.00  0.00    +0.080 C 
ATOM     14  C   UNL     1      -2.079   1.197  25.189  0.00  0.00    +0.101 C 
ENDROOT
BRANCH  13  15
ATOM     15  C   UNL     1      -2.998   0.192  24.635  0.00  0.00    +0.140 A 
ATOM     16  N   UNL     1      -2.758  -0.465  25.072  0.00  0.00    -0.229 NA
ATOM     17  C   UNL     1      -3.173  -1.121  24.794  0.00  0.00    +0.102 A 
ATOM     18  C   UNL     1      -3.669  -0.870  24.184  0.00  0.00    +0.100 A 
ATOM     19  N   UNL     1      -3.561  -0.059  24.086  0.00  0.00    -0.229 NA
ATOM     20  C   UNL     1      -4.155  -1.414  23.798  0.00  0.00    +0.023 A 
ATOM     21  C   UNL     1      -4.145  -2.208  24.021  0.00  0.00    +0.031 A 
ATOM     22  C   UNL     1      -3.649  -2.459  24.630  0.00  0.00    +0.142 A 
ATOM     23  F   UNL     1      -3.638  -3.253  24.854  0.00  0.00    -0.204 F 
ATOM     24  C   UNL     1      -3.163  -1.916  25.017  0.00  0.00    +0.050 A 
ENDBRANCH  13  15
BRANCH   8   5
ATOM      1  F   UNL     1      -1.392   5.746  25.026  0.00  0.00    -0.204 F 
ATOM      2  C   UNL     1      -1.401   4.929  25.143  0.00  0.00    +0.140 A 
ATOM      3  C   UNL     1      -0.847   4.452  24.763  0.00  0.00    +0.030 A 
ATOM      4  C   UNL     1      -0.856   3.635  24.879  0.00  0.00    +0.007 A 
ATOM      5  C   UNL     1      -1.420   3.296  25.377  0.00  0.00    +0.054 A 
ATOM      6  C   UNL     1      -1.975   3.774  25.758  0.00  0.00    +0.007 A 
ATOM      7  C   UNL     1      -1.965   4.591  25.640  0.00  0.00    +0.030 A 
ENDBRANCH   8   5
TORSDOF 2
ENDMDL
MODEL 3
REMARK VINA RESULT:     -11.8      2.180      2.669
REMARK  Name = 
REMARK  2 active torsions:
REMARK  status: ('A' for Active; 'I' for Inactive)
REMARK    1  A    between atoms: C_5  and  C_8
REMARK    2  A    between atoms: C_13  and  C_15
REMARK                            x       y       z     vdW  Elec       q    Type
REMARK                         _______ _______ _______ _____ _____    ______ ____
ROOT
ATOM      8  C   UNL     1      -3.456  -1.187  25.429  0.00  0.00    +0.249 C 
ATOM      9  O   UNL     1      -3.585  -1.276  26.239  0.00  0.00    -0.270 OA
ATOM     10  N   UNL     1      -3.623  -0.469  25.060  0.00  0.00    -0.276 N 
ATOM     11  C   UNL     1      -3.523  -0.299  24.259  0.00  0.00    +0.094 C 
ATOM     12  C   UNL     1      -3.758   0.482  24.132  0.00  0.00    +0.031 C 
ATOM     13  C   UNL     1      -4.004   0.795  24.856  0.00  0.00    +0.080 C 
ATOM     14  C   UNL     1      -3.920   0.207  25.429  0.00  0.00    +0.101 C 
ENDROOT
BRANCH  13  15
ATOM     15  C   UNL     1      -4.284   1.560  24.983  0.00  0.00    +0.140 A 
ATOM     16  N   UNL     1      -5.051   1.766  25.203  0.00  0.00    -0.229 NA
ATOM     17  C   UNL     1      -5.087   2.587  25.268  0.00  0.00    +0.102 A 
ATOM     18  C   UNL     1      -4.341   2.889  25.088  0.00  0.00    +0.100 A 
ATOM     19  N   UNL     1      -3.844   2.255  24.912  0.00  0.00    -0.229 NA
ATOM     20  C   UNL     1      -4.211   3.704  25.108  0.00  0.00    +0.023 A 
ATOM     21  C   UNL     1      -4.825   4.215  25.308  0.00  0.00    +0.031 A 
ATOM     22  C   UNL     1      -5.572   3.913  25.488  0.00  0.00    +0.142 A 
ATOM     23  F   UNL     1      -6.187   4.424  25.689  0.00  0.00    -0.204 F 
ATOM     24  C   UNL     1      -5.703   3.099  25.469  0.00  0.00    +0.050 A 
ENDBRANCH  13  15
BRANCH   8   5
ATOM      1  F   UNL     1      -2.268  -3.710  23.663  0.00  0.00    -0.204 F 
ATOM      2  C   UNL     1      -2.565  -3.079  24.105  0.00  0.00    +0.140 A 
ATOM      3  C   UNL     1      -2.048  -2.532  24.441  0.00  0.00    +0.030 A 
ATOM      4  C   UNL     1      -2.345  -1.901  24.882  0.00  0.00    +0.007 A 
ATOM      5  C   UNL     1      -3.159  -1.818  24.987  0.00  0.00    +0.054 A 
ATOM      6  C   UNL     1      -3.676  -2.366  24.651  0.00  0.00    +0.007 A 
ATOM      7  C   UNL     1      -3.379  -2.996  24.209  0.00  0.00    +0.030 A 
ENDBRANCH   8   5
TORSDOF 2
ENDMDL
MODEL 4
REMARK VINA RESULT:     -10.6      3.059      3.835
REMARK  Name = 
REMARK  2 active torsions:
REMARK  status: ('A' for Active; 'I' for Inactive)
REMARK    1  A    between atoms: C_5  and  C_8
REMARK    2  A    between atoms: C_13  and  C_15
REMARK                            x       y       z     vdW  Elec       q    Type
REMARK                         _______ _______ _______ _____ _____    ______ ____
ROOT
ATOM      8  C   UNL     1      -0.787   0.800  24.749  0.00  0.00    +0.249 C 
ATOM      9  O   UNL     1      -0.635   0.750  25.559  0.00  0.00    -0.270 OA
ATOM     10  N   UNL     1      -1.503   1.112  24.482  0.00  0.00    -0.276 N 
ATOM     11  C   UNL     1      -1.731   1.196  23.694  0.00  0.00    +0.094 C 
ATOM     12  C   UNL     1      -2.485   1.532  23.682  0.00  0.00    +0.031 C 
ATOM     13  C   UNL     1      -2.722   1.655  24.463  0.00  0.00    +0.080 C 
ATOM     14  C   UNL     1      -2.115   1.396  24.957  0.00  0.00    +0.101 C 
ENDROOT
BRANCH  13  15
ATOM     15  C   UNL     1      -3.440   1.980  24.706  0.00  0.00    +0.140 A 
ATOM     16  N   UNL     1      -3.572   2.768  24.909  0.00  0.00    -0.229 NA
ATOM     17  C   UNL     1      -4.365   2.849  25.117  0.00  0.00    +0.102 A 
ATOM     18  C   UNL     1      -4.725   2.110  25.043  0.00  0.00    +0.100 A 
ATOM     19  N   UNL     1      -4.154   1.573  24.789  0.00  0.00    -0.229 NA
ATOM     20  C   UNL     1      -5.527   2.023  25.216  0.00  0.00    +0.023 A 
ATOM     21  C   UNL     1      -5.969   2.674  25.464  0.00  0.00    +0.031 A 
ATOM     22  C   UNL     1      -5.609   3.413  25.538  0.00  0.00    +0.142 A 
ATOM     23  F   UNL     1      -6.051   4.064  25.786  0.00  0.00    -0.204 F 
ATOM     24  C   UNL     1      -4.808   3.501  25.365  0.00  0.00    +0.050 A 
ENDBRANCH  13  15
BRANCH   8   5
ATOM      1  F   UNL     1       1.467  -0.250  22.580  0.00  0.00    -0.204 F 
ATOM      2  C   UNL     1       0.903   0.012  23.123  0.00  0.00    +0.140 A 
ATOM      3  C   UNL     1       0.894   0.802  23.357  0.00  0.00    +0.030 A 
ATOM      4  C   UNL     1       0.330   1.066  23.899  0.00  0.00    +0.007 A 
ATOM      5  C   UNL     1      -0.224   0.537  24.207  0.00  0.00    +0.054 A 
ATOM      6  C   UNL     1      -0.214  -0.254  23.973  0.00  0.00    +0.007 A 
ATOM      7  C   UNL     1       0.350  -0.516  23.430  0.00  0.00    +0.030 A 
ENDBRANCH   8   5
TORSDOF 2
ENDMDL
MODEL 5
REMARK VINA RESULT:     -10.3      2.286      5.334
REMARK  Name = 
REMARK  2 active torsions:
REMARK  status: ('A' for Active; 'I' for Inactive)
REMARK    1  A    between atoms: C_5  and  C_8
REMARK    2  A    between atoms: C_13  and  C_15
REMARK                            x       y       z     vdW  Elec       q    Type
REMARK                         _______ _______ _______ _____ _____    ______ ____
ROOT
ATOM      8  C   UNL     1      -4.174   2.224  24.358  0.00  0.00    +0.249 C 
ATOM      9  O   UNL     1      -3.734   2.417  23.687  0.00  0.00    -0.270 OA
ATOM     10  N   UNL     1      -4.169   1.452  24.647  0.00  0.00    -0.276 N 
ATOM     11  C   UNL     1      -4.579   1.178  25.309  0.00  0.00    +0.094 C 
ATOM     12  C   UNL     1      -4.416   0.374  25.395  0.00  0.00    +0.031 C 
ATOM     13  C   UNL     1      -3.905   0.150  24.787  0.00  0.00    +0.080 C 
ATOM     14  C   UNL     1      -3.753   0.816  24.325  0.00  0.00    +0.101 C 
ENDROOT
BRANCH  13  15
ATOM     15  C   UNL     1      -3.601  -0.607  24.663  0.00  0.00    +0.140 A 
ATOM     16  N   UNL     1      -2.803  -0.805  24.604  0.00  0.00    -0.229 NA
ATOM     17  C   UNL     1      -2.750  -1.618  24.481  0.00  0.00    +0.102 A 
ATOM     18  C   UNL     1      -3.516  -1.923  24.464  0.00  0.00    +0.100 A 
ATOM     19  N   UNL     1      -4.042  -1.299  24.577  0.00  0.00    -0.229 NA
ATOM     20  C   UNL     1      -3.635  -2.732  24.349  0.00  0.00    +0.023 A 
ATOM     21  C   UNL     1      -2.989  -3.234  24.250  0.00  0.00    +0.031 A 
ATOM     22  C   UNL     1      -2.223  -2.929  24.266  0.00  0.00    +0.142 A 
ATOM     23  F   UNL     1      -1.576  -3.431  24.168  0.00  0.00    -0.204 F 
ATOM     24  C   UNL     1      -2.103  -2.121  24.382  0.00  0.00    +0.050 A 
ENDBRANCH  13  15
BRANCH   8   5
ATOM      1  F   UNL     1      -5.951   4.548  25.886  0.00  0.00    -0.204 F 
ATOM      2  C   UNL     1      -5.507   3.966  25.504  0.00  0.00    +0.140 A 
ATOM      3  C   UNL     1      -4.683   4.003  25.516  0.00  0.00    +0.030 A 
ATOM      4  C   UNL     1      -4.238   3.422  25.134  0.00  0.00    +0.007 A 
ATOM      5  C   UNL     1      -4.619   2.805  24.740  0.00  0.00    +0.054 A 
ATOM      6  C   UNL     1      -5.442   2.768  24.728  0.00  0.00    +0.007 A 
ATOM      7  C   UNL     1      -5.886   3.349  25.110  0.00  0.00    +0.030 A 
ENDBRANCH   8   5
TORSDOF 2
ENDMDL
