REMARK  Name = 
REMARK  5 active torsions:
REMARK  status: ('A' for Active; 'I' for Inactive)
REMARK    1  A    between atoms: C_2  and  N_3
REMARK    2  A    between atoms: N_6  and  C_7
REMARK    3  A    between atoms: C_7  and  C_8
REMARK    4  A    between atoms: C_15  and  C_16
REMARK    5  A    between atoms: C_18  and  C_22
REMARK                            x       y       z     vdW  Elec       q    Type
REMARK                         _______ _______ _______ _____ _____    ______ ____
ROOT
ATOM      8  C   UNL     1       1.814  -2.106   0.000  0.00  0.00    +0.079 C 
ATOM      9  C   UNL     1       1.661  -1.343   0.000  0.00  0.00    +0.018 C 
ATOM     10  C   UNL     1       0.923  -1.010   0.000  0.00  0.00    +0.010 C 
ATOM     11  C   UNL     1       0.961  -0.114   0.000  0.00  0.00    +0.018 C 
ATOM     12  C   UNL     1       1.205  -0.720   0.000  0.00  0.00    +0.072 C 
ATOM     13  N   UNL     1       1.065  -1.759   0.000  0.00  0.00    -0.272 NA
ATOM     14  C   UNL     1       0.226  -2.118   0.000  0.00  0.00    +0.078 C 
ATOM     15  C   UNL     1       0.119  -1.362   0.000  0.00  0.00    +0.056 C 
ENDROOT
BRANCH  15  16
ATOM     16  C   UNL     1      -0.602  -0.960   0.000  0.00  0.00    +0.058 A 
ATOM     17  C   UNL     1      -1.350  -1.307   0.000  0.00  0.00    +0.031 A 
ATOM     18  C   UNL     1      -1.911  -0.703   0.000  0.00  0.00    +0.079 A 
ATOM     19  N   UNL     1      -1.510   0.018   0.000  0.00  0.00    -0.174 NA
ATOM     20  N   UNL     1      -0.700  -0.141   0.000  0.00  0.00    -0.253 N 
ATOM     21  C   UNL     1      -0.095   0.420   0.000  0.00  0.00    +0.153 C 
BRANCH  18  22
ATOM     22  C   UNL     1      -2.730  -0.801   0.000  0.00  0.00    +0.042 C 
ATOM     23  C   UNL     1      -3.055  -1.560   0.000  0.00  0.00    +0.006 C 
ATOM     24  C   UNL     1      -3.874  -1.658   0.000  0.00  0.00    +0.000 C 
ATOM     25  C   UNL     1      -4.369  -0.998   0.000  0.00  0.00    +0.000 C 
ATOM     26  C   UNL     1      -4.044  -0.239   0.000  0.00  0.00    +0.000 C 
ATOM     27  C   UNL     1      -3.225  -0.141   0.000  0.00  0.00    +0.006 C 
ENDBRANCH  18  22
ENDBRANCH  15  16
BRANCH   8   7
ATOM      7  C   UNL     1       2.324  -2.754   0.000  0.00  0.00    +0.133 C 
BRANCH   7   6
ATOM      3  N   UNL     1       4.264  -1.752   0.000  0.00  0.00    -0.187 NA
ATOM      4  C   UNL     1       3.447  -1.869   0.000  0.00  0.00    +0.339 C 
ATOM      5  O   UNL     1       2.937  -1.221   0.000  0.00  0.00    -0.249 OA
ATOM      6  N   UNL     1       3.141  -2.636   0.000  0.00  0.00    -0.186 NA
BRANCH   3   2
ATOM      1  C   UNL     1       5.386  -0.867   0.000  0.00  0.00    +0.025 C 
ATOM      2  C   UNL     1       4.570  -0.985   0.000  0.00  0.00    +0.117 C 
ENDBRANCH   3   2
ENDBRANCH   7   6
ENDBRANCH   8   7
TORSDOF 5
