MODEL 1
REMARK VINA RESULT:      -9.9      0.000      0.000
REMARK  Name = 
REMARK  8 active torsions:
REMARK  status: ('A' for Active; 'I' for Inactive)
REMARK    1  A    between atoms: O_2  and  C_3
REMARK    2  A    between atoms: C_3  and  C_5
REMARK    3  A    between atoms: C_11  and  C_13
REMARK    4  A    between atoms: C_13  and  O_14
REMARK    5  A    between atoms: O_14  and  C_15
REMARK    6  A    between atoms: N_21  and  C_22
REMARK    7  A    between atoms: C_22  and  C_23
REMARK    8  A    between atoms: C_26  and  O_27
REMARK                            x       y       z     vdW  Elec       q    Type
REMARK                         _______ _______ _______ _____ _____    ______ ____
ROOT
ATOM      5  C   UNL     1      -0.492   1.091  24.956  0.00  0.00    +0.181 C 
ATOM      6  C   UNL     1      -0.235   0.319  24.825  0.00  0.00    +0.078 C 
ATOM      7  C   UNL     1      -0.754  -0.314  24.935  0.00  0.00    +0.076 A 
ATOM      8  C   UNL     1      -1.530  -0.173  25.175  0.00  0.00    +0.072 A 
ATOM      9  C   UNL     1      -1.788   0.601  25.306  0.00  0.00    +0.139 C 
ATOM     10  N   UNL     1      -1.269   1.232  25.196  0.00  0.00    -0.262 N 
ATOM     11  C   UNL     1      -1.527   2.005  25.326  0.00  0.00    +0.271 C 
ATOM     12  O   UNL     1      -2.303   2.146  25.567  0.00  0.00    -0.271 OA
ATOM     21  N   UNL     1      -1.914  -0.900  25.239  0.00  0.00    -0.307 N 
ATOM     31  C   UNL     1      -1.375  -1.491  25.037  0.00  0.00    +0.178 A 
ATOM     32  N   UNL     1      -0.658  -1.128  24.850  0.00  0.00    -0.229 NA
ENDROOT
BRANCH   5   3
ATOM      3  C   UNL     1       0.026   1.722  24.846  0.00  0.00    +0.336 C 
ATOM      4  O   UNL     1       0.382   2.082  25.498  0.00  0.00    -0.248 OA
BRANCH   3   2
ATOM      1  C   UNL     1       0.969   2.025  23.815  0.00  0.00    +0.256 C 
ATOM      2  O   UNL     1       0.190   1.995  24.085  0.00  0.00    -0.443 OA
ENDBRANCH   3   2
ENDBRANCH   5   3
BRANCH  11  13
ATOM     13  C   UNL     1      -1.007   2.637  25.216  0.00  0.00    +0.290 C 
BRANCH  13  14
ATOM     14  O   UNL     1      -1.020   3.275  25.738  0.00  0.00    -0.466 OA
BRANCH  14  15
ATOM     15  C   UNL     1      -1.195   4.032  25.459  0.00  0.00    +0.139 A 
ATOM     16  C   UNL     1      -0.615   4.474  25.073  0.00  0.00    +0.037 A 
ATOM     17  C   UNL     1      -0.791   5.231  24.794  0.00  0.00    +0.003 A 
ATOM     18  C   UNL     1      -1.546   5.545  24.901  0.00  0.00    +0.000 A 
ATOM     19  C   UNL     1      -2.126   5.102  25.287  0.00  0.00    +0.003 A 
ATOM     20  C   UNL     1      -1.951   4.347  25.566  0.00  0.00    +0.037 A 
ENDBRANCH  14  15
ENDBRANCH  13  14
ENDBRANCH  11  13
BRANCH  21  22
ATOM     22  C   UNL     1      -2.699  -1.016  25.463  0.00  0.00    +0.134 C 
BRANCH  22  23
ATOM     23  C   UNL     1      -3.205  -1.458  24.984  0.00  0.00    +0.001 A 
ATOM     24  C   UNL     1      -3.697  -1.077  24.441  0.00  0.00    +0.001 A 
ATOM     25  C   UNL     1      -4.202  -1.519  23.962  0.00  0.00    +0.037 A 
ATOM     26  C   UNL     1      -4.216  -2.342  24.025  0.00  0.00    +0.139 A 
ATOM     29  C   UNL     1      -3.725  -2.723  24.568  0.00  0.00    +0.037 A 
ATOM     30  C   UNL     1      -3.219  -2.280  25.047  0.00  0.00    +0.001 A 
BRANCH  26  27
ATOM     27  O   UNL     1      -4.722  -2.783  23.546  0.00  0.00    -0.471 OA
ATOM     28  C   UNL     1      -4.447  -3.466  23.174  0.00  0.00    +0.252 C 
ENDBRANCH  26  27
ENDBRANCH  22  23
ENDBRANCH  21  22
TORSDOF 8
ENDMDL
MODEL 2
REMARK VINA RESULT:      -9.7      1.909      2.947
REMARK  Name = 
REMARK  8 active torsions:
REMARK  status: ('A' for Active; 'I' for Inactive)
REMARK    1  A    between atoms: O_2  and  C_3
REMARK    2  A    between atoms: C_3  and  C_5
REMARK    3  A    between atoms: C_11  and  C_13
REMARK    4  A    between atoms: C_13  and  O_14
REMARK    5  A    between atoms: O_14  and  C_15
REMARK    6  A    between atoms: N_21  and  C_22
REMARK    7  A    between atoms: C_22  and  C_23
REMARK    8  A    between atoms: C_26  and  O_27
REMARK                            x       y       z     vdW  Elec       q    Type
REMARK                         _______ _______ _______ _____ _____    ______ ____
ROOT
ATOM      5  C   UNL     1      -4.181   2.664  25.246  0.00  0.00    +0.181 C 
ATOM      6  C   UNL     1      -4.861   2.200  25.285  0.00  0.00    +0.078 C 
ATOM      7  C   UNL     1      -4.855   1.433  24.981  0.00  0.00    +0.076 A 
ATOM      8  C   UNL     1      -4.169   1.130  24.639  0.00  0.00    +0.072 A 
ATOM      9  C   UNL     1      -3.487   1.594  24.600  0.00  0.00    +0.139 C 
ATOM     10  N   UNL     1      -3.494   2.361  24.904  0.00  0.00    -0.262 N 
ATOM     11  C   UNL     1      -2.813   2.825  24.865  0.00  0.00    +0.271 C 
ATOM     12  O   UNL     1      -2.126   2.522  24.522  0.00  0.00    -0.271 OA
ATOM     21  N   UNL     1      -4.327   0.361  24.387  0.00  0.00    -0.307 N 
ATOM     31  C   UNL     1      -5.111   0.187  24.574  0.00  0.00    +0.178 A 
ATOM     32  N   UNL     1      -5.437   0.850  24.941  0.00  0.00    -0.229 NA
ENDROOT
BRANCH   5   3
ATOM      3  C   UNL     1      -4.186   3.430  25.549  0.00  0.00    +0.336 C 
ATOM      4  O   UNL     1      -3.826   3.590  26.274  0.00  0.00    -0.248 OA
BRANCH   3   2
ATOM      1  C   UNL     1      -5.156   4.478  25.478  0.00  0.00    +0.256 C 
ATOM      2  O   UNL     1      -4.552   4.039  25.129  0.00  0.00    -0.443 OA
ENDBRANCH   3   2
ENDBRANCH   5   3
BRANCH  11  13
ATOM     13  C   UNL     1      -2.819   3.593  25.169  0.00  0.00    +0.290 C 
BRANCH  13  14
ATOM     14  O   UNL     1      -2.178   3.865  25.610  0.00  0.00    -0.466 OA
BRANCH  14  15
ATOM     15  C   UNL     1      -1.692   4.461  25.308  0.00  0.00    +0.139 A 
ATOM     16  C   UNL     1      -0.940   4.275  25.025  0.00  0.00    +0.037 A 
ATOM     17  C   UNL     1      -0.455   4.870  24.723  0.00  0.00    +0.003 A 
ATOM     18  C   UNL     1      -0.722   5.650  24.703  0.00  0.00    +0.000 A 
ATOM     19  C   UNL     1      -1.475   5.835  24.986  0.00  0.00    +0.003 A 
ATOM     20  C   UNL     1      -1.960   5.241  25.288  0.00  0.00    +0.037 A 
ENDBRANCH  14  15
ENDBRANCH  13  14
ENDBRANCH  11  13
BRANCH  21  22
ATOM     22  C   UNL     1      -3.794  -0.147  24.014  0.00  0.00    +0.134 C 
BRANCH  22  23
ATOM     23  C   UNL     1      -3.755  -0.941  24.236  0.00  0.00    +0.001 A 
ATOM     24  C   UNL     1      -4.168  -1.511  23.804  0.00  0.00    +0.001 A 
ATOM     25  C   UNL     1      -4.129  -2.304  24.026  0.00  0.00    +0.037 A 
ATOM     26  C   UNL     1      -3.678  -2.528  24.680  0.00  0.00    +0.139 A 
ATOM     29  C   UNL     1      -3.266  -1.959  25.112  0.00  0.00    +0.037 A 
ATOM     30  C   UNL     1      -3.305  -1.165  24.890  0.00  0.00    +0.001 A 
BRANCH  26  27
ATOM     27  O   UNL     1      -3.640  -3.322  24.901  0.00  0.00    -0.471 OA
ATOM     28  C   UNL     1      -3.256  -3.868  24.416  0.00  0.00    +0.252 C 
ENDBRANCH  26  27
ENDBRANCH  22  23
ENDBRANCH  21  22
TORSDOF 8
ENDMDL
MODEL 3
REMARK VINA RESULT:      -9.2      2.441      4.731
REMARK  Name = 
REMARK  8 active torsions:
REMARK  status: ('A' for Active; 'I' for Inactive)
REMARK    1  A    between atoms: O_2  and  C_3
REMARK    2  A    between atoms: C_3  and  C_5
REMARK    3  A    between atoms: C_11  and  C_13
REMARK    4  A    between atoms: C_13  and  O_14
REMARK    5  A    between atoms: O_14  and  C_15
REMARK    6  A    between atoms: N_21  and  C_22
REMARK    7  A    between atoms: C_22  and  C_23
REMARK    8  A    between atoms: C_26  and  O_27
REMARK                            x       y       z     vdW  Elec       q    Type
REMARK                         _______ _______ _______ _____ _____    ______ ____
ROOT
ATOM      5  C   UNL     1      -2.392  -0.189  24.627  0.00  0.00    +0.181 C 
ATOM      6  C   UNL     1      -1.819  -0.778  24.685  0.00  0.00    +0.078 C 
ATOM      7  C   UNL     1      -1.063  -0.652  24.380  0.00  0.00    +0.076 A 
ATOM      8  C   UNL     1      -0.880   0.066  24.017  0.00  0.00    +0.072 A 
ATOM      9  C   UNL     1      -1.454   0.657  23.959  0.00  0.00    +0.139 C 
ATOM     10  N   UNL     1      -2.209   0.529  24.264  0.00  0.00    -0.262 N 
ATOM     11  C   UNL     1      -2.782   1.120  24.206  0.00  0.00    +0.271 C 
ATOM     12  O   UNL     1      -2.599   1.838  23.842  0.00  0.00    -0.271 OA
ATOM     21  N   UNL     1      -0.095   0.034  23.769  0.00  0.00    -0.307 N 
ATOM     31  C   UNL     1       0.209  -0.703  23.979  0.00  0.00    +0.178 A 
ATOM     32  N   UNL     1      -0.390  -1.127  24.356  0.00  0.00    -0.229 NA
ENDROOT
BRANCH   5   3
ATOM      3  C   UNL     1      -3.147  -0.316  24.932  0.00  0.00    +0.336 C 
ATOM      4  O   UNL     1      -3.786  -0.418  24.421  0.00  0.00    -0.248 OA
BRANCH   3   2
ATOM      1  C   UNL     1      -3.623  -0.998  26.094  0.00  0.00    +0.256 C 
ATOM      2  O   UNL     1      -3.264  -0.341  25.748  0.00  0.00    -0.443 OA
ENDBRANCH   3   2
ENDBRANCH   5   3
BRANCH  11  13
ATOM     13  C   UNL     1      -3.538   0.992  24.511  0.00  0.00    +0.290 C 
BRANCH  13  14
ATOM     14  O   UNL     1      -4.183   1.401  24.198  0.00  0.00    -0.466 OA
BRANCH  14  15
ATOM     15  C   UNL     1      -4.694   1.812  24.700  0.00  0.00    +0.139 A 
ATOM     16  C   UNL     1      -5.465   1.543  24.814  0.00  0.00    +0.037 A 
ATOM     17  C   UNL     1      -5.975   1.954  25.316  0.00  0.00    +0.003 A 
ATOM     18  C   UNL     1      -5.714   2.634  25.704  0.00  0.00    +0.000 A 
ATOM     19  C   UNL     1      -4.942   2.902  25.589  0.00  0.00    +0.003 A 
ATOM     20  C   UNL     1      -4.432   2.491  25.088  0.00  0.00    +0.037 A 
ENDBRANCH  14  15
ENDBRANCH  13  14
ENDBRANCH  11  13
BRANCH  21  22
ATOM     22  C   UNL     1       0.316   0.635  23.379  0.00  0.00    +0.134 C 
BRANCH  22  23
ATOM     23  C   UNL     1       1.099   0.516  23.147  0.00  0.00    +0.001 A 
ATOM     24  C   UNL     1       1.712   0.890  23.555  0.00  0.00    +0.001 A 
ATOM     25  C   UNL     1       2.494   0.771  23.322  0.00  0.00    +0.037 A 
ATOM     26  C   UNL     1       2.664   0.278  22.682  0.00  0.00    +0.139 A 
ATOM     29  C   UNL     1       2.052  -0.095  22.275  0.00  0.00    +0.037 A 
ATOM     30  C   UNL     1       1.269   0.024  22.507  0.00  0.00    +0.001 A 
BRANCH  26  27
ATOM     27  O   UNL     1       3.447   0.160  22.450  0.00  0.00    -0.471 OA
ATOM     28  C   UNL     1       4.026   0.711  22.654  0.00  0.00    +0.252 C 
ENDBRANCH  26  27
ENDBRANCH  22  23
ENDBRANCH  21  22
TORSDOF 8
ENDMDL
MODEL 4
REMARK VINA RESULT:      -9.0      1.424      5.630
REMARK  Name = 
REMARK  8 active torsions:
REMARK  status: ('A' for Active; 'I' for Inactive)
REMARK    1  A    between atoms: O_2  and  C_3
REMARK    2  A    between atoms: C_3  and  C_5
REMARK    3  A    between atoms: C_11  and  C_13
REMARK    4  A    between atoms: C_13  and  O_14
REMARK    5  A    between atoms: O_14  and  C_15
REMARK    6  A    between atoms: N_21  and  C_22
REMARK    7  A    between atoms: C_22  and  C_23
REMARK    8  A    between atoms: C_26  and  O_27
REMARK                            x       y       z     vdW  Elec       q    Type
REMARK                         _______ _______ _______ _____ _____    ______ ____
ROOT
ATOM      5  C   UNL     1      -1.090  -0.031  25.122  0.00  0.00    +0.181 C 
ATOM      6  C   UNL     1      -0.381   0.369  25.253  0.00  0.00    +0.078 C 
ATOM      7  C   UNL     1      -0.296   1.152  25.005  0.00  0.00    +0.076 A 
ATOM      8  C   UNL     1      -0.921   1.534  24.627  0.00  0.00    +0.072 A 
ATOM      9  C   UNL     1      -1.632   1.134  24.496  0.00  0.00    +0.139 C 
ATOM     10  N   UNL     1      -1.716   0.352  24.744  0.00  0.00    -0.262 N 
ATOM     11  C   UNL     1      -2.426  -0.047  24.613  0.00  0.00    +0.271 C 
ATOM     12  O   UNL     1      -3.051   0.336  24.234  0.00  0.00    -0.271 OA
ATOM     21  N   UNL     1      -0.679   2.301  24.446  0.00  0.00    -0.307 N 
ATOM     31  C   UNL     1       0.096   2.393  24.712  0.00  0.00    +0.178 A 
ATOM     32  N   UNL     1       0.332   1.682  25.058  0.00  0.00    -0.229 NA
ENDROOT
BRANCH   5   3
ATOM      3  C   UNL     1      -1.175  -0.812  25.370  0.00  0.00    +0.336 C 
ATOM      4  O   UNL     1      -1.607  -0.985  26.051  0.00  0.00    -0.248 OA
BRANCH   3   2
ATOM      1  C   UNL     1      -0.353  -1.980  25.315  0.00  0.00    +0.256 C 
ATOM      2  O   UNL     1      -0.828  -1.423  24.936  0.00  0.00    -0.443 OA
ENDBRANCH   3   2
ENDBRANCH   5   3
BRANCH  11  13
ATOM     13  C   UNL     1      -2.510  -0.830  24.861  0.00  0.00    +0.290 C 
BRANCH  13  14
ATOM     14  O   UNL     1      -3.253  -1.116  25.076  0.00  0.00    -0.466 OA
BRANCH  14  15
ATOM     15  C   UNL     1      -3.569  -1.774  24.691  0.00  0.00    +0.139 A 
ATOM     16  C   UNL     1      -3.438  -2.530  24.992  0.00  0.00    +0.037 A 
ATOM     17  C   UNL     1      -3.754  -3.188  24.607  0.00  0.00    +0.003 A 
ATOM     18  C   UNL     1      -4.201  -3.089  23.921  0.00  0.00    +0.000 A 
ATOM     19  C   UNL     1      -4.332  -2.332  23.620  0.00  0.00    +0.003 A 
ATOM     20  C   UNL     1      -4.016  -1.675  24.004  0.00  0.00    +0.037 A 
ENDBRANCH  14  15
ENDBRANCH  13  14
ENDBRANCH  11  13
BRANCH  21  22
ATOM     22  C   UNL     1      -1.132   2.876  24.065  0.00  0.00    +0.134 C 
BRANCH  22  23
ATOM     23  C   UNL     1      -1.235   3.618  24.412  0.00  0.00    +0.001 A 
ATOM     24  C   UNL     1      -1.908   3.772  24.866  0.00  0.00    +0.001 A 
ATOM     25  C   UNL     1      -2.010   4.513  25.212  0.00  0.00    +0.037 A 
ATOM     26  C   UNL     1      -1.440   5.101  25.106  0.00  0.00    +0.139 A 
ATOM     29  C   UNL     1      -0.768   4.947  24.652  0.00  0.00    +0.037 A 
ATOM     30  C   UNL     1      -0.666   4.205  24.306  0.00  0.00    +0.001 A 
BRANCH  26  27
ATOM     27  O   UNL     1      -1.543   5.842  25.453  0.00  0.00    -0.471 OA
ATOM     28  C   UNL     1      -2.041   6.397  25.100  0.00  0.00    +0.252 C 
ENDBRANCH  26  27
ENDBRANCH  22  23
ENDBRANCH  21  22
TORSDOF 8
ENDMDL
MODEL 5
REMARK VINA RESULT:      -8.8      2.495      4.333
REMARK  Name = 
REMARK  8 active torsions:
REMARK  status: ('A' for Active; 'I' for Inactive)
REMARK    1  A    between atoms: O_2  and  C_3
REMARK    2  A    between atoms: C_3  and  C_5
REMARK    3  A    between atoms: C_11  and  C_13
REMARK    4  A    between atoms: C_13  and  O_14
REMARK    5  A    between atoms: O_14  and  C_15
REMARK    6  A    between atoms: N_21  and  C_22
REMARK    7  A    between atoms: C_22  and  C_23
REMARK    8  A    between atoms: C_26  and  O_27
REMARK                            x       y       z     vdW  Elec       q    Type
REMARK                         _______ _______ _______ _____ _____    ______ ____
ROOT
ATOM      5  C   UNL     1      -1.596  -0.303  24.834  0.00  0.00    +0.181 C 
ATOM      6  C   UNL     1      -2.218  -0.598  25.288  0.00  0.00    +0.078 C 
ATOM      7  C   UNL     1      -2.973  -0.271  25.216  0.00  0.00    +0.076 A 
ATOM      8  C   UNL     1      -3.104   0.350  24.689  0.00  0.00    +0.072 A 
ATOM      9  C   UNL     1      -2.481   0.645  24.234  0.00  0.00    +0.139 C 
ATOM     10  N   UNL     1      -1.727   0.318  24.307  0.00  0.00    -0.262 N 
ATOM     11  C   UNL     1      -1.105   0.613  23.853  0.00  0.00    +0.271 C 
ATOM     12  O   UNL     1      -1.237   1.234  23.326  0.00  0.00    -0.271 OA
ATOM     21  N   UNL     1      -3.900   0.560  24.736  0.00  0.00    -0.307 N 
ATOM     31  C   UNL     1      -4.261   0.069  25.291  0.00  0.00    +0.178 A 
ATOM     32  N   UNL     1      -3.688  -0.444  25.587  0.00  0.00    -0.229 NA
ENDROOT
BRANCH   5   3
ATOM      3  C   UNL     1      -0.843  -0.630  24.906  0.00  0.00    +0.336 C 
ATOM      4  O   UNL     1      -0.242  -0.203  25.277  0.00  0.00    -0.248 OA
BRANCH   3   2
ATOM      1  C   UNL     1      -0.337  -1.954  25.088  0.00  0.00    +0.256 C 
ATOM      2  O   UNL     1      -0.688  -1.384  24.608  0.00  0.00    -0.443 OA
ENDBRANCH   3   2
ENDBRANCH   5   3
BRANCH  11  13
ATOM     13  C   UNL     1      -0.351   0.285  23.926  0.00  0.00    +0.290 C 
BRANCH  13  14
ATOM     14  O   UNL     1       0.315   0.751  23.785  0.00  0.00    -0.466 OA
BRANCH  14  15
ATOM     15  C   UNL     1       0.924   0.466  23.305  0.00  0.00    +0.139 A 
ATOM     16  C   UNL     1       0.745   0.026  22.631  0.00  0.00    +0.037 A 
ATOM     17  C   UNL     1       1.353  -0.259  22.151  0.00  0.00    +0.003 A 
ATOM     18  C   UNL     1       2.140  -0.104  22.347  0.00  0.00    +0.000 A 
ATOM     19  C   UNL     1       2.318   0.336  23.022  0.00  0.00    +0.003 A 
ATOM     20  C   UNL     1       1.710   0.621  23.501  0.00  0.00    +0.037 A 
ENDBRANCH  14  15
ENDBRANCH  13  14
ENDBRANCH  11  13
BRANCH  21  22
ATOM     22  C   UNL     1      -4.271   1.157  24.303  0.00  0.00    +0.134 C 
BRANCH  22  23
ATOM     23  C   UNL     1      -4.681   1.757  24.694  0.00  0.00    +0.001 A 
ATOM     24  C   UNL     1      -5.471   1.646  24.908  0.00  0.00    +0.001 A 
ATOM     25  C   UNL     1      -5.880   2.245  25.299  0.00  0.00    +0.037 A 
ATOM     26  C   UNL     1      -5.501   2.956  25.476  0.00  0.00    +0.139 A 
ATOM     29  C   UNL     1      -4.712   3.068  25.262  0.00  0.00    +0.037 A 
ATOM     30  C   UNL     1      -4.302   2.468  24.871  0.00  0.00    +0.001 A 
BRANCH  26  27
ATOM     27  O   UNL     1      -5.912   3.556  25.867  0.00  0.00    -0.471 OA
ATOM     28  C   UNL     1      -5.863   4.334  25.597  0.00  0.00    +0.252 C 
ENDBRANCH  26  27
ENDBRANCH  22  23
ENDBRANCH  21  22
TORSDOF 8
ENDMDL
MODEL 6
REMARK VINA RESULT:      -8.2      2.011      6.118
REMARK  Name = 
REMARK  8 active torsions:
REMARK  status: ('A' for Active; 'I' for Inactive)
REMARK    1  A    between atoms: O_2  and  C_3
REMARK    2  A    between atoms: C_3  and  C_5
REMARK    3  A    between atoms: C_11  and  C_13
REMARK    4  A    between atoms: C_13  and  O_14
REMARK    5  A    between atoms: O_14  and  C_15
REMARK    6  A    between atoms: N_21  and  C_22
REMARK    7  A    between atoms: C_22  and  C_23
REMARK    8  A    between atoms: C_26  and  O_27
REMARK                            x       y       z     vdW  Elec       q    Type
REMARK                         _______ _______ _______ _____ _____    ______ ____
ROOT
ATOM      5  C   UNL     1      -4.344   1.729  24.951  0.00  0.00    +0.181 C 
ATOM      6  C   UNL     1      -4.633   2.489  25.089  0.00  0.00    +0.078 C 
ATOM      7  C   UNL     1      -4.131   3.076  25.379  0.00  0.00    +0.076 A 
ATOM      8  C   UNL     1      -3.339   2.903  25.530  0.00  0.00    +0.072 A 
ATOM      9  C   UNL     1      -3.049   2.143  25.392  0.00  0.00    +0.139 C 
ATOM     10  N   UNL     1      -3.551   1.556  25.102  0.00  0.00    -0.262 N 
ATOM     11  C   UNL     1      -3.261   0.797  24.965  0.00  0.00    +0.271 C 
ATOM     12  O   UNL     1      -2.469   0.623  25.116  0.00  0.00    -0.271 OA
ATOM     21  N   UNL     1      -2.977   3.588  25.812  0.00  0.00    -0.307 N 
ATOM     31  C   UNL     1      -3.546   4.186  25.834  0.00  0.00    +0.178 A 
ATOM     32  N   UNL     1      -4.258   3.869  25.566  0.00  0.00    -0.229 NA
ENDROOT
BRANCH   5   3
ATOM      3  C   UNL     1      -4.845   1.143  24.661  0.00  0.00    +0.336 C 
ATOM      4  O   UNL     1      -4.774   0.888  23.880  0.00  0.00    -0.248 OA
BRANCH   3   2
ATOM      1  C   UNL     1      -6.218   0.875  24.957  0.00  0.00    +0.256 C 
ATOM      2  O   UNL     1      -5.420   0.811  25.152  0.00  0.00    -0.443 OA
ENDBRANCH   3   2
ENDBRANCH   5   3
BRANCH  11  13
ATOM     13  C   UNL     1      -3.764   0.209  24.675  0.00  0.00    +0.290 C 
BRANCH  13  14
ATOM     14  O   UNL     1      -3.477  -0.353  24.143  0.00  0.00    -0.466 OA
BRANCH  14  15
ATOM     15  C   UNL     1      -3.601  -1.156  24.287  0.00  0.00    +0.139 A 
ATOM     16  C   UNL     1      -4.049  -1.605  23.759  0.00  0.00    +0.037 A 
ATOM     17  C   UNL     1      -4.172  -2.408  23.902  0.00  0.00    +0.003 A 
ATOM     18  C   UNL     1      -3.849  -2.762  24.574  0.00  0.00    +0.000 A 
ATOM     19  C   UNL     1      -3.401  -2.312  25.101  0.00  0.00    +0.003 A 
ATOM     20  C   UNL     1      -3.277  -1.510  24.958  0.00  0.00    +0.037 A 
ENDBRANCH  14  15
ENDBRANCH  13  14
ENDBRANCH  11  13
BRANCH  21  22
ATOM     22  C   UNL     1      -2.186   3.664  26.032  0.00  0.00    +0.134 C 
BRANCH  22  23
ATOM     23  C   UNL     1      -1.665   4.095  25.560  0.00  0.00    +0.001 A 
ATOM     24  C   UNL     1      -1.026   3.716  25.198  0.00  0.00    +0.001 A 
ATOM     25  C   UNL     1      -0.505   4.146  24.725  0.00  0.00    +0.037 A 
ATOM     26  C   UNL     1      -0.622   4.956  24.614  0.00  0.00    +0.139 A 
ATOM     29  C   UNL     1      -1.259   5.335  24.976  0.00  0.00    +0.037 A 
ATOM     30  C   UNL     1      -1.781   4.904  25.448  0.00  0.00    +0.001 A 
BRANCH  26  27
ATOM     27  O   UNL     1      -0.100   5.386  24.141  0.00  0.00    -0.471 OA
ATOM     28  C   UNL     1       0.131   5.090  23.407  0.00  0.00    +0.252 C 
ENDBRANCH  26  27
ENDBRANCH  22  23
ENDBRANCH  21  22
TORSDOF 8
ENDMDL
MODEL 7
REMARK VINA RESULT:      -8.0      2.548      4.677
REMARK  Name = 
REMARK  8 active torsions:
REMARK  status: ('A' for Active; 'I' for Inactive)
REMARK    1  A    between atoms: O_2  and  C_3
REMARK    2  A    between atoms: C_3  and  C_5
REMARK    3  A    between atoms: C_11  and  C_13
REMARK    4  A    between atoms: C_13  and  O_14
REMARK    5  A    between atoms: O_14  and  C_15
REMARK    6  A    between atoms: N_21  and  C_22
REMARK    7  A    between atoms: C_22  and  C_23
REMARK    8  A    between atoms: C_26  and  O_27
REMARK                            x       y       z     vdW  Elec       q    Type
REMARK                         _______ _______ _______ _____ _____    ______ ____
ROOT
ATOM      5  C   UNL     1      -1.967   2.660  24.686  0.00  0.00    +0.181 C 
ATOM      6  C   UNL     1      -1.204   2.968  24.727  0.00  0.00    +0.078 C 
ATOM      7  C   UNL     1      -0.556   2.493  24.539  0.00  0.00    +0.076 A 
ATOM      8  C   UNL     1      -0.672   1.710  24.309  0.00  0.00    +0.072 A 
ATOM      9  C   UNL     1      -1.437   1.401  24.267  0.00  0.00    +0.139 C 
ATOM     10  N   UNL     1      -2.084   1.877  24.455  0.00  0.00    -0.262 N 
ATOM     11  C   UNL     1      -2.848   1.568  24.413  0.00  0.00    +0.271 C 
ATOM     12  O   UNL     1      -2.964   0.784  24.183  0.00  0.00    -0.271 OA
ATOM     21  N   UNL     1       0.066   1.376  24.158  0.00  0.00    -0.307 N 
ATOM     31  C   UNL     1       0.639   1.952  24.294  0.00  0.00    +0.178 A 
ATOM     32  N   UNL     1       0.255   2.643  24.530  0.00  0.00    -0.229 NA
ENDROOT
BRANCH   5   3
ATOM      3  C   UNL     1      -2.615   3.135  24.874  0.00  0.00    +0.336 C 
ATOM      4  O   UNL     1      -3.078   3.458  24.272  0.00  0.00    -0.248 OA
BRANCH   3   2
ATOM      1  C   UNL     1      -2.880   4.065  25.925  0.00  0.00    +0.256 C 
ATOM      2  O   UNL     1      -2.800   3.288  25.663  0.00  0.00    -0.443 OA
ENDBRANCH   3   2
ENDBRANCH   5   3
BRANCH  11  13
ATOM     13  C   UNL     1      -3.496   2.044  24.601  0.00  0.00    +0.290 C 
BRANCH  13  14
ATOM     14  O   UNL     1      -4.230   1.894  24.258  0.00  0.00    -0.466 OA
BRANCH  14  15
ATOM     15  C   UNL     1      -4.905   1.846  24.731  0.00  0.00    +0.139 A 
ATOM     16  C   UNL     1      -5.468   2.448  24.709  0.00  0.00    +0.037 A 
ATOM     17  C   UNL     1      -6.142   2.400  25.182  0.00  0.00    +0.003 A 
ATOM     18  C   UNL     1      -6.253   1.749  25.678  0.00  0.00    +0.000 A 
ATOM     19  C   UNL     1      -5.689   1.147  25.699  0.00  0.00    +0.003 A 
ATOM     20  C   UNL     1      -5.016   1.195  25.226  0.00  0.00    +0.037 A 
ENDBRANCH  14  15
ENDBRANCH  13  14
ENDBRANCH  11  13
BRANCH  21  22
ATOM     22  C   UNL     1       0.207   0.600  23.913  0.00  0.00    +0.134 C 
BRANCH  22  23
ATOM     23  C   UNL     1       0.848   0.433  23.421  0.00  0.00    +0.001 A 
ATOM     24  C   UNL     1       0.727   0.047  22.701  0.00  0.00    +0.001 A 
ATOM     25  C   UNL     1       1.367  -0.120  22.210  0.00  0.00    +0.037 A 
ATOM     26  C   UNL     1       2.130   0.097  22.438  0.00  0.00    +0.139 A 
ATOM     29  C   UNL     1       2.252   0.482  23.158  0.00  0.00    +0.037 A 
ATOM     30  C   UNL     1       1.611   0.650  23.649  0.00  0.00    +0.001 A 
BRANCH  26  27
ATOM     27  O   UNL     1       2.771  -0.071  21.946  0.00  0.00    -0.471 OA
ATOM     28  C   UNL     1       3.510   0.259  22.104  0.00  0.00    +0.252 C 
ENDBRANCH  26  27
ENDBRANCH  22  23
ENDBRANCH  21  22
TORSDOF 8
ENDMDL
MODEL 8
REMARK VINA RESULT:      -6.9     17.960     19.277
REMARK  Name = 
REMARK  8 active torsions:
REMARK  status: ('A' for Active; 'I' for Inactive)
REMARK    1  A    between atoms: O_2  and  C_3
REMARK    2  A    between atoms: C_3  and  C_5
REMARK    3  A    between atoms: C_11  and  C_13
REMARK    4  A    between atoms: C_13  and  O_14
REMARK    5  A    between atoms: O_14  and  C_15
REMARK    6  A    between atoms: N_21  and  C_22
REMARK    7  A    between atoms: C_22  and  C_23
REMARK    8  A    between atoms: C_26  and  O_27
REMARK                            x       y       z     vdW  Elec       q    Type
REMARK                         _______ _______ _______ _____ _____    ______ ____
ROOT
ATOM      5  C   UNL     1      -7.352  -9.238  10.066  0.00  0.00    +0.181 C 
ATOM      6  C   UNL     1      -8.154  -9.196  10.252  0.00  0.00    +0.078 C 
ATOM      7  C   UNL     1      -8.649  -8.684   9.835  0.00  0.00    +0.076 A 
ATOM      8  C   UNL     1      -8.340  -8.213   9.232  0.00  0.00    +0.072 A 
ATOM      9  C   UNL     1      -7.537  -8.255   9.046  0.00  0.00    +0.139 C 
ATOM     10  N   UNL     1      -7.043  -8.768   9.463  0.00  0.00    -0.262 N 
ATOM     11  C   UNL     1      -6.241  -8.809   9.276  0.00  0.00    +0.271 C 
ATOM     12  O   UNL     1      -5.932  -8.338   8.673  0.00  0.00    -0.271 OA
ATOM     21  N   UNL     1      -8.956  -7.763   8.919  0.00  0.00    -0.307 N 
ATOM     31  C   UNL     1      -9.646  -7.955   9.328  0.00  0.00    +0.178 A 
ATOM     32  N   UNL     1      -9.455  -8.524   9.894  0.00  0.00    -0.229 NA
ENDROOT
BRANCH   5   3
ATOM      3  C   UNL     1      -6.859  -9.751  10.482  0.00  0.00    +0.336 C 
ATOM      4  O   UNL     1      -6.624 -10.465  10.142  0.00  0.00    -0.248 OA
BRANCH   3   2
ATOM      1  C   UNL     1      -6.703 -10.077  11.865  0.00  0.00    +0.256 C 
ATOM      2  O   UNL     1      -6.599  -9.550  11.239  0.00  0.00    -0.443 OA
ENDBRANCH   3   2
ENDBRANCH   5   3
BRANCH  11  13
ATOM     13  C   UNL     1      -5.747  -9.322   9.694  0.00  0.00    +0.290 C 
BRANCH  13  14
ATOM     14  O   UNL     1      -5.088  -9.652   9.323  0.00  0.00    -0.466 OA
BRANCH  14  15
ATOM     15  C   UNL     1      -4.355  -9.646   9.703  0.00  0.00    +0.139 A 
ATOM     16  C   UNL     1      -4.026 -10.353   9.973  0.00  0.00    +0.037 A 
ATOM     17  C   UNL     1      -3.293 -10.347  10.353  0.00  0.00    +0.003 A 
ATOM     18  C   UNL     1      -2.891  -9.635  10.464  0.00  0.00    +0.000 A 
ATOM     19  C   UNL     1      -3.222  -8.929  10.194  0.00  0.00    +0.003 A 
ATOM     20  C   UNL     1      -3.953  -8.934   9.814  0.00  0.00    +0.037 A 
ENDBRANCH  14  15
ENDBRANCH  13  14
ENDBRANCH  11  13
BRANCH  21  22
ATOM     22  C   UNL     1      -8.893  -7.216   8.304  0.00  0.00    +0.134 C 
BRANCH  22  23
ATOM     23  C   UNL     1      -9.311  -6.505   8.340  0.00  0.00    +0.001 A 
ATOM     24  C   UNL     1     -10.123  -6.495   8.190  0.00  0.00    +0.001 A 
ATOM     25  C   UNL     1     -10.540  -5.785   8.225  0.00  0.00    +0.037 A 
ATOM     26  C   UNL     1     -10.146  -5.084   8.412  0.00  0.00    +0.139 A 
ATOM     29  C   UNL     1      -9.335  -5.094   8.562  0.00  0.00    +0.037 A 
ATOM     30  C   UNL     1      -8.918  -5.804   8.526  0.00  0.00    +0.001 A 
BRANCH  26  27
ATOM     27  O   UNL     1     -10.564  -4.373   8.447  0.00  0.00    -0.471 OA
ATOM     28  C   UNL     1     -10.720  -4.022   9.177  0.00  0.00    +0.252 C 
ENDBRANCH  26  27
ENDBRANCH  22  23
ENDBRANCH  21  22
TORSDOF 8
ENDMDL
MODEL 9
REMARK VINA RESULT:      -5.9     16.929     18.426
REMARK  Name = 
REMARK  8 active torsions:
REMARK  status: ('A' for Active; 'I' for Inactive)
REMARK    1  A    between atoms: O_2  and  C_3
REMARK    2  A    between atoms: C_3  and  C_5
REMARK    3  A    between atoms: C_11  and  C_13
REMARK    4  A    between atoms: C_13  and  O_14
REMARK    5  A    between atoms: O_14  and  C_15
REMARK    6  A    between atoms: N_21  and  C_22
REMARK    7  A    between atoms: C_22  and  C_23
REMARK    8  A    between atoms: C_26  and  O_27
REMARK                            x       y       z     vdW  Elec       q    Type
REMARK                         _______ _______ _______ _____ _____    ______ ____
ROOT
ATOM      5  C   UNL     1      -6.213  -9.643  11.650  0.00  0.00    +0.181 C 
ATOM      6  C   UNL     1      -5.795  -9.846  12.332  0.00  0.00    +0.078 C 
ATOM      7  C   UNL     1      -4.998 -10.055  12.281  0.00  0.00    +0.076 A 
ATOM      8  C   UNL     1      -4.619 -10.060  11.548  0.00  0.00    +0.072 A 
ATOM      9  C   UNL     1      -5.037  -9.856  10.866  0.00  0.00    +0.139 C 
ATOM     10  N   UNL     1      -5.834  -9.648  10.918  0.00  0.00    -0.262 N 
ATOM     11  C   UNL     1      -6.251  -9.445  10.236  0.00  0.00    +0.271 C 
ATOM     12  O   UNL     1      -5.872  -9.450   9.503  0.00  0.00    -0.271 OA
ATOM     21  N   UNL     1      -3.836 -10.287  11.668  0.00  0.00    -0.307 N 
ATOM     31  C   UNL     1      -3.730 -10.423  12.474  0.00  0.00    +0.178 A 
ATOM     32  N   UNL     1      -4.449 -10.279  12.853  0.00  0.00    -0.229 NA
ENDROOT
BRANCH   5   3
ATOM      3  C   UNL     1      -7.009  -9.435  11.701  0.00  0.00    +0.336 C 
ATOM      4  O   UNL     1      -7.231  -8.642  11.654  0.00  0.00    -0.248 OA
BRANCH   3   2
ATOM      1  C   UNL     1      -8.147  -9.947  12.397  0.00  0.00    +0.256 C 
ATOM      2  O   UNL     1      -7.583 -10.019  11.800  0.00  0.00    -0.443 OA
ENDBRANCH   3   2
ENDBRANCH   5   3
BRANCH  11  13
ATOM     13  C   UNL     1      -7.048  -9.236  10.287  0.00  0.00    +0.290 C 
BRANCH  13  14
ATOM     14  O   UNL     1      -7.365  -8.687   9.759  0.00  0.00    -0.466 OA
BRANCH  14  15
ATOM     15  C   UNL     1      -8.074  -8.851   9.370  0.00  0.00    +0.139 A 
ATOM     16  C   UNL     1      -8.137  -9.523   8.895  0.00  0.00    +0.037 A 
ATOM     17  C   UNL     1      -8.846  -9.687   8.505  0.00  0.00    +0.003 A 
ATOM     18  C   UNL     1      -9.491  -9.180   8.591  0.00  0.00    +0.000 A 
ATOM     19  C   UNL     1      -9.427  -8.508   9.066  0.00  0.00    +0.003 A 
ATOM     20  C   UNL     1      -8.719  -8.344   9.455  0.00  0.00    +0.037 A 
ENDBRANCH  14  15
ENDBRANCH  13  14
ENDBRANCH  11  13
BRANCH  21  22
ATOM     22  C   UNL     1      -3.259 -10.365  11.083  0.00  0.00    +0.134 C 
BRANCH  22  23
ATOM     23  C   UNL     1      -2.529  -9.990  11.170  0.00  0.00    +0.001 A 
ATOM     24  C   UNL     1      -1.964 -10.300  11.687  0.00  0.00    +0.001 A 
ATOM     25  C   UNL     1      -1.235  -9.925  11.774  0.00  0.00    +0.037 A 
ATOM     26  C   UNL     1      -1.070  -9.240  11.345  0.00  0.00    +0.139 A 
ATOM     29  C   UNL     1      -1.634  -8.930  10.829  0.00  0.00    +0.037 A 
ATOM     30  C   UNL     1      -2.363  -9.305  10.742  0.00  0.00    +0.001 A 
BRANCH  26  27
ATOM     27  O   UNL     1      -0.340  -8.865  11.433  0.00  0.00    -0.471 OA
ATOM     28  C   UNL     1       0.208  -8.879  10.817  0.00  0.00    +0.252 C 
ENDBRANCH  26  27
ENDBRANCH  22  23
ENDBRANCH  21  22
TORSDOF 8
ENDMDL
