MODEL 1
REMARK VINA RESULT:     -10.7      0.000      0.000
REMARK  Name = 
REMARK  4 active torsions:
REMARK  status: ('A' for Active; 'I' for Inactive)
REMARK    1  A    between atoms: C_4  and  C_15
REMARK    2  A    between atoms: C_5  and  N_6
REMARK    3  A    between atoms: N_6  and  C_7
REMARK    4  A    between atoms: C_7  and  C_8
REMARK                            x       y       z     vdW  Elec       q    Type
REMARK                         _______ _______ _______ _____ _____    ______ ____
ROOT
ATOM      1  O   UNL     1      -5.498   2.945  25.446  0.00  0.00    -0.220 OA
ATOM      2  C   UNL     1      -4.949   2.459  25.065  0.00  0.00    +0.184 C 
ATOM      3  C   UNL     1      -4.283   2.712  24.652  0.00  0.00    +0.041 C 
ATOM      4  C   UNL     1      -3.893   2.044  24.363  0.00  0.00    +0.044 C 
ATOM      5  C   UNL     1      -4.320   1.378  24.599  0.00  0.00    +0.110 C 
ATOM     13  C   UNL     1      -4.974   1.635  25.033  0.00  0.00    +0.198 C 
ATOM     14  O   UNL     1      -5.549   1.151  25.374  0.00  0.00    -0.219 OA
ENDROOT
BRANCH   4  15
ATOM     15  C   UNL     1      -3.199   2.042  23.917  0.00  0.00    -0.021 A 
ATOM     16  C   UNL     1      -2.467   2.074  24.296  0.00  0.00    -0.004 A 
ATOM     17  C   UNL     1      -1.772   2.072  23.850  0.00  0.00    -0.000 A 
ATOM     18  C   UNL     1      -1.810   2.038  23.027  0.00  0.00    -0.000 A 
ATOM     19  C   UNL     1      -2.543   2.006  22.648  0.00  0.00    -0.000 A 
ATOM     20  C   UNL     1      -3.238   2.008  23.094  0.00  0.00    -0.004 A 
ENDBRANCH   4  15
BRANCH   5   6
ATOM      6  N   UNL     1      -4.128   0.594  24.429  0.00  0.00    -0.216 NA
BRANCH   6   7
ATOM      7  C   UNL     1      -4.319  -0.002  24.966  0.00  0.00    +0.089 C 
BRANCH   7   8
ATOM      8  C   UNL     1      -4.054  -0.773  24.838  0.00  0.00    +0.017 C 
ATOM      9  C   UNL     1      -4.227  -1.243  24.183  0.00  0.00    +0.001 C 
ATOM     10  C   UNL     1      -3.848  -1.969  24.283  0.00  0.00    +0.000 C 
ATOM     11  C   UNL     1      -3.442  -1.948  25.000  0.00  0.00    +0.000 C 
ATOM     12  C   UNL     1      -3.568  -1.209  25.343  0.00  0.00    +0.001 C 
ENDBRANCH   7   8
ENDBRANCH   6   7
ENDBRANCH   5   6
TORSDOF 4
ENDMDL
MODEL 2
REMARK VINA RESULT:     -10.4      1.032      3.236
REMARK  Name = 
REMARK  4 active torsions:
REMARK  status: ('A' for Active; 'I' for Inactive)
REMARK    1  A    between atoms: C_4  and  C_15
REMARK    2  A    between atoms: C_5  and  N_6
REMARK    3  A    between atoms: N_6  and  C_7
REMARK    4  A    between atoms: C_7  and  C_8
REMARK                            x       y       z     vdW  Elec       q    Type
REMARK                         _______ _______ _______ _____ _____    ______ ____
ROOT
ATOM      1  O   UNL     1      -5.479   1.882  25.148  0.00  0.00    -0.220 OA
ATOM      2  C   UNL     1      -4.861   1.351  25.010  0.00  0.00    +0.184 C 
ATOM      3  C   UNL     1      -4.910   0.530  25.047  0.00  0.00    +0.041 C 
ATOM      4  C   UNL     1      -4.165   0.221  24.870  0.00  0.00    +0.044 C 
ATOM      5  C   UNL     1      -3.656   0.854  24.724  0.00  0.00    +0.110 C 
ATOM     13  C   UNL     1      -4.086   1.553  24.810  0.00  0.00    +0.198 C 
ATOM     14  O   UNL     1      -3.791   2.317  24.714  0.00  0.00    -0.219 OA
ENDROOT
BRANCH   4  15
ATOM     15  C   UNL     1      -3.965  -0.579  24.844  0.00  0.00    -0.021 A 
ATOM     16  C   UNL     1      -4.045  -1.001  24.140  0.00  0.00    -0.004 A 
ATOM     17  C   UNL     1      -3.844  -1.801  24.114  0.00  0.00    -0.000 A 
ATOM     18  C   UNL     1      -3.565  -2.178  24.791  0.00  0.00    -0.000 A 
ATOM     19  C   UNL     1      -3.485  -1.756  25.496  0.00  0.00    -0.000 A 
ATOM     20  C   UNL     1      -3.685  -0.956  25.522  0.00  0.00    -0.004 A 
ENDBRANCH   4  15
BRANCH   5   6
ATOM      6  N   UNL     1      -2.856   0.796  24.526  0.00  0.00    -0.216 NA
BRANCH   6   7
ATOM      7  C   UNL     1      -2.344   1.418  24.702  0.00  0.00    +0.089 C 
BRANCH   7   8
ATOM      8  C   UNL     1      -1.532   1.327  24.587  0.00  0.00    +0.017 C 
ATOM      9  C   UNL     1      -1.151   1.248  23.860  0.00  0.00    +0.001 C 
ATOM     10  C   UNL     1      -0.341   1.171  24.003  0.00  0.00    +0.000 C 
ATOM     11  C   UNL     1      -0.223   1.203  24.819  0.00  0.00    +0.000 C 
ATOM     12  C   UNL     1      -0.958   1.300  25.179  0.00  0.00    +0.001 C 
ENDBRANCH   7   8
ENDBRANCH   6   7
ENDBRANCH   5   6
TORSDOF 4
ENDMDL
MODEL 3
REMARK VINA RESULT:     -10.1      1.460      2.530
REMARK  Name = 
REMARK  4 active torsions:
REMARK  status: ('A' for Active; 'I' for Inactive)
REMARK    1  A    between atoms: C_4  and  C_15
REMARK    2  A    between atoms: C_5  and  N_6
REMARK    3  A    between atoms: N_6  and  C_7
REMARK    4  A    between atoms: C_7  and  C_8
REMARK                            x       y       z     vdW  Elec       q    Type
REMARK                         _______ _______ _______ _____ _____    ______ ____
ROOT
ATOM      1  O   UNL     1      -2.646   2.603  22.572  0.00  0.00    -0.220 OA
ATOM      2  C   UNL     1      -3.075   2.258  23.187  0.00  0.00    +0.184 C 
ATOM      3  C   UNL     1      -3.717   2.595  23.578  0.00  0.00    +0.041 C 
ATOM      4  C   UNL     1      -3.976   2.060  24.151  0.00  0.00    +0.044 C 
ATOM      5  C   UNL     1      -3.493   1.393  24.113  0.00  0.00    +0.110 C 
ATOM     13  C   UNL     1      -2.936   1.515  23.517  0.00  0.00    +0.198 C 
ATOM     14  O   UNL     1      -2.344   0.986  23.292  0.00  0.00    -0.219 OA
ENDROOT
BRANCH   4  15
ATOM     15  C   UNL     1      -4.607   2.174  24.671  0.00  0.00    -0.021 A 
ATOM     16  C   UNL     1      -4.494   2.598  25.369  0.00  0.00    -0.004 A 
ATOM     17  C   UNL     1      -5.125   2.711  25.889  0.00  0.00    -0.000 A 
ATOM     18  C   UNL     1      -5.867   2.400  25.711  0.00  0.00    -0.000 A 
ATOM     19  C   UNL     1      -5.980   1.975  25.012  0.00  0.00    -0.000 A 
ATOM     20  C   UNL     1      -5.349   1.862  24.492  0.00  0.00    -0.004 A 
ENDBRANCH   4  15
BRANCH   5   6
ATOM      6  N   UNL     1      -3.556   0.721  24.589  0.00  0.00    -0.216 NA
BRANCH   6   7
ATOM      7  C   UNL     1      -3.199   0.016  24.354  0.00  0.00    +0.089 C 
BRANCH   7   8
ATOM      8  C   UNL     1      -3.331  -0.676  24.785  0.00  0.00    +0.017 C 
ATOM      9  C   UNL     1      -3.083  -0.820  25.558  0.00  0.00    +0.001 C 
ATOM     10  C   UNL     1      -3.332  -1.578  25.768  0.00  0.00    +0.000 C 
ATOM     11  C   UNL     1      -3.735  -1.902  25.125  0.00  0.00    +0.000 C 
ATOM     12  C   UNL     1      -3.734  -1.345  24.517  0.00  0.00    +0.001 C 
ENDBRANCH   7   8
ENDBRANCH   6   7
ENDBRANCH   5   6
TORSDOF 4
ENDMDL
