MODEL 1
REMARK VINA RESULT:     -11.2      0.000      0.000
REMARK  Name = 
REMARK  6 active torsions:
REMARK  status: ('A' for Active; 'I' for Inactive)
REMARK    1  A    between atoms: C_2  and  N_4
REMARK    2  A    between atoms: C_5  and  C_7
REMARK    3  A    between atoms: C_7  and  C_8
REMARK    4  A    between atoms: C_10  and  C_11
REMARK    5  A    between atoms: C_11  and  N_12
REMARK    6  A    between atoms: N_15  and  C_16
REMARK                            x       y       z     vdW  Elec       q    Type
REMARK                         _______ _______ _______ _____ _____    ______ ____
ROOT
ATOM      8  C   UNL     1      -4.223   3.327  25.551  0.00  0.00    +0.157 C 
ATOM      9  O   UNL     1      -4.047   2.536  25.398  0.00  0.00    -0.351 OA
ATOM     10  C   UNL     1      -4.753   2.146  25.229  0.00  0.00    +0.170 C 
ATOM     22  C   UNL     1      -5.367   2.695  25.278  0.00  0.00    +0.213 C 
ATOM     23  O   UNL     1      -6.167   2.541  25.150  0.00  0.00    -0.218 OA
ATOM     24  C   UNL     1      -5.038   3.426  25.477  0.00  0.00    +0.212 C 
ATOM     25  O   UNL     1      -5.454   4.130  25.583  0.00  0.00    -0.218 OA
ENDROOT
BRANCH   8   7
ATOM      7  C   UNL     1      -3.679   3.917  25.745  0.00  0.00    +0.119 C 
BRANCH   7   5
ATOM      4  N   UNL     1      -2.254   4.010  25.810  0.00  0.00    -0.207 NA
ATOM      5  C   UNL     1      -2.947   3.944  25.366  0.00  0.00    +0.244 C 
ATOM      6  O   UNL     1      -2.907   3.905  24.543  0.00  0.00    -0.273 OA
BRANCH   4   2
ATOM      1  C   UNL     1      -1.047   3.362  25.403  0.00  0.00    +0.023 C 
ATOM      2  C   UNL     1      -1.523   4.036  25.431  0.00  0.00    +0.095 C 
ATOM      3  C   UNL     1      -1.266   4.737  25.078  0.00  0.00    +0.023 C 
ENDBRANCH   4   2
ENDBRANCH   7   5
ENDBRANCH   8   7
BRANCH  10  11
ATOM     11  C   UNL     1      -4.833   1.345  25.044  0.00  0.00    +0.149 C 
BRANCH  11  12
ATOM     12  N   UNL     1      -4.169   0.903  24.833  0.00  0.00    -0.185 NA
ATOM     13  C   UNL     1      -4.222   0.082  24.778  0.00  0.00    +0.339 C 
ATOM     14  O   UNL     1      -4.938  -0.297  24.933  0.00  0.00    -0.249 OA
ATOM     15  N   UNL     1      -3.558  -0.361  24.566  0.00  0.00    -0.189 NA
BRANCH  15  16
ATOM     16  C   UNL     1      -3.611  -1.182  24.511  0.00  0.00    +0.097 C 
ATOM     17  C   UNL     1      -3.297  -1.657  25.109  0.00  0.00    +0.022 C 
ATOM     18  C   UNL     1      -3.351  -2.478  25.054  0.00  0.00    +0.002 C 
ATOM     19  C   UNL     1      -3.717  -2.825  24.402  0.00  0.00    +0.000 C 
ATOM     20  C   UNL     1      -4.030  -2.351  23.804  0.00  0.00    +0.002 C 
ATOM     21  C   UNL     1      -3.977  -1.529  23.859  0.00  0.00    +0.022 C 
ENDBRANCH  15  16
ENDBRANCH  11  12
ENDBRANCH  10  11
TORSDOF 6
ENDMDL
MODEL 2
REMARK VINA RESULT:     -10.2      1.368      2.707
REMARK  Name = 
REMARK  6 active torsions:
REMARK  status: ('A' for Active; 'I' for Inactive)
REMARK    1  A    between atoms: C_2  and  N_4
REMARK    2  A    between atoms: C_5  and  C_7
REMARK    3  A    between atoms: C_7  and  C_8
REMARK    4  A    between atoms: C_10  and  C_11
REMARK    5  A    between atoms: C_11  and  N_12
REMARK    6  A    between atoms: N_15  and  C_16
REMARK                            x       y       z     vdW  Elec       q    Type
REMARK                         _______ _______ _______ _____ _____    ______ ____
ROOT
ATOM      8  C   UNL     1      -2.407   3.045  25.238  0.00  0.00    +0.157 C 
ATOM      9  O   UNL     1      -2.665   2.269  25.128  0.00  0.00    -0.351 OA
ATOM     10  C   UNL     1      -2.000   1.787  25.049  0.00  0.00    +0.170 C 
ATOM     22  C   UNL     1      -1.330   2.266  25.109  0.00  0.00    +0.213 C 
ATOM     23  O   UNL     1      -0.547   2.011  25.062  0.00  0.00    -0.218 OA
ATOM     24  C   UNL     1      -1.582   3.043  25.226  0.00  0.00    +0.212 C 
ATOM     25  O   UNL     1      -1.094   3.702  25.316  0.00  0.00    -0.218 OA
ENDROOT
BRANCH   8   7
ATOM      7  C   UNL     1      -2.889   3.707  25.341  0.00  0.00    +0.119 C 
BRANCH   7   5
ATOM      4  N   UNL     1      -4.251   3.649  25.770  0.00  0.00    -0.207 NA
ATOM      5  C   UNL     1      -3.692   3.664  25.162  0.00  0.00    +0.244 C 
ATOM      6  O   UNL     1      -3.939   3.635  24.375  0.00  0.00    -0.273 OA
BRANCH   4   2
ATOM      1  C   UNL     1      -5.462   4.285  25.356  0.00  0.00    +0.023 C 
ATOM      2  C   UNL     1      -5.054   3.607  25.590  0.00  0.00    +0.095 C 
ATOM      3  C   UNL     1      -5.451   2.885  25.646  0.00  0.00    +0.023 C 
ENDBRANCH   4   2
ENDBRANCH   7   5
ENDBRANCH   8   7
BRANCH  10  11
ATOM     11  C   UNL     1      -2.004   0.970  24.930  0.00  0.00    +0.149 C 
BRANCH  11  12
ATOM     12  N   UNL     1      -2.636   0.517  25.204  0.00  0.00    -0.185 NA
ATOM     13  C   UNL     1      -2.793  -0.218  24.865  0.00  0.00    +0.339 C 
ATOM     14  O   UNL     1      -2.318  -0.499  24.252  0.00  0.00    -0.249 OA
ATOM     15  N   UNL     1      -3.425  -0.672  25.139  0.00  0.00    -0.189 NA
BRANCH  15  16
ATOM     16  C   UNL     1      -3.582  -1.407  24.800  0.00  0.00    +0.097 C 
ATOM     17  C   UNL     1      -4.077  -1.460  24.141  0.00  0.00    +0.022 C 
ATOM     18  C   UNL     1      -4.233  -2.195  23.801  0.00  0.00    +0.002 C 
ATOM     19  C   UNL     1      -3.897  -2.877  24.119  0.00  0.00    +0.000 C 
ATOM     20  C   UNL     1      -3.403  -2.825  24.778  0.00  0.00    +0.002 C 
ATOM     21  C   UNL     1      -3.246  -2.089  25.118  0.00  0.00    +0.022 C 
ENDBRANCH  15  16
ENDBRANCH  11  12
ENDBRANCH  10  11
TORSDOF 6
ENDMDL
MODEL 3
REMARK VINA RESULT:      -9.8      2.120      3.393
REMARK  Name = 
REMARK  6 active torsions:
REMARK  status: ('A' for Active; 'I' for Inactive)
REMARK    1  A    between atoms: C_2  and  N_4
REMARK    2  A    between atoms: C_5  and  C_7
REMARK    3  A    between atoms: C_7  and  C_8
REMARK    4  A    between atoms: C_10  and  C_11
REMARK    5  A    between atoms: C_11  and  N_12
REMARK    6  A    between atoms: N_15  and  C_16
REMARK                            x       y       z     vdW  Elec       q    Type
REMARK                         _______ _______ _______ _____ _____    ______ ____
ROOT
ATOM      8  C   UNL     1      -0.304   2.172  24.972  0.00  0.00    +0.157 C 
ATOM      9  O   UNL     1      -0.852   1.557  25.027  0.00  0.00    -0.351 OA
ATOM     10  C   UNL     1      -0.567   0.921  24.585  0.00  0.00    +0.170 C 
ATOM     22  C   UNL     1       0.157   1.143  24.256  0.00  0.00    +0.213 C 
ATOM     23  O   UNL     1       0.634   0.673  23.774  0.00  0.00    -0.218 OA
ATOM     24  C   UNL     1       0.319   1.916  24.496  0.00  0.00    +0.212 C 
ATOM     25  O   UNL     1       0.988   2.354  24.293  0.00  0.00    -0.218 OA
ENDROOT
BRANCH   8   7
ATOM      7  C   UNL     1      -0.368   2.913  25.329  0.00  0.00    +0.119 C 
BRANCH   7   5
ATOM      4  N   UNL     1      -1.427   3.744  25.807  0.00  0.00    -0.207 NA
ATOM      5  C   UNL     1      -1.026   3.387  25.181  0.00  0.00    +0.244 C 
ATOM      6  O   UNL     1      -1.283   3.505  24.406  0.00  0.00    -0.273 OA
BRANCH   4   2
ATOM      1  C   UNL     1      -1.987   4.965  25.320  0.00  0.00    +0.023 C 
ATOM      2  C   UNL     1      -2.085   4.219  25.659  0.00  0.00    +0.095 C 
ATOM      3  C   UNL     1      -2.841   3.947  25.848  0.00  0.00    +0.023 C 
ENDBRANCH   4   2
ENDBRANCH   7   5
ENDBRANCH   8   7
BRANCH  10  11
ATOM     11  C   UNL     1      -0.941   0.191  24.489  0.00  0.00    +0.149 C 
BRANCH  11  12
ATOM     12  N   UNL     1      -1.720   0.092  24.740  0.00  0.00    -0.185 NA
ATOM     13  C   UNL     1      -2.130  -0.598  24.545  0.00  0.00    +0.339 C 
ATOM     14  O   UNL     1      -1.761  -1.185  24.101  0.00  0.00    -0.249 OA
ATOM     15  N   UNL     1      -2.910  -0.698  24.796  0.00  0.00    -0.189 NA
BRANCH  15  16
ATOM     16  C   UNL     1      -3.319  -1.387  24.602  0.00  0.00    +0.097 C 
ATOM     17  C   UNL     1      -3.880  -1.376  23.996  0.00  0.00    +0.022 C 
ATOM     18  C   UNL     1      -4.290  -2.065  23.801  0.00  0.00    +0.002 C 
ATOM     19  C   UNL     1      -4.139  -2.764  24.211  0.00  0.00    +0.000 C 
ATOM     20  C   UNL     1      -3.579  -2.776  24.816  0.00  0.00    +0.002 C 
ATOM     21  C   UNL     1      -3.169  -2.086  25.011  0.00  0.00    +0.022 C 
ENDBRANCH  15  16
ENDBRANCH  11  12
ENDBRANCH  10  11
TORSDOF 6
ENDMDL
MODEL 4
REMARK VINA RESULT:      -9.7      2.496      6.082
REMARK  Name = 
REMARK  6 active torsions:
REMARK  status: ('A' for Active; 'I' for Inactive)
REMARK    1  A    between atoms: C_2  and  N_4
REMARK    2  A    between atoms: C_5  and  C_7
REMARK    3  A    between atoms: C_7  and  C_8
REMARK    4  A    between atoms: C_10  and  C_11
REMARK    5  A    between atoms: C_11  and  N_12
REMARK    6  A    between atoms: N_15  and  C_16
REMARK                            x       y       z     vdW  Elec       q    Type
REMARK                         _______ _______ _______ _____ _____    ______ ____
ROOT
ATOM      8  C   UNL     1      -0.868  -0.772  24.553  0.00  0.00    +0.157 C 
ATOM      9  O   UNL     1      -1.183  -0.012  24.611  0.00  0.00    -0.351 OA
ATOM     10  C   UNL     1      -0.697   0.499  24.184  0.00  0.00    +0.170 C 
ATOM     22  C   UNL     1      -0.081   0.055  23.860  0.00  0.00    +0.213 C 
ATOM     23  O   UNL     1       0.532   0.346  23.391  0.00  0.00    -0.218 OA
ATOM     24  C   UNL     1      -0.187  -0.732  24.089  0.00  0.00    +0.212 C 
ATOM     25  O   UNL     1       0.303  -1.364  23.888  0.00  0.00    -0.218 OA
ENDROOT
BRANCH   8   7
ATOM      7  C   UNL     1      -1.179  -1.455  24.898  0.00  0.00    +0.119 C 
BRANCH   7   5
ATOM      4  N   UNL     1      -2.408  -2.083  24.529  0.00  0.00    -0.207 NA
ATOM      5  C   UNL     1      -1.994  -1.536  24.989  0.00  0.00    +0.244 C 
ATOM      6  O   UNL     1      -2.396  -1.072  25.539  0.00  0.00    -0.273 OA
BRANCH   4   2
ATOM      1  C   UNL     1      -3.527  -2.588  25.260  0.00  0.00    +0.023 C 
ATOM      2  C   UNL     1      -3.224  -2.164  24.621  0.00  0.00    +0.095 C 
ATOM      3  C   UNL     1      -3.737  -1.821  24.072  0.00  0.00    +0.023 C 
ENDBRANCH   4   2
ENDBRANCH   7   5
ENDBRANCH   8   7
BRANCH  10  11
ATOM     11  C   UNL     1      -0.808   1.312  24.094  0.00  0.00    +0.149 C 
BRANCH  11  12
ATOM     12  N   UNL     1      -0.768   1.808  24.752  0.00  0.00    -0.185 NA
ATOM     13  C   UNL     1      -1.037   2.586  24.698  0.00  0.00    +0.339 C 
ATOM     14  O   UNL     1      -1.345   2.867  23.988  0.00  0.00    -0.249 OA
ATOM     15  N   UNL     1      -0.998   3.082  25.357  0.00  0.00    -0.189 NA
BRANCH  15  16
ATOM     16  C   UNL     1      -1.267   3.860  25.303  0.00  0.00    +0.097 C 
ATOM     17  C   UNL     1      -0.765   4.451  25.019  0.00  0.00    +0.022 C 
ATOM     18  C   UNL     1      -1.034   5.229  24.964  0.00  0.00    +0.002 C 
ATOM     19  C   UNL     1      -1.803   5.416  25.193  0.00  0.00    +0.000 C 
ATOM     20  C   UNL     1      -2.305   4.826  25.477  0.00  0.00    +0.002 C 
ATOM     21  C   UNL     1      -2.036   4.048  25.532  0.00  0.00    +0.022 C 
ENDBRANCH  15  16
ENDBRANCH  11  12
ENDBRANCH  10  11
TORSDOF 6
ENDMDL
