MODEL 1
REMARK VINA RESULT:      -9.1      0.000      0.000
REMARK  Name = 
REMARK  6 active torsions:
REMARK  status: ('A' for Active; 'I' for Inactive)
REMARK    1  A    between atoms: N_6  and  C_7
REMARK    2  A    between atoms: C_7  and  C_8
REMARK    3  A    between atoms: C_11  and  C_14
REMARK    4  A    between atoms: C_23  and  C_24
REMARK    5  A    between atoms: C_24  and  C_25
REMARK    6  A    between atoms: C_25  and  C_26
REMARK                            x       y       z     vdW  Elec       q    Type
REMARK                         _______ _______ _______ _____ _____    ______ ____
ROOT
ATOM      1  C   UNL     1      -0.772  -0.301  24.631  0.00  0.00    +0.090 C 
ATOM      2  N   UNL     1      -0.993   0.379  24.219  0.00  0.00    -0.271 NA
ATOM      3  C   UNL     1      -1.720   0.706  24.432  0.00  0.00    +0.083 C 
ATOM      4  C   UNL     1      -2.208   0.387  25.016  0.00  0.00    +0.035 C 
ATOM      5  C   UNL     1      -2.881   0.861  25.073  0.00  0.00    +0.074 C 
ATOM      6  N   UNL     1      -2.809   1.473  24.523  0.00  0.00    -0.262 NA
ATOM     18  C   UNL     1      -2.091   1.377  24.128  0.00  0.00    +0.151 C 
ATOM     19  C   UNL     1      -1.827   1.886  23.535  0.00  0.00    +0.257 C 
ATOM     20  O   UNL     1      -2.330   2.515  23.353  0.00  0.00    -0.272 OA
ATOM     21  N   UNL     1      -1.127   1.851  23.101  0.00  0.00    -0.203 NA
ATOM     22  C   UNL     1      -0.517   1.297  23.152  0.00  0.00    +0.131 C 
ATOM     23  C   UNL     1      -0.458   0.642  23.650  0.00  0.00    +0.080 C 
ENDROOT
BRANCH   6   7
ATOM      7  C   UNL     1      -3.358   2.075  24.393  0.00  0.00    +0.100 C 
BRANCH   7   8
ATOM      8  C   UNL     1      -4.099   2.042  24.753  0.00  0.00    -0.006 A 
ATOM      9  C   UNL     1      -4.642   1.464  24.529  0.00  0.00    -0.003 A 
ATOM     10  C   UNL     1      -5.383   1.432  24.889  0.00  0.00    +0.004 A 
ATOM     11  C   UNL     1      -5.582   1.977  25.475  0.00  0.00    +0.071 A 
ATOM     12  C   UNL     1      -5.038   2.556  25.699  0.00  0.00    +0.004 A 
ATOM     13  C   UNL     1      -4.297   2.589  25.339  0.00  0.00    -0.003 A 
BRANCH  11  14
ATOM     14  C   UNL     1      -6.322   1.945  25.836  0.00  0.00    +0.419 C 
ATOM     15  F   UNL     1      -7.062   1.913  26.198  0.00  0.00    -0.166 F 
ATOM     16  F   UNL     1      -5.963   2.007  26.576  0.00  0.00    -0.166 F 
ATOM     17  F   UNL     1      -6.681   1.883  25.096  0.00  0.00    -0.166 F 
ENDBRANCH  11  14
ENDBRANCH   7   8
ENDBRANCH   6   7
BRANCH  23  24
ATOM     24  C   UNL     1       0.228   0.190  23.566  0.00  0.00    +0.027 C 
BRANCH  24  25
ATOM     25  C   UNL     1       0.898   0.520  23.215  0.00  0.00    +0.087 C 
BRANCH  25  26
ATOM     26  C   UNL     1       1.449   0.033  22.841  0.00  0.00    +0.226 C 
ATOM     27  O   UNL     1       1.208  -0.682  22.507  0.00  0.00    -0.275 OA
ATOM     28  N   UNL     1       2.241   0.262  22.801  0.00  0.00    -0.279 N 
ATOM     29  C   UNL     1       2.792  -0.226  22.426  0.00  0.00    +0.096 C 
ATOM     30  C   UNL     1       3.584   0.003  22.386  0.00  0.00    +0.054 C 
ATOM     31  C   UNL     1       3.824   0.718  22.720  0.00  0.00    +0.155 C 
ATOM     32  O   UNL     1       4.616   0.946  22.680  0.00  0.00    -0.223 OA
ATOM     33  C   UNL     1       3.273   1.204  23.094  0.00  0.00    +0.054 C 
ATOM     34  C   UNL     1       2.482   0.976  23.134  0.00  0.00    +0.096 C 
ENDBRANCH  25  26
ENDBRANCH  24  25
ENDBRANCH  23  24
TORSDOF 6
ENDMDL
MODEL 2
REMARK VINA RESULT:      -8.7      1.448      2.344
REMARK  Name = 
REMARK  6 active torsions:
REMARK  status: ('A' for Active; 'I' for Inactive)
REMARK    1  A    between atoms: N_6  and  C_7
REMARK    2  A    between atoms: C_7  and  C_8
REMARK    3  A    between atoms: C_11  and  C_14
REMARK    4  A    between atoms: C_23  and  C_24
REMARK    5  A    between atoms: C_24  and  C_25
REMARK    6  A    between atoms: C_25  and  C_26
REMARK                            x       y       z     vdW  Elec       q    Type
REMARK                         _______ _______ _______ _____ _____    ______ ____
ROOT
ATOM      1  C   UNL     1       0.960   1.848  23.890  0.00  0.00    +0.090 C 
ATOM      2  N   UNL     1       0.680   1.080  23.773  0.00  0.00    -0.271 NA
ATOM      3  C   UNL     1      -0.085   0.933  24.043  0.00  0.00    +0.083 C 
ATOM      4  C   UNL     1      -0.556   1.504  24.408  0.00  0.00    +0.035 C 
ATOM      5  C   UNL     1      -1.278   1.156  24.599  0.00  0.00    +0.074 C 
ATOM      6  N   UNL     1      -1.255   0.368  24.352  0.00  0.00    -0.262 NA
ATOM     18  C   UNL     1      -0.517   0.231  24.008  0.00  0.00    +0.151 C 
ATOM     19  C   UNL     1      -0.290  -0.497  23.695  0.00  0.00    +0.257 C 
ATOM     20  O   UNL     1      -0.853  -1.099  23.744  0.00  0.00    -0.272 OA
ATOM     21  N   UNL     1       0.425  -0.704  23.340  0.00  0.00    -0.203 NA
ATOM     22  C   UNL     1       1.090  -0.233  23.209  0.00  0.00    +0.131 C 
ATOM     23  C   UNL     1       1.203   0.561  23.402  0.00  0.00    +0.080 C 
ENDROOT
BRANCH   6   7
ATOM      7  C   UNL     1      -1.862  -0.185  24.434  0.00  0.00    +0.100 C 
BRANCH   7   8
ATOM      8  C   UNL     1      -2.634   0.069  24.573  0.00  0.00    -0.006 A 
ATOM      9  C   UNL     1      -2.980  -0.047  25.313  0.00  0.00    -0.003 A 
ATOM     10  C   UNL     1      -3.752   0.207  25.451  0.00  0.00    +0.004 A 
ATOM     11  C   UNL     1      -4.179   0.577  24.851  0.00  0.00    +0.071 A 
ATOM     12  C   UNL     1      -3.833   0.693  24.111  0.00  0.00    +0.004 A 
ATOM     13  C   UNL     1      -3.061   0.439  23.972  0.00  0.00    -0.003 A 
BRANCH  11  14
ATOM     14  C   UNL     1      -4.951   0.831  24.989  0.00  0.00    +0.419 C 
ATOM     15  F   UNL     1      -5.724   1.085  25.127  0.00  0.00    -0.166 F 
ATOM     16  F   UNL     1      -5.240   0.172  24.587  0.00  0.00    -0.166 F 
ATOM     17  F   UNL     1      -4.663   1.491  25.392  0.00  0.00    -0.166 F 
ENDBRANCH  11  14
ENDBRANCH   7   8
ENDBRANCH   6   7
BRANCH  23  24
ATOM     24  C   UNL     1       1.937   0.878  23.197  0.00  0.00    +0.027 C 
BRANCH  24  25
ATOM     25  C   UNL     1       2.588   0.380  23.099  0.00  0.00    +0.087 C 
BRANCH  25  26
ATOM     26  C   UNL     1       3.330   0.699  22.932  0.00  0.00    +0.226 C 
ATOM     27  O   UNL     1       3.390   1.409  22.515  0.00  0.00    -0.275 OA
ATOM     28  N   UNL     1       4.013   0.309  23.183  0.00  0.00    -0.279 N 
ATOM     29  C   UNL     1       4.755   0.629  23.017  0.00  0.00    +0.096 C 
ATOM     30  C   UNL     1       5.437   0.239  23.268  0.00  0.00    +0.054 C 
ATOM     31  C   UNL     1       5.378  -0.470  23.686  0.00  0.00    +0.155 C 
ATOM     32  O   UNL     1       6.060  -0.859  23.936  0.00  0.00    -0.223 OA
ATOM     33  C   UNL     1       4.636  -0.789  23.852  0.00  0.00    +0.054 C 
ATOM     34  C   UNL     1       3.953  -0.399  23.601  0.00  0.00    +0.096 C 
ENDBRANCH  25  26
ENDBRANCH  24  25
ENDBRANCH  23  24
TORSDOF 6
ENDMDL
MODEL 3
REMARK VINA RESULT:      -8.2     15.405     16.641
REMARK  Name = 
REMARK  6 active torsions:
REMARK  status: ('A' for Active; 'I' for Inactive)
REMARK    1  A    between atoms: N_6  and  C_7
REMARK    2  A    between atoms: C_7  and  C_8
REMARK    3  A    between atoms: C_11  and  C_14
REMARK    4  A    between atoms: C_23  and  C_24
REMARK    5  A    between atoms: C_24  and  C_25
REMARK    6  A    between atoms: C_25  and  C_26
REMARK                            x       y       z     vdW  Elec       q    Type
REMARK                         _______ _______ _______ _____ _____    ______ ____
ROOT
ATOM      1  C   UNL     1      -3.522 -10.698  15.292  0.00  0.00    +0.090 C 
ATOM      2  N   UNL     1      -4.273 -10.670  14.951  0.00  0.00    -0.271 NA
ATOM      3  C   UNL     1      -4.290 -10.601  14.129  0.00  0.00    +0.083 C 
ATOM      4  C   UNL     1      -3.610 -10.562  13.662  0.00  0.00    +0.035 C 
ATOM      5  C   UNL     1      -3.845 -10.496  12.874  0.00  0.00    +0.074 C 
ATOM      6  N   UNL     1      -4.670 -10.495  12.854  0.00  0.00    -0.262 NA
ATOM     18  C   UNL     1      -4.945 -10.560  13.629  0.00  0.00    +0.151 C 
ATOM     19  C   UNL     1      -5.745 -10.578  13.828  0.00  0.00    +0.257 C 
ATOM     20  O   UNL     1      -6.273 -10.526  13.195  0.00  0.00    -0.272 OA
ATOM     21  N   UNL     1      -6.088 -10.641  14.575  0.00  0.00    -0.203 NA
ATOM     22  C   UNL     1      -5.715 -10.702  15.309  0.00  0.00    +0.131 C 
ATOM     23  C   UNL     1      -4.907 -10.715  15.476  0.00  0.00    +0.080 C 
ENDROOT
BRANCH   6   7
ATOM      7  C   UNL     1      -5.139 -10.439  12.176  0.00  0.00    +0.100 C 
BRANCH   7   8
ATOM      8  C   UNL     1      -4.831 -10.102  11.489  0.00  0.00    -0.006 A 
ATOM      9  C   UNL     1      -4.469 -10.578  10.922  0.00  0.00    -0.003 A 
ATOM     10  C   UNL     1      -4.161 -10.240  10.236  0.00  0.00    +0.004 A 
ATOM     11  C   UNL     1      -4.216  -9.426  10.115  0.00  0.00    +0.071 A 
ATOM     12  C   UNL     1      -4.579  -8.950  10.684  0.00  0.00    +0.004 A 
ATOM     13  C   UNL     1      -4.886  -9.287  11.370  0.00  0.00    -0.003 A 
BRANCH  11  14
ATOM     14  C   UNL     1      -3.909  -9.088   9.429  0.00  0.00    +0.419 C 
ATOM     15  F   UNL     1      -3.601  -8.749   8.743  0.00  0.00    -0.166 F 
ATOM     16  F   UNL     1      -3.616  -8.457   9.872  0.00  0.00    -0.166 F 
ATOM     17  F   UNL     1      -4.202  -9.719   8.986  0.00  0.00    -0.166 F 
ENDBRANCH  11  14
ENDBRANCH   7   8
ENDBRANCH   6   7
BRANCH  23  24
ATOM     24  C   UNL     1      -4.708 -10.781  16.274  0.00  0.00    +0.027 C 
BRANCH  24  25
ATOM     25  C   UNL     1      -5.301 -10.780  16.848  0.00  0.00    +0.087 C 
BRANCH  25  26
ATOM     26  C   UNL     1      -5.099 -10.779  17.649  0.00  0.00    +0.226 C 
ATOM     27  O   UNL     1      -4.306 -10.779  17.875  0.00  0.00    -0.275 OA
ATOM     28  N   UNL     1      -5.692 -10.779  18.222  0.00  0.00    -0.279 N 
ATOM     29  C   UNL     1      -5.491 -10.778  19.023  0.00  0.00    +0.096 C 
ATOM     30  C   UNL     1      -6.084 -10.778  19.597  0.00  0.00    +0.054 C 
ATOM     31  C   UNL     1      -6.878 -10.779  19.371  0.00  0.00    +0.155 C 
ATOM     32  O   UNL     1      -7.470 -10.779  19.945  0.00  0.00    -0.223 OA
ATOM     33  C   UNL     1      -7.078 -10.780  18.571  0.00  0.00    +0.054 C 
ATOM     34  C   UNL     1      -6.485 -10.780  17.997  0.00  0.00    +0.096 C 
ENDBRANCH  25  26
ENDBRANCH  24  25
ENDBRANCH  23  24
TORSDOF 6
ENDMDL
MODEL 4
REMARK VINA RESULT:      -7.7     14.694     16.290
REMARK  Name = 
REMARK  6 active torsions:
REMARK  status: ('A' for Active; 'I' for Inactive)
REMARK    1  A    between atoms: N_6  and  C_7
REMARK    2  A    between atoms: C_7  and  C_8
REMARK    3  A    between atoms: C_11  and  C_14
REMARK    4  A    between atoms: C_23  and  C_24
REMARK    5  A    between atoms: C_24  and  C_25
REMARK    6  A    between atoms: C_25  and  C_26
REMARK                            x       y       z     vdW  Elec       q    Type
REMARK                         _______ _______ _______ _____ _____    ______ ____
ROOT
ATOM      1  C   UNL     1      -2.786 -10.781  16.557  0.00  0.00    +0.090 C 
ATOM      2  N   UNL     1      -3.335 -10.781  15.940  0.00  0.00    -0.271 NA
ATOM      3  C   UNL     1      -3.017 -10.781  15.179  0.00  0.00    +0.083 C 
ATOM      4  C   UNL     1      -2.206 -10.781  15.025  0.00  0.00    +0.035 C 
ATOM      5  C   UNL     1      -2.101 -10.781  14.207  0.00  0.00    +0.074 C 
ATOM      6  N   UNL     1      -2.848 -10.780  13.855  0.00  0.00    -0.262 NA
ATOM     18  C   UNL     1      -3.413 -10.780  14.456  0.00  0.00    +0.151 C 
ATOM     19  C   UNL     1      -4.226 -10.780  14.316  0.00  0.00    +0.257 C 
ATOM     20  O   UNL     1      -4.452 -10.780  13.521  0.00  0.00    -0.272 OA
ATOM     21  N   UNL     1      -4.843 -10.780  14.863  0.00  0.00    -0.203 NA
ATOM     22  C   UNL     1      -4.799 -10.780  15.687  0.00  0.00    +0.131 C 
ATOM     23  C   UNL     1      -4.128 -10.781  16.167  0.00  0.00    +0.080 C 
ENDROOT
BRANCH   6   7
ATOM      7  C   UNL     1      -3.002 -10.780  13.044  0.00  0.00    +0.100 C 
BRANCH   7   8
ATOM      8  C   UNL     1      -2.497 -10.381  12.529  0.00  0.00    -0.006 A 
ATOM      9  C   UNL     1      -2.620  -9.582  12.366  0.00  0.00    -0.003 A 
ATOM     10  C   UNL     1      -2.115  -9.184  11.851  0.00  0.00    +0.004 A 
ATOM     11  C   UNL     1      -1.485  -9.583  11.498  0.00  0.00    +0.071 A 
ATOM     12  C   UNL     1      -1.362 -10.382  11.661  0.00  0.00    +0.004 A 
ATOM     13  C   UNL     1      -1.867 -10.781  12.176  0.00  0.00    -0.003 A 
BRANCH  11  14
ATOM     14  C   UNL     1      -0.980  -9.184  10.983  0.00  0.00    +0.419 C 
ATOM     15  F   UNL     1      -0.473  -8.786  10.468  0.00  0.00    -0.166 F 
ATOM     16  F   UNL     1      -0.368  -9.252  11.532  0.00  0.00    -0.166 F 
ATOM     17  F   UNL     1      -1.591  -9.117  10.433  0.00  0.00    -0.166 F 
ENDBRANCH  11  14
ENDBRANCH   7   8
ENDBRANCH   6   7
BRANCH  23  24
ATOM     24  C   UNL     1      -4.269 -10.781  16.980  0.00  0.00    +0.027 C 
BRANCH  24  25
ATOM     25  C   UNL     1      -5.042 -10.727  17.263  0.00  0.00    +0.087 C 
BRANCH  25  26
ATOM     26  C   UNL     1      -5.183 -10.730  18.077  0.00  0.00    +0.226 C 
ATOM     27  O   UNL     1      -4.550 -10.721  18.606  0.00  0.00    -0.275 OA
ATOM     28  N   UNL     1      -5.959 -10.743  18.360  0.00  0.00    -0.279 N 
ATOM     29  C   UNL     1      -6.100 -10.746  19.173  0.00  0.00    +0.096 C 
ATOM     30  C   UNL     1      -6.875 -10.759  19.456  0.00  0.00    +0.054 C 
ATOM     31  C   UNL     1      -7.508 -10.769  18.926  0.00  0.00    +0.155 C 
ATOM     32  O   UNL     1      -8.282 -10.781  19.210  0.00  0.00    -0.223 OA
ATOM     33  C   UNL     1      -7.366 -10.765  18.114  0.00  0.00    +0.054 C 
ATOM     34  C   UNL     1      -6.591 -10.753  17.831  0.00  0.00    +0.096 C 
ENDBRANCH  25  26
ENDBRANCH  24  25
ENDBRANCH  23  24
TORSDOF 6
ENDMDL
