MODEL 1
REMARK VINA RESULT:      -7.3      0.000      0.000
REMARK  Name = 
REMARK  8 active torsions:
REMARK  status: ('A' for Active; 'I' for Inactive)
REMARK    1  A    between atoms: O_2  and  C_3
REMARK    2  A    between atoms: C_3  and  C_4
REMARK    3  A    between atoms: C_4  and  C_5
REMARK    4  A    between atoms: N_7  and  C_8
REMARK    5  A    between atoms: C_8  and  C_9
REMARK    6  A    between atoms: C_13  and  C_14
REMARK    7  A    between atoms: C_14  and  C_15
REMARK    8  A    between atoms: C_30  and  C_31
REMARK                            x       y       z     vdW  Elec       q    Type
REMARK                         _______ _______ _______ _____ _____    ______ ____
ROOT
ATOM      9  C   UNL     1       0.774   0.908  23.604  0.00  0.00    +0.043 C 
ATOM     10  C   UNL     1       0.813   1.710  23.795  0.00  0.00    -0.033 C 
ATOM     11  C   UNL     1       0.134   2.111  24.035  0.00  0.00    -0.048 C 
ATOM     12  C   UNL     1       0.173   2.913  24.226  0.00  0.00    +0.026 C 
ATOM     13  C   UNL     1      -0.586   1.711  24.084  0.00  0.00    +0.027 C 
ATOM     29  C   UNL     1      -0.626   0.909  23.894  0.00  0.00    +0.005 C 
ATOM     30  C   UNL     1       0.055   0.508  23.653  0.00  0.00    +0.006 C 
ENDROOT
BRANCH  30  31
ATOM     31  C   UNL     1       0.014  -0.294  23.463  0.00  0.00    +0.000 C 
ATOM     32  C   UNL     1       0.014  -0.861  24.063  0.00  0.00    +0.000 C 
ATOM     33  C   UNL     1      -0.025  -0.529  22.673  0.00  0.00    +0.000 C 
ENDBRANCH  30  31
BRANCH   9   8
ATOM      8  C   UNL     1       1.453   0.508  23.364  0.00  0.00    +0.119 C 
BRANCH   8   7
ATOM      5  C   UNL     1       2.829   0.573  22.984  0.00  0.00    +0.244 C 
ATOM      6  O   UNL     1       2.736  -0.110  22.530  0.00  0.00    -0.273 OA
ATOM      7  N   UNL     1       2.188   0.881  23.401  0.00  0.00    -0.205 NA
BRANCH   5   4
ATOM      4  C   UNL     1       3.564   0.946  23.020  0.00  0.00    +0.119 C 
BRANCH   4   3
ATOM      3  C   UNL     1       4.253   0.497  23.085  0.00  0.00    +0.152 C 
BRANCH   3   2
ATOM      1  C   UNL     1       5.577   0.343  23.600  0.00  0.00    +0.174 C 
ATOM      2  O   UNL     1       4.927   0.822  23.432  0.00  0.00    -0.351 OA
ENDBRANCH   3   2
ENDBRANCH   4   3
ENDBRANCH   5   4
ENDBRANCH   8   7
ENDBRANCH   9   8
BRANCH  13  14
ATOM     14  C   UNL     1      -1.266   2.112  24.324  0.00  0.00    +0.089 C 
BRANCH  14  15
ATOM     15  C   UNL     1      -1.915   2.162  23.818  0.00  0.00    +0.226 C 
ATOM     16  O   UNL     1      -1.799   2.234  23.004  0.00  0.00    -0.275 OA
ATOM     17  N   UNL     1      -2.681   2.139  24.125  0.00  0.00    -0.276 N 
ATOM     18  C   UNL     1      -3.330   2.189  23.619  0.00  0.00    +0.115 C 
ATOM     19  C   UNL     1      -4.095   2.167  23.926  0.00  0.00    +0.114 C 
ATOM     20  N   UNL     1      -4.211   2.094  24.740  0.00  0.00    -0.290 N 
ATOM     21  C   UNL     1      -3.562   2.044  25.246  0.00  0.00    +0.114 C 
ATOM     22  C   UNL     1      -2.797   2.067  24.939  0.00  0.00    +0.115 C 
ATOM     23  C   UNL     1      -4.976   2.072  25.047  0.00  0.00    +0.132 A 
ATOM     24  N   UNL     1      -5.626   2.122  24.541  0.00  0.00    -0.229 NA
ATOM     25  C   UNL     1      -6.391   2.099  24.848  0.00  0.00    +0.100 A 
ATOM     26  C   UNL     1      -6.507   2.027  25.662  0.00  0.00    +0.021 A 
ATOM     27  C   UNL     1      -5.858   1.977  26.168  0.00  0.00    +0.004 A 
ATOM     28  C   UNL     1      -5.092   1.999  25.861  0.00  0.00    +0.034 A 
ENDBRANCH  14  15
ENDBRANCH  13  14
TORSDOF 8
ENDMDL
MODEL 2
REMARK VINA RESULT:      -7.1      1.914      6.848
REMARK  Name = 
REMARK  8 active torsions:
REMARK  status: ('A' for Active; 'I' for Inactive)
REMARK    1  A    between atoms: O_2  and  C_3
REMARK    2  A    between atoms: C_3  and  C_4
REMARK    3  A    between atoms: C_4  and  C_5
REMARK    4  A    between atoms: N_7  and  C_8
REMARK    5  A    between atoms: C_8  and  C_9
REMARK    6  A    between atoms: C_13  and  C_14
REMARK    7  A    between atoms: C_14  and  C_15
REMARK    8  A    between atoms: C_30  and  C_31
REMARK                            x       y       z     vdW  Elec       q    Type
REMARK                         _______ _______ _______ _____ _____    ______ ____
ROOT
ATOM      9  C   UNL     1      -3.461   0.773  24.862  0.00  0.00    +0.043 C 
ATOM     10  C   UNL     1      -3.038   1.466  24.718  0.00  0.00    -0.033 C 
ATOM     11  C   UNL     1      -2.224   1.434  24.589  0.00  0.00    -0.048 C 
ATOM     12  C   UNL     1      -1.801   2.128  24.445  0.00  0.00    +0.026 C 
ATOM     13  C   UNL     1      -1.833   0.708  24.603  0.00  0.00    +0.027 C 
ATOM     29  C   UNL     1      -2.255   0.014  24.746  0.00  0.00    +0.005 C 
ATOM     30  C   UNL     1      -3.070   0.047  24.876  0.00  0.00    +0.006 C 
ENDROOT
BRANCH  30  31
ATOM     31  C   UNL     1      -3.492  -0.647  25.019  0.00  0.00    +0.000 C 
ATOM     32  C   UNL     1      -3.508  -0.970  25.779  0.00  0.00    +0.000 C 
ATOM     33  C   UNL     1      -3.897  -1.019  24.404  0.00  0.00    +0.000 C 
ENDBRANCH  30  31
BRANCH   9   8
ATOM      8  C   UNL     1      -4.275   0.805  24.991  0.00  0.00    +0.119 C 
BRANCH   8   7
ATOM      5  C   UNL     1      -5.382   1.658  25.286  0.00  0.00    +0.244 C 
ATOM      6  O   UNL     1      -5.839   1.259  24.727  0.00  0.00    -0.273 OA
ATOM      7  N   UNL     1      -4.601   1.431  25.418  0.00  0.00    -0.205 NA
BRANCH   5   4
ATOM      4  C   UNL     1      -5.709   2.284  25.714  0.00  0.00    +0.119 C 
BRANCH   4   3
ATOM      3  C   UNL     1      -5.721   3.042  25.390  0.00  0.00    +0.152 C 
BRANCH   3   2
ATOM      1  C   UNL     1      -5.820   4.458  25.559  0.00  0.00    +0.174 C 
ATOM      2  O   UNL     1      -5.809   3.699  25.882  0.00  0.00    -0.351 OA
ENDBRANCH   3   2
ENDBRANCH   4   3
ENDBRANCH   5   4
ENDBRANCH   8   7
ENDBRANCH   9   8
BRANCH  13  14
ATOM     14  C   UNL     1      -1.018   0.676  24.474  0.00  0.00    +0.089 C 
BRANCH  14  15
ATOM     15  C   UNL     1      -0.709   0.145  23.923  0.00  0.00    +0.226 C 
ATOM     16  O   UNL     1      -1.177  -0.473  23.638  0.00  0.00    -0.275 OA
ATOM     17  N   UNL     1       0.068   0.231  23.658  0.00  0.00    -0.276 N 
ATOM     18  C   UNL     1       0.376  -0.300  23.107  0.00  0.00    +0.115 C 
ATOM     19  C   UNL     1       1.153  -0.214  22.843  0.00  0.00    +0.114 C 
ATOM     20  N   UNL     1       1.620   0.404  23.128  0.00  0.00    -0.290 N 
ATOM     21  C   UNL     1       1.311   0.934  23.678  0.00  0.00    +0.114 C 
ATOM     22  C   UNL     1       0.535   0.848  23.943  0.00  0.00    +0.115 C 
ATOM     23  C   UNL     1       2.397   0.489  22.863  0.00  0.00    +0.132 A 
ATOM     24  N   UNL     1       2.707  -0.041  22.312  0.00  0.00    -0.229 NA
ATOM     25  C   UNL     1       3.482   0.044  22.047  0.00  0.00    +0.100 A 
ATOM     26  C   UNL     1       3.950   0.662  22.333  0.00  0.00    +0.021 A 
ATOM     27  C   UNL     1       3.641   1.193  22.883  0.00  0.00    +0.004 A 
ATOM     28  C   UNL     1       2.864   1.107  23.148  0.00  0.00    +0.034 A 
ENDBRANCH  14  15
ENDBRANCH  13  14
TORSDOF 8
ENDMDL
MODEL 3
REMARK VINA RESULT:      -6.4      1.700      7.033
REMARK  Name = 
REMARK  8 active torsions:
REMARK  status: ('A' for Active; 'I' for Inactive)
REMARK    1  A    between atoms: O_2  and  C_3
REMARK    2  A    between atoms: C_3  and  C_4
REMARK    3  A    between atoms: C_4  and  C_5
REMARK    4  A    between atoms: N_7  and  C_8
REMARK    5  A    between atoms: C_8  and  C_9
REMARK    6  A    between atoms: C_13  and  C_14
REMARK    7  A    between atoms: C_14  and  C_15
REMARK    8  A    between atoms: C_30  and  C_31
REMARK                            x       y       z     vdW  Elec       q    Type
REMARK                         _______ _______ _______ _____ _____    ______ ____
ROOT
ATOM      9  C   UNL     1      -3.514   1.347  24.324  0.00  0.00    +0.043 C 
ATOM     10  C   UNL     1      -3.295   0.655  24.718  0.00  0.00    -0.033 C 
ATOM     11  C   UNL     1      -2.522   0.373  24.658  0.00  0.00    -0.048 C 
ATOM     12  C   UNL     1      -2.303  -0.319  25.051  0.00  0.00    +0.026 C 
ATOM     13  C   UNL     1      -1.968   0.782  24.204  0.00  0.00    +0.027 C 
ATOM     29  C   UNL     1      -2.185   1.474  23.811  0.00  0.00    +0.005 C 
ATOM     30  C   UNL     1      -2.959   1.756  23.871  0.00  0.00    +0.006 C 
ENDROOT
BRANCH  30  31
ATOM     31  C   UNL     1      -3.177   2.448  23.478  0.00  0.00    +0.000 C 
ATOM     32  C   UNL     1      -3.388   2.419  22.680  0.00  0.00    +0.000 C 
ATOM     33  C   UNL     1      -3.183   3.168  23.880  0.00  0.00    +0.000 C 
ENDBRANCH  30  31
BRANCH   9   8
ATOM      8  C   UNL     1      -4.286   1.629  24.384  0.00  0.00    +0.119 C 
BRANCH   8   7
ATOM      5  C   UNL     1      -5.535   1.668  25.078  0.00  0.00    +0.244 C 
ATOM      6  O   UNL     1      -5.880   2.050  24.434  0.00  0.00    -0.273 OA
ATOM      7  N   UNL     1      -4.738   1.458  25.053  0.00  0.00    -0.205 NA
BRANCH   5   4
ATOM      4  C   UNL     1      -5.987   1.496  25.746  0.00  0.00    +0.119 C 
BRANCH   4   3
ATOM      3  C   UNL     1      -6.340   2.106  26.174  0.00  0.00    +0.152 C 
BRANCH   3   2
ATOM      1  C   UNL     1      -6.964   1.560  27.338  0.00  0.00    +0.174 C 
ATOM      2  O   UNL     1      -6.401   2.054  26.995  0.00  0.00    -0.351 OA
ENDBRANCH   3   2
ENDBRANCH   4   3
ENDBRANCH   5   4
ENDBRANCH   8   7
ENDBRANCH   9   8
BRANCH  13  14
ATOM     14  C   UNL     1      -1.194   0.500  24.144  0.00  0.00    +0.089 C 
BRANCH  14  15
ATOM     15  C   UNL     1      -0.561   0.984  24.357  0.00  0.00    +0.226 C 
ATOM     16  O   UNL     1      -0.661   1.564  24.935  0.00  0.00    -0.275 OA
ATOM     17  N   UNL     1       0.172   0.889  23.990  0.00  0.00    -0.276 N 
ATOM     18  C   UNL     1       0.805   1.373  24.202  0.00  0.00    +0.115 C 
ATOM     19  C   UNL     1       1.538   1.277  23.836  0.00  0.00    +0.114 C 
ATOM     20  N   UNL     1       1.637   0.697  23.257  0.00  0.00    -0.290 N 
ATOM     21  C   UNL     1       1.004   0.214  23.045  0.00  0.00    +0.114 C 
ATOM     22  C   UNL     1       0.272   0.309  23.411  0.00  0.00    +0.115 C 
ATOM     23  C   UNL     1       2.371   0.602  22.891  0.00  0.00    +0.132 A 
ATOM     24  N   UNL     1       3.005   1.086  23.103  0.00  0.00    -0.229 NA
ATOM     25  C   UNL     1       3.737   0.991  22.737  0.00  0.00    +0.100 A 
ATOM     26  C   UNL     1       3.837   0.411  22.157  0.00  0.00    +0.021 A 
ATOM     27  C   UNL     1       3.204  -0.073  21.946  0.00  0.00    +0.004 A 
ATOM     28  C   UNL     1       2.470   0.022  22.312  0.00  0.00    +0.034 A 
ENDBRANCH  14  15
ENDBRANCH  13  14
TORSDOF 8
ENDMDL
MODEL 4
REMARK VINA RESULT:      -5.4      1.606      6.940
REMARK  Name = 
REMARK  8 active torsions:
REMARK  status: ('A' for Active; 'I' for Inactive)
REMARK    1  A    between atoms: O_2  and  C_3
REMARK    2  A    between atoms: C_3  and  C_4
REMARK    3  A    between atoms: C_4  and  C_5
REMARK    4  A    between atoms: N_7  and  C_8
REMARK    5  A    between atoms: C_8  and  C_9
REMARK    6  A    between atoms: C_13  and  C_14
REMARK    7  A    between atoms: C_14  and  C_15
REMARK    8  A    between atoms: C_30  and  C_31
REMARK                            x       y       z     vdW  Elec       q    Type
REMARK                         _______ _______ _______ _____ _____    ______ ____
ROOT
ATOM      9  C   UNL     1      -2.191   2.601  24.647  0.00  0.00    +0.043 C 
ATOM     10  C   UNL     1      -2.477   2.165  24.007  0.00  0.00    -0.033 C 
ATOM     11  C   UNL     1      -1.957   1.738  23.532  0.00  0.00    -0.048 C 
ATOM     12  C   UNL     1      -2.243   1.303  22.892  0.00  0.00    +0.026 C 
ATOM     13  C   UNL     1      -1.148   1.745  23.696  0.00  0.00    +0.027 C 
ATOM     29  C   UNL     1      -0.860   2.180  24.335  0.00  0.00    +0.005 C 
ATOM     30  C   UNL     1      -1.382   2.608  24.811  0.00  0.00    +0.006 C 
ENDROOT
BRANCH  30  31
ATOM     31  C   UNL     1      -1.095   3.042  25.450  0.00  0.00    +0.000 C 
ATOM     32  C   UNL     1      -0.913   3.842  25.356  0.00  0.00    +0.000 C 
ATOM     33  C   UNL     1      -0.988   2.678  26.183  0.00  0.00    +0.000 C 
ENDBRANCH  30  31
BRANCH   9   8
ATOM      8  C   UNL     1      -2.712   3.028  25.122  0.00  0.00    +0.119 C 
BRANCH   8   7
ATOM      5  C   UNL     1      -4.046   3.393  25.477  0.00  0.00    +0.244 C 
ATOM      6  O   UNL     1      -3.754   3.884  26.073  0.00  0.00    -0.273 OA
ATOM      7  N   UNL     1      -3.526   2.966  25.002  0.00  0.00    -0.205 NA
BRANCH   5   4
ATOM      4  C   UNL     1      -4.861   3.331  25.358  0.00  0.00    +0.119 C 
BRANCH   4   3
ATOM      3  C   UNL     1      -5.321   2.887  25.878  0.00  0.00    +0.152 C 
BRANCH   3   2
ATOM      1  C   UNL     1      -6.403   1.971  26.059  0.00  0.00    +0.174 C 
ATOM      2  O   UNL     1      -6.042   2.573  25.627  0.00  0.00    -0.351 OA
ENDBRANCH   3   2
ENDBRANCH   4   3
ENDBRANCH   5   4
ENDBRANCH   8   7
ENDBRANCH   9   8
BRANCH  13  14
ATOM     14  C   UNL     1      -0.626   1.317  23.220  0.00  0.00    +0.089 C 
BRANCH  14  15
ATOM     15  C   UNL     1      -0.253   0.645  23.520  0.00  0.00    +0.226 C 
ATOM     16  O   UNL     1      -0.690   0.080  23.933  0.00  0.00    -0.275 OA
ATOM     17  N   UNL     1       0.557   0.538  23.405  0.00  0.00    -0.276 N 
ATOM     18  C   UNL     1       0.930  -0.134  23.704  0.00  0.00    +0.115 C 
ATOM     19  C   UNL     1       1.740  -0.240  23.590  0.00  0.00    +0.114 C 
ATOM     20  N   UNL     1       2.177   0.325  23.176  0.00  0.00    -0.290 N 
ATOM     21  C   UNL     1       1.803   0.996  22.877  0.00  0.00    +0.114 C 
ATOM     22  C   UNL     1       0.994   1.103  22.992  0.00  0.00    +0.115 C 
ATOM     23  C   UNL     1       2.987   0.217  23.062  0.00  0.00    +0.132 A 
ATOM     24  N   UNL     1       3.361  -0.455  23.361  0.00  0.00    -0.229 NA
ATOM     25  C   UNL     1       4.170  -0.562  23.247  0.00  0.00    +0.100 A 
ATOM     26  C   UNL     1       4.607   0.004  22.833  0.00  0.00    +0.021 A 
ATOM     27  C   UNL     1       4.234   0.675  22.534  0.00  0.00    +0.004 A 
ATOM     28  C   UNL     1       3.424   0.783  22.648  0.00  0.00    +0.034 A 
ENDBRANCH  14  15
ENDBRANCH  13  14
TORSDOF 8
ENDMDL
MODEL 5
REMARK VINA RESULT:      -5.2     15.501     17.764
REMARK  Name = 
REMARK  8 active torsions:
REMARK  status: ('A' for Active; 'I' for Inactive)
REMARK    1  A    between atoms: O_2  and  C_3
REMARK    2  A    between atoms: C_3  and  C_4
REMARK    3  A    between atoms: C_4  and  C_5
REMARK    4  A    between atoms: N_7  and  C_8
REMARK    5  A    between atoms: C_8  and  C_9
REMARK    6  A    between atoms: C_13  and  C_14
REMARK    7  A    between atoms: C_14  and  C_15
REMARK    8  A    between atoms: C_30  and  C_31
REMARK                            x       y       z     vdW  Elec       q    Type
REMARK                         _______ _______ _______ _____ _____    ______ ____
ROOT
ATOM      9  C   UNL     1      -5.358  -9.229  10.230  0.00  0.00    +0.043 C 
ATOM     10  C   UNL     1      -5.686  -9.146  10.983  0.00  0.00    -0.033 C 
ATOM     11  C   UNL     1      -5.316  -9.490  11.635  0.00  0.00    -0.048 C 
ATOM     12  C   UNL     1      -5.643  -9.407  12.388  0.00  0.00    +0.026 C 
ATOM     13  C   UNL     1      -4.618  -9.918  11.534  0.00  0.00    +0.027 C 
ATOM     29  C   UNL     1      -4.289 -10.001  10.782  0.00  0.00    +0.005 C 
ATOM     30  C   UNL     1      -4.660  -9.656  10.130  0.00  0.00    +0.006 C 
ENDROOT
BRANCH  30  31
ATOM     31  C   UNL     1      -4.332  -9.740   9.378  0.00  0.00    +0.000 C 
ATOM     32  C   UNL     1      -4.656 -10.281   8.844  0.00  0.00    +0.000 C 
ATOM     33  C   UNL     1      -3.680  -9.284   9.159  0.00  0.00    +0.000 C 
ENDBRANCH  30  31
BRANCH   9   8
ATOM      8  C   UNL     1      -5.728  -8.884   9.579  0.00  0.00    +0.119 C 
BRANCH   8   7
ATOM      5  C   UNL     1      -6.778  -8.074   9.047  0.00  0.00    +0.244 C 
ATOM      6  O   UNL     1      -6.623  -8.368   8.292  0.00  0.00    -0.273 OA
ATOM      7  N   UNL     1      -6.331  -8.332   9.690  0.00  0.00    -0.205 NA
BRANCH   5   4
ATOM      4  C   UNL     1      -7.381  -7.522   9.158  0.00  0.00    +0.119 C 
BRANCH   4   3
ATOM      3  C   UNL     1      -7.918  -7.368   8.552  0.00  0.00    +0.152 C 
BRANCH   3   2
ATOM      1  C   UNL     1      -8.949  -6.404   8.335  0.00  0.00    +0.174 C 
ATOM      2  O   UNL     1      -8.667  -7.071   8.728  0.00  0.00    -0.351 OA
ENDBRANCH   3   2
ENDBRANCH   4   3
ENDBRANCH   5   4
ENDBRANCH   8   7
ENDBRANCH   9   8
BRANCH  13  14
ATOM     14  C   UNL     1      -4.247 -10.262  12.186  0.00  0.00    +0.089 C 
BRANCH  14  15
ATOM     15  C   UNL     1      -3.426 -10.233  12.256  0.00  0.00    +0.226 C 
ATOM     16  O   UNL     1      -2.958 -10.118  11.586  0.00  0.00    -0.275 OA
ATOM     17  N   UNL     1      -3.071 -10.320  12.997  0.00  0.00    -0.276 N 
ATOM     18  C   UNL     1      -2.250 -10.291  13.067  0.00  0.00    +0.115 C 
ATOM     19  C   UNL     1      -1.897 -10.377  13.807  0.00  0.00    +0.114 C 
ATOM     20  N   UNL     1      -2.364 -10.493  14.477  0.00  0.00    -0.290 N 
ATOM     21  C   UNL     1      -3.185 -10.522  14.406  0.00  0.00    +0.114 C 
ATOM     22  C   UNL     1      -3.539 -10.435  13.667  0.00  0.00    +0.115 C 
ATOM     23  C   UNL     1      -2.010 -10.579  15.217  0.00  0.00    +0.132 A 
ATOM     24  N   UNL     1      -1.188 -10.550  15.288  0.00  0.00    -0.229 NA
ATOM     25  C   UNL     1      -0.834 -10.637  16.028  0.00  0.00    +0.100 A 
ATOM     26  C   UNL     1      -1.302 -10.752  16.698  0.00  0.00    +0.021 A 
ATOM     27  C   UNL     1      -2.123 -10.781  16.628  0.00  0.00    +0.004 A 
ATOM     28  C   UNL     1      -2.478 -10.695  15.888  0.00  0.00    +0.034 A 
ENDBRANCH  14  15
ENDBRANCH  13  14
TORSDOF 8
ENDMDL
MODEL 6
REMARK VINA RESULT:      -4.7     15.528     17.606
REMARK  Name = 
REMARK  8 active torsions:
REMARK  status: ('A' for Active; 'I' for Inactive)
REMARK    1  A    between atoms: O_2  and  C_3
REMARK    2  A    between atoms: C_3  and  C_4
REMARK    3  A    between atoms: C_4  and  C_5
REMARK    4  A    between atoms: N_7  and  C_8
REMARK    5  A    between atoms: C_8  and  C_9
REMARK    6  A    between atoms: C_13  and  C_14
REMARK    7  A    between atoms: C_14  and  C_15
REMARK    8  A    between atoms: C_30  and  C_31
REMARK                            x       y       z     vdW  Elec       q    Type
REMARK                         _______ _______ _______ _____ _____    ______ ____
ROOT
ATOM      9  C   UNL     1      -8.304 -10.060  15.465  0.00  0.00    +0.043 C 
ATOM     10  C   UNL     1      -7.503 -10.072  15.663  0.00  0.00    -0.033 C 
ATOM     11  C   UNL     1      -6.931 -10.067  15.070  0.00  0.00    -0.048 C 
ATOM     12  C   UNL     1      -6.130 -10.079  15.269  0.00  0.00    +0.026 C 
ATOM     13  C   UNL     1      -7.158 -10.050  14.277  0.00  0.00    +0.027 C 
ATOM     29  C   UNL     1      -7.958 -10.038  14.078  0.00  0.00    +0.005 C 
ATOM     30  C   UNL     1      -8.532 -10.043  14.672  0.00  0.00    +0.006 C 
ENDROOT
BRANCH  30  31
ATOM     31  C   UNL     1      -9.332 -10.031  14.472  0.00  0.00    +0.000 C 
ATOM     32  C   UNL     1      -9.738  -9.313  14.439  0.00  0.00    +0.000 C 
ATOM     33  C   UNL     1      -9.727 -10.736  14.305  0.00  0.00    +0.000 C 
ENDBRANCH  30  31
BRANCH   9   8
ATOM      8  C   UNL     1      -8.877 -10.066  16.058  0.00  0.00    +0.119 C 
BRANCH   8   7
ATOM      5  C   UNL     1      -9.187 -10.135  17.451  0.00  0.00    +0.244 C 
ATOM      6  O   UNL     1      -9.902  -9.747  17.311  0.00  0.00    -0.273 OA
ATOM      7  N   UNL     1      -8.676 -10.294  16.825  0.00  0.00    -0.205 NA
BRANCH   5   4
ATOM      4  C   UNL     1      -8.986 -10.364  18.218  0.00  0.00    +0.119 C 
BRANCH   4   3
ATOM      3  C   UNL     1      -9.575 -10.472  18.784  0.00  0.00    +0.152 C 
BRANCH   3   2
ATOM      1  C   UNL     1      -9.958 -10.781  20.126  0.00  0.00    +0.174 C 
ATOM      2  O   UNL     1      -9.376 -10.721  19.545  0.00  0.00    -0.351 OA
ENDBRANCH   3   2
ENDBRANCH   4   3
ENDBRANCH   5   4
ENDBRANCH   8   7
ENDBRANCH   9   8
BRANCH  13  14
ATOM     14  C   UNL     1      -6.585 -10.045  13.683  0.00  0.00    +0.089 C 
BRANCH  14  15
ATOM     15  C   UNL     1      -6.581  -9.442  13.120  0.00  0.00    +0.226 C 
ATOM     16  O   UNL     1      -6.990  -8.740  13.264  0.00  0.00    -0.275 OA
ATOM     17  N   UNL     1      -6.168  -9.542  12.412  0.00  0.00    -0.276 N 
ATOM     18  C   UNL     1      -6.164  -8.939  11.849  0.00  0.00    +0.115 C 
ATOM     19  C   UNL     1      -5.751  -9.039  11.142  0.00  0.00    +0.114 C 
ATOM     20  N   UNL     1      -5.342  -9.742  10.999  0.00  0.00    -0.290 N 
ATOM     21  C   UNL     1      -5.346 -10.343  11.562  0.00  0.00    +0.114 C 
ATOM     22  C   UNL     1      -5.759 -10.244  12.269  0.00  0.00    +0.115 C 
ATOM     23  C   UNL     1      -4.929  -9.841  10.291  0.00  0.00    +0.132 A 
ATOM     24  N   UNL     1      -4.925  -9.238   9.727  0.00  0.00    -0.229 NA
ATOM     25  C   UNL     1      -4.512  -9.338   9.020  0.00  0.00    +0.100 A 
ATOM     26  C   UNL     1      -4.103 -10.041   8.876  0.00  0.00    +0.021 A 
ATOM     27  C   UNL     1      -4.107 -10.642   9.440  0.00  0.00    +0.004 A 
ATOM     28  C   UNL     1      -4.520 -10.543  10.147  0.00  0.00    +0.034 A 
ENDBRANCH  14  15
ENDBRANCH  13  14
TORSDOF 8
ENDMDL
MODEL 7
REMARK VINA RESULT:      -4.7     16.818     19.176
REMARK  Name = 
REMARK  8 active torsions:
REMARK  status: ('A' for Active; 'I' for Inactive)
REMARK    1  A    between atoms: O_2  and  C_3
REMARK    2  A    between atoms: C_3  and  C_4
REMARK    3  A    between atoms: C_4  and  C_5
REMARK    4  A    between atoms: N_7  and  C_8
REMARK    5  A    between atoms: C_8  and  C_9
REMARK    6  A    between atoms: C_13  and  C_14
REMARK    7  A    between atoms: C_14  and  C_15
REMARK    8  A    between atoms: C_30  and  C_31
REMARK                            x       y       z     vdW  Elec       q    Type
REMARK                         _______ _______ _______ _____ _____    ______ ____
ROOT
ATOM      9  C   UNL     1      12.887  -6.200  32.436  0.00  0.00    +0.043 C 
ATOM     10  C   UNL     1      13.621  -6.521  32.633  0.00  0.00    -0.033 C 
ATOM     11  C   UNL     1      14.292  -6.041  32.642  0.00  0.00    -0.048 C 
ATOM     12  C   UNL     1      15.026  -6.361  32.839  0.00  0.00    +0.026 C 
ATOM     13  C   UNL     1      14.229  -5.240  32.453  0.00  0.00    +0.027 C 
ATOM     29  C   UNL     1      13.495  -4.919  32.256  0.00  0.00    +0.005 C 
ATOM     30  C   UNL     1      12.823  -5.400  32.248  0.00  0.00    +0.006 C 
ENDROOT
BRANCH  30  31
ATOM     31  C   UNL     1      12.090  -5.078  32.051  0.00  0.00    +0.000 C 
ATOM     32  C   UNL     1      11.856  -5.039  31.260  0.00  0.00    +0.000 C 
ATOM     33  C   UNL     1      11.590  -4.796  32.643  0.00  0.00    +0.000 C 
ENDBRANCH  30  31
BRANCH   9   8
ATOM      8  C   UNL     1      12.216  -6.680  32.428  0.00  0.00    +0.119 C 
BRANCH   8   7
ATOM      5  C   UNL     1      11.657  -7.995  32.419  0.00  0.00    +0.244 C 
ATOM      6  O   UNL     1      10.958  -7.700  32.742  0.00  0.00    -0.273 OA
ATOM      7  N   UNL     1      12.286  -7.485  32.262  0.00  0.00    -0.205 NA
BRANCH   5   4
ATOM      4  C   UNL     1      11.727  -8.800  32.253  0.00  0.00    +0.119 C 
BRANCH   4   3
ATOM      3  C   UNL     1      11.052  -9.269  32.189  0.00  0.00    +0.152 C 
BRANCH   3   2
ATOM      1  C   UNL     1      10.506 -10.518  31.759  0.00  0.00    +0.174 C 
ATOM      2  O   UNL     1      11.122 -10.086  32.096  0.00  0.00    -0.351 OA
ENDBRANCH   3   2
ENDBRANCH   4   3
ENDBRANCH   5   4
ENDBRANCH   8   7
ENDBRANCH   9   8
BRANCH  13  14
ATOM     14  C   UNL     1      14.900  -4.760  32.462  0.00  0.00    +0.089 C 
BRANCH  14  15
ATOM     15  C   UNL     1      15.149  -4.388  31.769  0.00  0.00    +0.226 C 
ATOM     16  O   UNL     1      15.022  -4.749  31.038  0.00  0.00    -0.275 OA
ATOM     17  N   UNL     1      15.525  -3.654  31.807  0.00  0.00    -0.276 N 
ATOM     18  C   UNL     1      15.774  -3.282  31.114  0.00  0.00    +0.115 C 
ATOM     19  C   UNL     1      16.150  -2.549  31.153  0.00  0.00    +0.114 C 
ATOM     20  N   UNL     1      16.276  -2.188  31.884  0.00  0.00    -0.290 N 
ATOM     21  C   UNL     1      16.027  -2.560  32.576  0.00  0.00    +0.114 C 
ATOM     22  C   UNL     1      15.652  -3.293  32.538  0.00  0.00    +0.115 C 
ATOM     23  C   UNL     1      16.652  -1.454  31.922  0.00  0.00    +0.132 A 
ATOM     24  N   UNL     1      16.902  -1.081  31.229  0.00  0.00    -0.229 NA
ATOM     25  C   UNL     1      17.278  -0.349  31.267  0.00  0.00    +0.100 A 
ATOM     26  C   UNL     1      17.404   0.013  31.999  0.00  0.00    +0.021 A 
ATOM     27  C   UNL     1      17.155  -0.359  32.691  0.00  0.00    +0.004 A 
ATOM     28  C   UNL     1      16.779  -1.093  32.654  0.00  0.00    +0.034 A 
ENDBRANCH  14  15
ENDBRANCH  13  14
TORSDOF 8
ENDMDL
MODEL 8
REMARK VINA RESULT:      -4.5     15.336     17.124
REMARK  Name = 
REMARK  8 active torsions:
REMARK  status: ('A' for Active; 'I' for Inactive)
REMARK    1  A    between atoms: O_2  and  C_3
REMARK    2  A    between atoms: C_3  and  C_4
REMARK    3  A    between atoms: C_4  and  C_5
REMARK    4  A    between atoms: N_7  and  C_8
REMARK    5  A    between atoms: C_8  and  C_9
REMARK    6  A    between atoms: C_13  and  C_14
REMARK    7  A    between atoms: C_14  and  C_15
REMARK    8  A    between atoms: C_30  and  C_31
REMARK                            x       y       z     vdW  Elec       q    Type
REMARK                         _______ _______ _______ _____ _____    ______ ____
ROOT
ATOM      9  C   UNL     1      -6.457  -9.398  11.211  0.00  0.00    +0.043 C 
ATOM     10  C   UNL     1      -7.110  -9.247  11.693  0.00  0.00    -0.033 C 
ATOM     11  C   UNL     1      -7.100  -9.474  12.485  0.00  0.00    -0.048 C 
ATOM     12  C   UNL     1      -7.753  -9.323  12.967  0.00  0.00    +0.026 C 
ATOM     13  C   UNL     1      -6.436  -9.852  12.797  0.00  0.00    +0.027 C 
ATOM     29  C   UNL     1      -5.783 -10.004  12.317  0.00  0.00    +0.005 C 
ATOM     30  C   UNL     1      -5.794  -9.776  11.523  0.00  0.00    +0.006 C 
ENDROOT
BRANCH  30  31
ATOM     31  C   UNL     1      -5.141  -9.928  11.043  0.00  0.00    +0.000 C 
ATOM     32  C   UNL     1      -5.071 -10.656  10.660  0.00  0.00    +0.000 C 
ATOM     33  C   UNL     1      -4.558  -9.353  10.945  0.00  0.00    +0.000 C 
ENDBRANCH  30  31
BRANCH   9   8
ATOM      8  C   UNL     1      -6.468  -9.171  10.419  0.00  0.00    +0.119 C 
BRANCH   8   7
ATOM      5  C   UNL     1      -7.096  -8.419   9.378  0.00  0.00    +0.244 C 
ATOM      6  O   UNL     1      -6.801  -8.949   8.818  0.00  0.00    -0.273 OA
ATOM      7  N   UNL     1      -6.929  -8.531  10.178  0.00  0.00    -0.205 NA
BRANCH   5   4
ATOM      4  C   UNL     1      -7.557  -7.779   9.138  0.00  0.00    +0.119 C 
BRANCH   4   3
ATOM      3  C   UNL     1      -8.211  -7.901   8.651  0.00  0.00    +0.152 C 
BRANCH   3   2
ATOM      1  C   UNL     1      -9.438  -7.379   8.137  0.00  0.00    +0.174 C 
ATOM      2  O   UNL     1      -8.667  -7.259   8.403  0.00  0.00    -0.351 OA
ENDBRANCH   3   2
ENDBRANCH   4   3
ENDBRANCH   5   4
ENDBRANCH   8   7
ENDBRANCH   9   8
BRANCH  13  14
ATOM     14  C   UNL     1      -6.426 -10.079  13.591  0.00  0.00    +0.089 C 
BRANCH  14  15
ATOM     15  C   UNL     1      -5.738  -9.988  14.036  0.00  0.00    +0.226 C 
ATOM     16  O   UNL     1      -5.031  -9.779  13.666  0.00  0.00    -0.275 OA
ATOM     17  N   UNL     1      -5.757 -10.105  14.853  0.00  0.00    -0.276 N 
ATOM     18  C   UNL     1      -5.068 -10.013  15.299  0.00  0.00    +0.115 C 
ATOM     19  C   UNL     1      -5.088 -10.130  16.115  0.00  0.00    +0.114 C 
ATOM     20  N   UNL     1      -5.795 -10.339  16.486  0.00  0.00    -0.290 N 
ATOM     21  C   UNL     1      -6.483 -10.430  16.040  0.00  0.00    +0.114 C 
ATOM     22  C   UNL     1      -6.464 -10.313  15.224  0.00  0.00    +0.115 C 
ATOM     23  C   UNL     1      -5.813 -10.456  17.302  0.00  0.00    +0.132 A 
ATOM     24  N   UNL     1      -5.126 -10.364  17.749  0.00  0.00    -0.229 NA
ATOM     25  C   UNL     1      -5.144 -10.481  18.565  0.00  0.00    +0.100 A 
ATOM     26  C   UNL     1      -5.852 -10.690  18.936  0.00  0.00    +0.021 A 
ATOM     27  C   UNL     1      -6.540 -10.781  18.490  0.00  0.00    +0.004 A 
ATOM     28  C   UNL     1      -6.521 -10.664  17.673  0.00  0.00    +0.034 A 
ENDBRANCH  14  15
ENDBRANCH  13  14
TORSDOF 8
ENDMDL
MODEL 9
REMARK VINA RESULT:      -4.5     17.577     18.744
REMARK  Name = 
REMARK  8 active torsions:
REMARK  status: ('A' for Active; 'I' for Inactive)
REMARK    1  A    between atoms: O_2  and  C_3
REMARK    2  A    between atoms: C_3  and  C_4
REMARK    3  A    between atoms: C_4  and  C_5
REMARK    4  A    between atoms: N_7  and  C_8
REMARK    5  A    between atoms: C_8  and  C_9
REMARK    6  A    between atoms: C_13  and  C_14
REMARK    7  A    between atoms: C_14  and  C_15
REMARK    8  A    between atoms: C_30  and  C_31
REMARK                            x       y       z     vdW  Elec       q    Type
REMARK                         _______ _______ _______ _____ _____    ______ ____
ROOT
ATOM      9  C   UNL     1      16.279  -6.504  26.820  0.00  0.00    +0.043 C 
ATOM     10  C   UNL     1      16.507  -5.981  27.417  0.00  0.00    -0.033 C 
ATOM     11  C   UNL     1      16.207  -6.069  28.179  0.00  0.00    -0.048 C 
ATOM     12  C   UNL     1      16.435  -5.547  28.776  0.00  0.00    +0.026 C 
ATOM     13  C   UNL     1      15.677  -6.679  28.346  0.00  0.00    +0.027 C 
ATOM     29  C   UNL     1      15.449  -7.202  27.751  0.00  0.00    +0.005 C 
ATOM     30  C   UNL     1      15.750  -7.114  26.987  0.00  0.00    +0.006 C 
ENDROOT
BRANCH  30  31
ATOM     31  C   UNL     1      15.521  -7.637  26.391  0.00  0.00    +0.000 C 
ATOM     32  C   UNL     1      15.978  -8.306  26.233  0.00  0.00    +0.000 C 
ATOM     33  C   UNL     1      14.837  -7.491  25.954  0.00  0.00    +0.000 C 
ENDBRANCH  30  31
BRANCH   9   8
ATOM      8  C   UNL     1      16.580  -6.416  26.057  0.00  0.00    +0.119 C 
BRANCH   8   7
ATOM      5  C   UNL     1      17.182  -5.593  25.056  0.00  0.00    +0.244 C 
ATOM      6  O   UNL     1      17.339  -6.263  24.600  0.00  0.00    -0.273 OA
ATOM      7  N   UNL     1      16.803  -5.670  25.784  0.00  0.00    -0.205 NA
BRANCH   5   4
ATOM      4  C   UNL     1      17.405  -4.847  24.783  0.00  0.00    +0.119 C 
BRANCH   4   3
ATOM      3  C   UNL     1      17.210  -4.613  24.017  0.00  0.00    +0.152 C 
BRANCH   3   2
ATOM      1  C   UNL     1      17.002  -3.559  23.075  0.00  0.00    +0.174 C 
ATOM      2  O   UNL     1      17.326  -3.830  23.783  0.00  0.00    -0.351 OA
ENDBRANCH   3   2
ENDBRANCH   4   3
ENDBRANCH   5   4
ENDBRANCH   8   7
ENDBRANCH   9   8
BRANCH  13  14
ATOM     14  C   UNL     1      15.376  -6.767  29.110  0.00  0.00    +0.089 C 
BRANCH  14  15
ATOM     15  C   UNL     1      15.232  -7.522  29.411  0.00  0.00    +0.226 C 
ATOM     16  O   UNL     1      15.776  -8.128  29.282  0.00  0.00    -0.275 OA
ATOM     17  N   UNL     1      14.544  -7.669  29.843  0.00  0.00    -0.276 N 
ATOM     18  C   UNL     1      14.401  -8.423  30.144  0.00  0.00    +0.115 C 
ATOM     19  C   UNL     1      13.713  -8.570  30.575  0.00  0.00    +0.114 C 
ATOM     20  N   UNL     1      13.169  -7.963  30.704  0.00  0.00    -0.290 N 
ATOM     21  C   UNL     1      13.313  -7.210  30.402  0.00  0.00    +0.114 C 
ATOM     22  C   UNL     1      14.000  -7.062  29.972  0.00  0.00    +0.115 C 
ATOM     23  C   UNL     1      12.481  -8.111  31.135  0.00  0.00    +0.132 A 
ATOM     24  N   UNL     1      12.336  -8.865  31.437  0.00  0.00    -0.229 NA
ATOM     25  C   UNL     1      11.649  -9.013  31.868  0.00  0.00    +0.100 A 
ATOM     26  C   UNL     1      11.104  -8.405  31.997  0.00  0.00    +0.021 A 
ATOM     27  C   UNL     1      11.248  -7.652  31.695  0.00  0.00    +0.004 A 
ATOM     28  C   UNL     1      11.936  -7.504  31.264  0.00  0.00    +0.034 A 
ENDBRANCH  14  15
ENDBRANCH  13  14
TORSDOF 8
ENDMDL
MODEL 10
REMARK VINA RESULT:      -4.4     16.450     18.943
REMARK  Name = 
REMARK  8 active torsions:
REMARK  status: ('A' for Active; 'I' for Inactive)
REMARK    1  A    between atoms: O_2  and  C_3
REMARK    2  A    between atoms: C_3  and  C_4
REMARK    3  A    between atoms: C_4  and  C_5
REMARK    4  A    between atoms: N_7  and  C_8
REMARK    5  A    between atoms: C_8  and  C_9
REMARK    6  A    between atoms: C_13  and  C_14
REMARK    7  A    between atoms: C_14  and  C_15
REMARK    8  A    between atoms: C_30  and  C_31
REMARK                            x       y       z     vdW  Elec       q    Type
REMARK                         _______ _______ _______ _____ _____    ______ ____
ROOT
ATOM      9  C   UNL     1      11.992  -7.585  31.278  0.00  0.00    +0.043 C 
ATOM     10  C   UNL     1      12.302  -8.319  31.062  0.00  0.00    -0.033 C 
ATOM     11  C   UNL     1      12.964  -8.359  30.572  0.00  0.00    -0.048 C 
ATOM     12  C   UNL     1      13.274  -9.092  30.356  0.00  0.00    +0.026 C 
ATOM     13  C   UNL     1      13.315  -7.666  30.296  0.00  0.00    +0.027 C 
ATOM     29  C   UNL     1      13.006  -6.932  30.511  0.00  0.00    +0.005 C 
ATOM     30  C   UNL     1      12.344  -6.892  31.002  0.00  0.00    +0.006 C 
ENDROOT
BRANCH  30  31
ATOM     31  C   UNL     1      12.034  -6.158  31.217  0.00  0.00    +0.000 C 
ATOM     32  C   UNL     1      12.240  -5.820  31.942  0.00  0.00    +0.000 C 
ATOM     33  C   UNL     1      11.520  -5.761  30.709  0.00  0.00    +0.000 C 
ENDBRANCH  30  31
BRANCH   9   8
ATOM      8  C   UNL     1      11.331  -7.545  31.768  0.00  0.00    +0.119 C 
BRANCH   8   7
ATOM      5  C   UNL     1      10.173  -8.171  32.325  0.00  0.00    +0.244 C 
ATOM      6  O   UNL     1       9.882  -7.433  32.550  0.00  0.00    -0.273 OA
ATOM      7  N   UNL     1      10.897  -8.227  31.935  0.00  0.00    -0.205 NA
BRANCH   5   4
ATOM      4  C   UNL     1       9.740  -8.853  32.492  0.00  0.00    +0.119 C 
BRANCH   4   3
ATOM      3  C   UNL     1       8.920  -8.813  32.568  0.00  0.00    +0.152 C 
BRANCH   3   2
ATOM      1  C   UNL     1       7.861  -9.723  32.873  0.00  0.00    +0.174 C 
ATOM      2  O   UNL     1       8.453  -9.462  32.363  0.00  0.00    -0.351 OA
ENDBRANCH   3   2
ENDBRANCH   4   3
ENDBRANCH   5   4
ENDBRANCH   8   7
ENDBRANCH   9   8
BRANCH  13  14
ATOM     14  C   UNL     1      13.978  -7.706  29.805  0.00  0.00    +0.089 C 
BRANCH  14  15
ATOM     15  C   UNL     1      14.588  -7.158  29.891  0.00  0.00    +0.226 C 
ATOM     16  O   UNL     1      14.758  -6.842  30.634  0.00  0.00    -0.275 OA
ATOM     17  N   UNL     1      15.030  -6.925  29.233  0.00  0.00    -0.276 N 
ATOM     18  C   UNL     1      15.640  -6.377  29.320  0.00  0.00    +0.115 C 
ATOM     19  C   UNL     1      16.081  -6.145  28.662  0.00  0.00    +0.114 C 
ATOM     20  N   UNL     1      15.911  -6.461  27.919  0.00  0.00    -0.290 N 
ATOM     21  C   UNL     1      15.301  -7.009  27.833  0.00  0.00    +0.114 C 
ATOM     22  C   UNL     1      14.860  -7.241  28.490  0.00  0.00    +0.115 C 
ATOM     23  C   UNL     1      16.353  -6.228  27.262  0.00  0.00    +0.132 A 
ATOM     24  N   UNL     1      16.964  -5.680  27.347  0.00  0.00    -0.229 NA
ATOM     25  C   UNL     1      17.404  -5.448  26.690  0.00  0.00    +0.100 A 
ATOM     26  C   UNL     1      17.235  -5.764  25.946  0.00  0.00    +0.021 A 
ATOM     27  C   UNL     1      16.624  -6.311  25.861  0.00  0.00    +0.004 A 
ATOM     28  C   UNL     1      16.183  -6.544  26.518  0.00  0.00    +0.034 A 
ENDBRANCH  14  15
ENDBRANCH  13  14
TORSDOF 8
ENDMDL
