MODEL 1
REMARK VINA RESULT:      -8.2      0.000      0.000
REMARK  Name = 
REMARK  6 active torsions:
REMARK  status: ('A' for Active; 'I' for Inactive)
REMARK    1  A    between atoms: C_2  and  C_3
REMARK    2  A    between atoms: C_4  and  C_16
REMARK    3  A    between atoms: N_9  and  C_10
REMARK    4  A    between atoms: C_19  and  N_20
REMARK    5  A    between atoms: C_21  and  C_23
REMARK    6  A    between atoms: C_26  and  C_29
REMARK                            x       y       z     vdW  Elec       q    Type
REMARK                         _______ _______ _______ _____ _____    ______ ____
ROOT
ATOM     16  C   UNL     1      -2.135   1.019  24.289  0.00  0.00    +0.006 A 
ATOM     17  C   UNL     1      -1.868   1.328  23.572  0.00  0.00    -0.001 A 
ATOM     18  C   UNL     1      -1.061   1.335  23.400  0.00  0.00    +0.016 A 
ATOM     19  C   UNL     1      -0.520   1.033  23.946  0.00  0.00    +0.074 A 
ATOM     31  C   UNL     1      -0.787   0.724  24.663  0.00  0.00    +0.016 A 
ATOM     32  C   UNL     1      -1.595   0.717  24.834  0.00  0.00    -0.001 A 
ENDROOT
BRANCH  16   4
ATOM      3  C   UNL     1      -3.325   1.711  24.670  0.00  0.00    +0.139 C 
ATOM      4  C   UNL     1      -2.942   1.012  24.459  0.00  0.00    +0.159 C 
ATOM      5  O   UNL     1      -3.366   0.305  24.419  0.00  0.00    -0.341 OA
ATOM      6  C   UNL     1      -4.173   0.298  24.590  0.00  0.00    +0.227 C 
ATOM      7  C   UNL     1      -4.556   0.997  24.800  0.00  0.00    +0.256 C 
ATOM      8  O   UNL     1      -5.363   0.990  24.971  0.00  0.00    -0.272 OA
ATOM      9  N   UNL     1      -4.132   1.704  24.840  0.00  0.00    -0.275 N 
BRANCH   9  10
ATOM     10  C   UNL     1      -4.516   2.404  25.051  0.00  0.00    +0.081 C 
ATOM     11  C   UNL     1      -4.674   2.977  24.479  0.00  0.00    +0.052 C 
ATOM     12  C   UNL     1      -5.058   3.675  24.690  0.00  0.00    +0.144 C 
ATOM     13  O   UNL     1      -5.284   3.802  25.473  0.00  0.00    -0.354 OA
ATOM     14  C   UNL     1      -5.126   3.229  26.046  0.00  0.00    +0.144 C 
ATOM     15  C   UNL     1      -4.741   2.530  25.834  0.00  0.00    +0.052 C 
ENDBRANCH   9  10
BRANCH   3   2
ATOM      1  O   UNL     1      -2.543   2.645  25.417  0.00  0.00    -0.218 OA
ATOM      2  C   UNL     1      -2.901   2.418  24.710  0.00  0.00    +0.205 C 
ENDBRANCH   3   2
ENDBRANCH  16   4
BRANCH  19  20
ATOM     20  N   UNL     1       0.286   1.040  23.774  0.00  0.00    -0.175 NA
ATOM     21  C   UNL     1       0.614   0.444  23.308  0.00  0.00    +0.269 C 
ATOM     22  O   UNL     1       0.136  -0.160  23.013  0.00  0.00    -0.268 OA
BRANCH  21  23
ATOM     23  C   UNL     1       1.422   0.452  23.137  0.00  0.00    +0.055 A 
ATOM     24  C   UNL     1       1.749  -0.142  22.667  0.00  0.00    +0.005 A 
ATOM     25  C   UNL     1       2.556  -0.134  22.495  0.00  0.00    +0.010 A 
ATOM     26  C   UNL     1       3.036   0.467  22.794  0.00  0.00    +0.068 A 
ATOM     27  C   UNL     1       2.708   1.061  23.264  0.00  0.00    +0.010 A 
ATOM     28  C   UNL     1       1.901   1.053  23.435  0.00  0.00    +0.005 A 
BRANCH  26  29
ATOM     29  C   UNL     1       3.842   0.475  22.622  0.00  0.00    +0.100 C 
ATOM     30  N   UNL     1       4.650   0.483  22.451  0.00  0.00    -0.191 NA
ENDBRANCH  26  29
ENDBRANCH  21  23
ENDBRANCH  19  20
TORSDOF 6
ENDMDL
MODEL 2
REMARK VINA RESULT:      -8.0      1.117      1.984
REMARK  Name = 
REMARK  6 active torsions:
REMARK  status: ('A' for Active; 'I' for Inactive)
REMARK    1  A    between atoms: C_2  and  C_3
REMARK    2  A    between atoms: C_4  and  C_16
REMARK    3  A    between atoms: N_9  and  C_10
REMARK    4  A    between atoms: C_19  and  N_20
REMARK    5  A    between atoms: C_21  and  C_23
REMARK    6  A    between atoms: C_26  and  C_29
REMARK                            x       y       z     vdW  Elec       q    Type
REMARK                         _______ _______ _______ _____ _____    ______ ____
ROOT
ATOM     16  C   UNL     1      -2.620   2.843  24.710  0.00  0.00    +0.006 A 
ATOM     17  C   UNL     1      -2.518   2.692  23.905  0.00  0.00    -0.001 A 
ATOM     18  C   UNL     1      -1.798   2.402  23.628  0.00  0.00    +0.016 A 
ATOM     19  C   UNL     1      -1.179   2.262  24.156  0.00  0.00    +0.074 A 
ATOM     31  C   UNL     1      -1.281   2.413  24.961  0.00  0.00    +0.016 A 
ATOM     32  C   UNL     1      -2.002   2.704  25.237  0.00  0.00    -0.001 A 
ENDROOT
BRANCH  16   4
ATOM      3  C   UNL     1      -3.995   2.635  25.039  0.00  0.00    +0.139 C 
ATOM      4  C   UNL     1      -3.341   3.134  24.986  0.00  0.00    +0.159 C 
ATOM      5  O   UNL     1      -3.408   3.927  25.210  0.00  0.00    -0.341 OA
ATOM      6  C   UNL     1      -4.128   4.218  25.486  0.00  0.00    +0.227 C 
ATOM      7  C   UNL     1      -4.782   3.718  25.539  0.00  0.00    +0.256 C 
ATOM      8  O   UNL     1      -5.503   4.009  25.815  0.00  0.00    -0.272 OA
ATOM      9  N   UNL     1      -4.715   2.926  25.315  0.00  0.00    -0.275 N 
BRANCH   9  10
ATOM     10  C   UNL     1      -5.370   2.426  25.369  0.00  0.00    +0.081 C 
ATOM     11  C   UNL     1      -5.609   2.134  26.103  0.00  0.00    +0.052 C 
ATOM     12  C   UNL     1      -6.263   1.635  26.155  0.00  0.00    +0.144 C 
ATOM     13  O   UNL     1      -6.679   1.427  25.474  0.00  0.00    -0.354 OA
ATOM     14  C   UNL     1      -6.441   1.718  24.740  0.00  0.00    +0.144 C 
ATOM     15  C   UNL     1      -5.786   2.218  24.687  0.00  0.00    +0.052 C 
ENDBRANCH   9  10
BRANCH   3   2
ATOM      1  O   UNL     1      -3.734   1.271  25.377  0.00  0.00    -0.218 OA
ATOM      2  C   UNL     1      -3.928   1.843  24.816  0.00  0.00    +0.205 C 
ENDBRANCH   3   2
ENDBRANCH  16   4
BRANCH  19  20
ATOM     20  N   UNL     1      -0.458   1.971  23.878  0.00  0.00    -0.175 NA
ATOM     21  C   UNL     1      -0.312   1.160  23.881  0.00  0.00    +0.269 C 
ATOM     22  O   UNL     1      -0.886   0.638  24.161  0.00  0.00    -0.268 OA
BRANCH  21  23
ATOM     23  C   UNL     1       0.409   0.870  23.603  0.00  0.00    +0.055 A 
ATOM     24  C   UNL     1       0.435   0.156  23.190  0.00  0.00    +0.005 A 
ATOM     25  C   UNL     1       1.155  -0.134  22.912  0.00  0.00    +0.010 A 
ATOM     26  C   UNL     1       1.850   0.289  23.048  0.00  0.00    +0.068 A 
ATOM     27  C   UNL     1       1.825   1.003  23.461  0.00  0.00    +0.010 A 
ATOM     28  C   UNL     1       1.104   1.293  23.739  0.00  0.00    +0.005 A 
BRANCH  26  29
ATOM     29  C   UNL     1       2.571  -0.001  22.771  0.00  0.00    +0.100 C 
ATOM     30  N   UNL     1       3.292  -0.291  22.493  0.00  0.00    -0.191 NA
ENDBRANCH  26  29
ENDBRANCH  21  23
ENDBRANCH  19  20
TORSDOF 6
ENDMDL
MODEL 3
REMARK VINA RESULT:      -7.1      1.616      2.394
REMARK  Name = 
REMARK  6 active torsions:
REMARK  status: ('A' for Active; 'I' for Inactive)
REMARK    1  A    between atoms: C_2  and  C_3
REMARK    2  A    between atoms: C_4  and  C_16
REMARK    3  A    between atoms: N_9  and  C_10
REMARK    4  A    between atoms: C_19  and  N_20
REMARK    5  A    between atoms: C_21  and  C_23
REMARK    6  A    between atoms: C_26  and  C_29
REMARK                            x       y       z     vdW  Elec       q    Type
REMARK                         _______ _______ _______ _____ _____    ______ ____
ROOT
ATOM     16  C   UNL     1      -0.717   1.136  23.683  0.00  0.00    +0.006 A 
ATOM     17  C   UNL     1      -0.243   1.646  24.126  0.00  0.00    -0.001 A 
ATOM     18  C   UNL     1       0.575   1.542  24.139  0.00  0.00    +0.016 A 
ATOM     19  C   UNL     1       0.919   0.927  23.708  0.00  0.00    +0.074 A 
ATOM     31  C   UNL     1       0.445   0.417  23.265  0.00  0.00    +0.016 A 
ATOM     32  C   UNL     1      -0.373   0.523  23.253  0.00  0.00    -0.001 A 
ENDROOT
BRANCH  16   4
ATOM      3  C   UNL     1      -2.029   0.683  24.023  0.00  0.00    +0.139 C 
ATOM      4  C   UNL     1      -1.536   1.241  23.671  0.00  0.00    +0.159 C 
ATOM      5  O   UNL     1      -1.860   1.907  23.305  0.00  0.00    -0.341 OA
ATOM      6  C   UNL     1      -2.678   2.012  23.293  0.00  0.00    +0.227 C 
ATOM      7  C   UNL     1      -3.171   1.454  23.645  0.00  0.00    +0.256 C 
ATOM      8  O   UNL     1      -3.990   1.559  23.633  0.00  0.00    -0.272 OA
ATOM      9  N   UNL     1      -2.846   0.788  24.011  0.00  0.00    -0.275 N 
BRANCH   9  10
ATOM     10  C   UNL     1      -3.341   0.230  24.364  0.00  0.00    +0.081 C 
ATOM     11  C   UNL     1      -3.590   0.331  25.144  0.00  0.00    +0.052 C 
ATOM     12  C   UNL     1      -4.083  -0.227  25.496  0.00  0.00    +0.144 C 
ATOM     13  O   UNL     1      -4.329  -0.888  25.068  0.00  0.00    -0.354 OA
ATOM     14  C   UNL     1      -4.081  -0.991  24.288  0.00  0.00    +0.144 C 
ATOM     15  C   UNL     1      -3.586  -0.432  23.936  0.00  0.00    +0.052 C 
ENDBRANCH   9  10
BRANCH   3   2
ATOM      1  O   UNL     1      -1.499   0.045  25.187  0.00  0.00    -0.218 OA
ATOM      2  C   UNL     1      -1.704   0.018  24.389  0.00  0.00    +0.205 C 
ENDBRANCH   3   2
ENDBRANCH  16   4
BRANCH  19  20
ATOM     20  N   UNL     1       1.738   0.823  23.721  0.00  0.00    -0.175 NA
ATOM     21  C   UNL     1       2.119   0.475  23.079  0.00  0.00    +0.269 C 
ATOM     22  O   UNL     1       1.684   0.231  22.422  0.00  0.00    -0.268 OA
BRANCH  21  23
ATOM     23  C   UNL     1       2.938   0.371  23.092  0.00  0.00    +0.055 A 
ATOM     24  C   UNL     1       3.259  -0.345  23.346  0.00  0.00    +0.005 A 
ATOM     25  C   UNL     1       4.077  -0.448  23.360  0.00  0.00    +0.010 A 
ATOM     26  C   UNL     1       4.575   0.164  23.118  0.00  0.00    +0.068 A 
ATOM     27  C   UNL     1       4.254   0.880  22.864  0.00  0.00    +0.010 A 
ATOM     28  C   UNL     1       3.435   0.984  22.851  0.00  0.00    +0.005 A 
BRANCH  26  29
ATOM     29  C   UNL     1       5.393   0.061  23.132  0.00  0.00    +0.100 C 
ATOM     30  N   UNL     1       6.212  -0.043  23.145  0.00  0.00    -0.191 NA
ENDBRANCH  26  29
ENDBRANCH  21  23
ENDBRANCH  19  20
TORSDOF 6
ENDMDL
MODEL 4
REMARK VINA RESULT:      -6.2      2.862      5.023
REMARK  Name = 
REMARK  6 active torsions:
REMARK  status: ('A' for Active; 'I' for Inactive)
REMARK    1  A    between atoms: C_2  and  C_3
REMARK    2  A    between atoms: C_4  and  C_16
REMARK    3  A    between atoms: N_9  and  C_10
REMARK    4  A    between atoms: C_19  and  N_20
REMARK    5  A    between atoms: C_21  and  C_23
REMARK    6  A    between atoms: C_26  and  C_29
REMARK                            x       y       z     vdW  Elec       q    Type
REMARK                         _______ _______ _______ _____ _____    ______ ____
ROOT
ATOM     16  C   UNL     1      -1.127   0.065  24.859  0.00  0.00    +0.006 A 
ATOM     17  C   UNL     1      -1.213   0.477  24.150  0.00  0.00    -0.001 A 
ATOM     18  C   UNL     1      -1.188   1.301  24.145  0.00  0.00    +0.016 A 
ATOM     19  C   UNL     1      -1.077   1.714  24.851  0.00  0.00    +0.074 A 
ATOM     31  C   UNL     1      -0.992   1.302  25.561  0.00  0.00    +0.016 A 
ATOM     32  C   UNL     1      -1.017   0.477  25.564  0.00  0.00    -0.001 A 
ENDROOT
BRANCH  16   4
ATOM      3  C   UNL     1      -1.871  -1.152  24.763  0.00  0.00    +0.139 C 
ATOM      4  C   UNL     1      -1.152  -0.760  24.863  0.00  0.00    +0.159 C 
ATOM      5  O   UNL     1      -0.457  -1.193  24.967  0.00  0.00    -0.341 OA
ATOM      6  C   UNL     1      -0.481  -2.017  24.970  0.00  0.00    +0.227 C 
ATOM      7  C   UNL     1      -1.200  -2.409  24.870  0.00  0.00    +0.256 C 
ATOM      8  O   UNL     1      -1.225  -3.234  24.873  0.00  0.00    -0.272 OA
ATOM      9  N   UNL     1      -1.895  -1.976  24.766  0.00  0.00    -0.275 N 
BRANCH   9  10
ATOM     10  C   UNL     1      -2.614  -2.368  24.666  0.00  0.00    +0.081 C 
ATOM     11  C   UNL     1      -2.919  -2.486  23.908  0.00  0.00    +0.052 C 
ATOM     12  C   UNL     1      -3.637  -2.878  23.809  0.00  0.00    +0.144 C 
ATOM     13  O   UNL     1      -4.052  -3.154  24.467  0.00  0.00    -0.354 OA
ATOM     14  C   UNL     1      -3.747  -3.037  25.225  0.00  0.00    +0.144 C 
ATOM     15  C   UNL     1      -3.028  -2.644  25.324  0.00  0.00    +0.052 C 
ENDBRANCH   9  10
BRANCH   3   2
ATOM      1  O   UNL     1      -3.026  -0.514  25.312  0.00  0.00    -0.218 OA
ATOM      2  C   UNL     1      -2.565  -0.719  24.659  0.00  0.00    +0.205 C 
ENDBRANCH   3   2
ENDBRANCH  16   4
BRANCH  19  20
ATOM     20  N   UNL     1      -1.052   2.538  24.846  0.00  0.00    -0.175 NA
ATOM     21  C   UNL     1      -1.712   2.972  25.082  0.00  0.00    +0.269 C 
ATOM     22  O   UNL     1      -2.398   2.583  25.324  0.00  0.00    -0.268 OA
BRANCH  21  23
ATOM     23  C   UNL     1      -1.687   3.798  25.078  0.00  0.00    +0.055 A 
ATOM     24  C   UNL     1      -2.379   4.233  25.191  0.00  0.00    +0.005 A 
ATOM     25  C   UNL     1      -2.353   5.056  25.186  0.00  0.00    +0.010 A 
ATOM     26  C   UNL     1      -1.636   5.447  25.068  0.00  0.00    +0.068 A 
ATOM     27  C   UNL     1      -0.944   5.012  24.954  0.00  0.00    +0.010 A 
ATOM     28  C   UNL     1      -0.969   4.187  24.959  0.00  0.00    +0.005 A 
BRANCH  26  29
ATOM     29  C   UNL     1      -1.610   6.271  25.063  0.00  0.00    +0.100 C 
ATOM     30  N   UNL     1      -1.584   7.096  25.057  0.00  0.00    -0.191 NA
ENDBRANCH  26  29
ENDBRANCH  21  23
ENDBRANCH  19  20
TORSDOF 6
ENDMDL
