REMARK  Name = 
REMARK  5 active torsions:
REMARK  status: ('A' for Active; 'I' for Inactive)
REMARK    1  A    between atoms: C_1  and  N_2
REMARK    2  A    between atoms: C_1  and  C_24
REMARK    3  A    between atoms: C_6  and  C_7
REMARK    4  A    between atoms: C_9  and  C_12
REMARK    5  A    between atoms: C_15  and  C_18
REMARK                            x       y       z     vdW  Elec       q    Type
REMARK                         _______ _______ _______ _____ _____    ______ ____
ROOT
ATOM      7  C   UNL     1       0.585  -1.529   0.000  0.00  0.00    +0.251 A 
ATOM      8  N   UNL     1      -0.083  -2.014   0.000  0.00  0.00    -0.190 NA
ATOM      9  C   UNL     1      -0.750  -1.529   0.000  0.00  0.00    +0.205 A 
ATOM     10  N   UNL     1      -0.495  -0.745   0.000  0.00  0.00    -0.056 NA
ATOM     11  O   UNL     1       0.330  -0.745   0.000  0.00  0.00    -0.336 OA
ENDROOT
BRANCH   9  12
ATOM     12  C   UNL     1      -1.535  -1.784   0.000  0.00  0.00    +0.058 A 
ATOM     13  C   UNL     1      -1.706  -2.591   0.000  0.00  0.00    +0.006 A 
ATOM     14  C   UNL     1      -2.491  -2.846   0.000  0.00  0.00    +0.019 A 
ATOM     15  C   UNL     1      -3.104  -2.294   0.000  0.00  0.00    +0.084 A 
ATOM     16  N   UNL     1      -2.933  -1.487   0.000  0.00  0.00    -0.244 NA
ATOM     17  C   UNL     1      -2.148  -1.232   0.000  0.00  0.00    +0.102 A 
BRANCH  15  18
ATOM     18  C   UNL     1      -3.889  -2.549   0.000  0.00  0.00    +0.056 A 
ATOM     19  C   UNL     1      -4.060  -3.356   0.000  0.00  0.00    +0.104 A 
ATOM     20  N   UNL     1      -4.845  -3.611   0.000  0.00  0.00    -0.222 NA
ATOM     21  C   UNL     1      -5.458  -3.059   0.000  0.00  0.00    +0.199 A 
ATOM     22  N   UNL     1      -5.286  -2.252   0.000  0.00  0.00    -0.222 NA
ATOM     23  C   UNL     1      -4.502  -1.997   0.000  0.00  0.00    +0.104 A 
ENDBRANCH  15  18
ENDBRANCH   9  12
BRANCH   7   6
ATOM      2  N   UNL     1       2.037  -1.299   0.000  0.00  0.00    -0.261 NA
ATOM      3  C   UNL     1       2.704  -1.784   0.000  0.00  0.00    +0.073 C 
ATOM      4  C   UNL     1       2.449  -2.569   0.000  0.00  0.00    +0.019 C 
ATOM      5  C   UNL     1       1.624  -2.569   0.000  0.00  0.00    +0.027 C 
ATOM      6  C   UNL     1       1.369  -1.784   0.000  0.00  0.00    +0.138 C 
BRANCH   2   1
ATOM      1  C   UNL     1       2.037  -0.474   0.000  0.00  0.00    +0.119 C 
BRANCH   1  24
ATOM     24  C   UNL     1       2.751  -0.062   0.000  0.00  0.00    +0.075 A 
ATOM     25  N   UNL     1       2.751   0.763   0.000  0.00  0.00    -0.247 NA
ATOM     26  C   UNL     1       3.466   1.176   0.000  0.00  0.00    +0.098 A 
ATOM     27  C   UNL     1       4.180   0.763   0.000  0.00  0.00    +0.021 A 
ATOM     28  C   UNL     1       4.180  -0.062   0.000  0.00  0.00    +0.003 A 
ATOM     29  C   UNL     1       3.466  -0.474   0.000  0.00  0.00    +0.016 A 
ENDBRANCH   1  24
ENDBRANCH   2   1
ENDBRANCH   7   6
TORSDOF 5
