MODEL 1
REMARK VINA RESULT:     -10.8      0.000      0.000
REMARK  Name = 
REMARK  3 active torsions:
REMARK  status: ('A' for Active; 'I' for Inactive)
REMARK    1  A    between atoms: C_2  and  C_3
REMARK    2  A    between atoms: N_13  and  C_14
REMARK    3  A    between atoms: C_14  and  C_15
REMARK                            x       y       z     vdW  Elec       q    Type
REMARK                         _______ _______ _______ _____ _____    ______ ____
ROOT
ATOM      1  O   UNL     1      -2.937   0.226  23.702  0.00  0.00    -0.275 OA
ATOM      2  C   UNL     1      -3.601   0.063  24.163  0.00  0.00    +0.225 C 
ATOM      6  N   UNL     1      -4.040   0.681  24.489  0.00  0.00    -0.275 N 
ATOM      7  C   UNL     1      -4.714   0.602  24.958  0.00  0.00    +0.125 C 
ATOM      8  C   UNL     1      -4.972   1.358  25.162  0.00  0.00    +0.155 C 
ATOM      9  O   UNL     1      -5.609   1.621  25.616  0.00  0.00    -0.343 OA
ATOM     10  C   UNL     1      -5.731   2.429  25.727  0.00  0.00    +0.227 C 
ATOM     11  C   UNL     1      -5.217   2.975  25.384  0.00  0.00    +0.256 C 
ATOM     12  O   UNL     1      -5.339   3.784  25.495  0.00  0.00    -0.272 OA
ATOM     13  N   UNL     1      -4.580   2.713  24.930  0.00  0.00    -0.271 N 
ATOM     21  C   UNL     1      -4.457   1.904  24.819  0.00  0.00    +0.124 C 
ATOM     22  C   UNL     1      -3.882   1.486  24.403  0.00  0.00    +0.116 C 
ENDROOT
BRANCH   2   3
ATOM      3  C   UNL     1      -3.828  -0.720  24.297  0.00  0.00    +0.077 C 
ATOM      4  C   UNL     1      -4.256  -1.388  24.073  0.00  0.00    +0.010 C 
ATOM      5  C   UNL     1      -3.791  -1.406  24.754  0.00  0.00    +0.010 C 
ENDBRANCH   2   3
BRANCH  13  14
ATOM     14  C   UNL     1      -4.065   3.259  24.587  0.00  0.00    +0.122 C 
BRANCH  14  15
ATOM     15  C   UNL     1      -3.416   3.539  25.013  0.00  0.00    +0.017 A 
ATOM     16  C   UNL     1      -2.661   3.507  24.682  0.00  0.00    +0.001 A 
ATOM     17  C   UNL     1      -2.012   3.786  25.108  0.00  0.00    +0.020 A 
ATOM     18  C   UNL     1      -2.118   4.097  25.865  0.00  0.00    +0.099 A 
ATOM     19  N   UNL     1      -2.873   4.128  26.196  0.00  0.00    -0.243 NA
ATOM     20  C   UNL     1      -3.522   3.849  25.769  0.00  0.00    +0.096 A 
ENDBRANCH  14  15
ENDBRANCH  13  14
TORSDOF 3
ENDMDL
MODEL 2
REMARK VINA RESULT:     -10.7      1.499      2.433
REMARK  Name = 
REMARK  3 active torsions:
REMARK  status: ('A' for Active; 'I' for Inactive)
REMARK    1  A    between atoms: C_2  and  C_3
REMARK    2  A    between atoms: N_13  and  C_14
REMARK    3  A    between atoms: C_14  and  C_15
REMARK                            x       y       z     vdW  Elec       q    Type
REMARK                         _______ _______ _______ _____ _____    ______ ____
ROOT
ATOM      1  O   UNL     1      -4.660  -1.202  24.055  0.00  0.00    -0.275 OA
ATOM      2  C   UNL     1      -3.900  -1.205  24.375  0.00  0.00    +0.225 C 
ATOM      6  N   UNL     1      -3.497  -0.495  24.491  0.00  0.00    -0.275 N 
ATOM      7  C   UNL     1      -2.738  -0.413  24.805  0.00  0.00    +0.125 C 
ATOM      8  C   UNL     1      -2.555   0.391  24.822  0.00  0.00    +0.155 C 
ATOM      9  O   UNL     1      -1.884   0.799  25.074  0.00  0.00    -0.343 OA
ATOM     10  C   UNL     1      -1.858   1.622  25.024  0.00  0.00    +0.227 C 
ATOM     11  C   UNL     1      -2.503   2.037  24.721  0.00  0.00    +0.256 C 
ATOM     12  O   UNL     1      -2.478   2.861  24.671  0.00  0.00    -0.272 OA
ATOM     13  N   UNL     1      -3.175   1.630  24.469  0.00  0.00    -0.271 N 
ATOM     21  C   UNL     1      -3.200   0.806  24.519  0.00  0.00    +0.124 C 
ATOM     22  C   UNL     1      -3.783   0.259  24.315  0.00  0.00    +0.116 C 
ENDROOT
BRANCH   2   3
ATOM      3  C   UNL     1      -3.542  -1.921  24.579  0.00  0.00    +0.077 C 
ATOM      4  C   UNL     1      -3.067  -2.564  24.378  0.00  0.00    +0.010 C 
ATOM      5  C   UNL     1      -3.397  -2.515  25.132  0.00  0.00    +0.010 C 
ENDBRANCH   2   3
BRANCH  13  14
ATOM     14  C   UNL     1      -3.820   2.045  24.167  0.00  0.00    +0.122 C 
BRANCH  14  15
ATOM     15  C   UNL     1      -4.380   2.367  24.680  0.00  0.00    +0.017 A 
ATOM     16  C   UNL     1      -5.138   2.043  24.718  0.00  0.00    +0.001 A 
ATOM     17  C   UNL     1      -5.699   2.364  25.231  0.00  0.00    +0.020 A 
ATOM     18  C   UNL     1      -5.501   3.009  25.706  0.00  0.00    +0.099 A 
ATOM     19  N   UNL     1      -4.743   3.333  25.668  0.00  0.00    -0.243 NA
ATOM     20  C   UNL     1      -4.183   3.011  25.155  0.00  0.00    +0.096 A 
ENDBRANCH  14  15
ENDBRANCH  13  14
TORSDOF 3
ENDMDL
MODEL 3
REMARK VINA RESULT:     -10.3      1.487      4.536
REMARK  Name = 
REMARK  3 active torsions:
REMARK  status: ('A' for Active; 'I' for Inactive)
REMARK    1  A    between atoms: C_2  and  C_3
REMARK    2  A    between atoms: N_13  and  C_14
REMARK    3  A    between atoms: C_14  and  C_15
REMARK                            x       y       z     vdW  Elec       q    Type
REMARK                         _______ _______ _______ _____ _____    ______ ____
ROOT
ATOM      1  O   UNL     1      -5.121   1.928  24.568  0.00  0.00    -0.275 OA
ATOM      2  C   UNL     1      -4.327   2.137  24.489  0.00  0.00    +0.225 C 
ATOM      6  N   UNL     1      -3.736   1.591  24.671  0.00  0.00    -0.275 N 
ATOM      7  C   UNL     1      -2.923   1.721  24.619  0.00  0.00    +0.125 C 
ATOM      8  C   UNL     1      -2.539   1.029  24.852  0.00  0.00    +0.155 C 
ATOM      9  O   UNL     1      -1.740   0.834  24.911  0.00  0.00    -0.343 OA
ATOM     10  C   UNL     1      -1.516   0.083  25.166  0.00  0.00    +0.227 C 
ATOM     11  C   UNL     1      -2.092  -0.475  25.362  0.00  0.00    +0.256 C 
ATOM     12  O   UNL     1      -1.868  -1.227  25.618  0.00  0.00    -0.272 OA
ATOM     13  N   UNL     1      -2.891  -0.281  25.303  0.00  0.00    -0.271 N 
ATOM     21  C   UNL     1      -3.115   0.472  25.048  0.00  0.00    +0.124 C 
ATOM     22  C   UNL     1      -3.855   0.819  24.936  0.00  0.00    +0.116 C 
ENDROOT
BRANCH   2   3
ATOM      3  C   UNL     1      -4.124   2.894  24.228  0.00  0.00    +0.077 C 
ATOM      4  C   UNL     1      -3.924   3.408  23.616  0.00  0.00    +0.010 C 
ATOM      5  C   UNL     1      -3.973   3.688  24.390  0.00  0.00    +0.010 C 
ENDBRANCH   2   3
BRANCH  13  14
ATOM     14  C   UNL     1      -3.467  -0.838  25.499  0.00  0.00    +0.122 C 
BRANCH  14  15
ATOM     15  C   UNL     1      -3.634  -1.458  24.981  0.00  0.00    +0.017 A 
ATOM     16  C   UNL     1      -4.117  -1.327  24.325  0.00  0.00    +0.001 A 
ATOM     17  C   UNL     1      -4.285  -1.946  23.806  0.00  0.00    +0.020 A 
ATOM     18  C   UNL     1      -3.969  -2.696  23.943  0.00  0.00    +0.099 A 
ATOM     19  N   UNL     1      -3.486  -2.827  24.599  0.00  0.00    -0.243 NA
ATOM     20  C   UNL     1      -3.318  -2.207  25.117  0.00  0.00    +0.096 A 
ENDBRANCH  14  15
ENDBRANCH  13  14
TORSDOF 3
ENDMDL
MODEL 4
REMARK VINA RESULT:     -10.2      1.054      3.609
REMARK  Name = 
REMARK  3 active torsions:
REMARK  status: ('A' for Active; 'I' for Inactive)
REMARK    1  A    between atoms: C_2  and  C_3
REMARK    2  A    between atoms: N_13  and  C_14
REMARK    3  A    between atoms: C_14  and  C_15
REMARK                            x       y       z     vdW  Elec       q    Type
REMARK                         _______ _______ _______ _____ _____    ______ ____
ROOT
ATOM      1  O   UNL     1      -1.495   2.990  24.054  0.00  0.00    -0.275 OA
ATOM      2  C   UNL     1      -1.900   3.448  24.609  0.00  0.00    +0.225 C 
ATOM      6  N   UNL     1      -2.677   3.260  24.811  0.00  0.00    -0.275 N 
ATOM      7  C   UNL     1      -3.148   3.665  25.355  0.00  0.00    +0.125 C 
ATOM      8  C   UNL     1      -3.882   3.289  25.385  0.00  0.00    +0.155 C 
ATOM      9  O   UNL     1      -4.564   3.445  25.822  0.00  0.00    -0.343 OA
ATOM     10  C   UNL     1      -5.228   2.964  25.736  0.00  0.00    +0.227 C 
ATOM     11  C   UNL     1      -5.211   2.327  25.212  0.00  0.00    +0.256 C 
ATOM     12  O   UNL     1      -5.876   1.845  25.125  0.00  0.00    -0.272 OA
ATOM     13  N   UNL     1      -4.529   2.171  24.774  0.00  0.00    -0.271 N 
ATOM     21  C   UNL     1      -3.864   2.652  24.861  0.00  0.00    +0.124 C 
ATOM     22  C   UNL     1      -3.120   2.634  24.507  0.00  0.00    +0.116 C 
ENDROOT
BRANCH   2   3
ATOM      3  C   UNL     1      -1.526   4.094  24.962  0.00  0.00    +0.077 C 
ATOM      4  C   UNL     1      -1.462   4.908  25.074  0.00  0.00    +0.010 C 
ATOM      5  C   UNL     1      -0.943   4.397  25.461  0.00  0.00    +0.010 C 
ENDBRANCH   2   3
BRANCH  13  14
ATOM     14  C   UNL     1      -4.511   1.534  24.250  0.00  0.00    +0.122 C 
BRANCH  14  15
ATOM     15  C   UNL     1      -4.262   0.792  24.512  0.00  0.00    +0.017 A 
ATOM     16  C   UNL     1      -3.741   0.347  24.052  0.00  0.00    +0.001 A 
ATOM     17  C   UNL     1      -3.490  -0.395  24.312  0.00  0.00    +0.020 A 
ATOM     18  C   UNL     1      -3.762  -0.692  25.033  0.00  0.00    +0.099 A 
ATOM     19  N   UNL     1      -4.283  -0.247  25.493  0.00  0.00    -0.243 NA
ATOM     20  C   UNL     1      -4.533   0.495  25.231  0.00  0.00    +0.096 A 
ENDBRANCH  14  15
ENDBRANCH  13  14
TORSDOF 3
ENDMDL
MODEL 5
REMARK VINA RESULT:      -9.8      1.871      4.136
REMARK  Name = 
REMARK  3 active torsions:
REMARK  status: ('A' for Active; 'I' for Inactive)
REMARK    1  A    between atoms: C_2  and  C_3
REMARK    2  A    between atoms: N_13  and  C_14
REMARK    3  A    between atoms: C_14  and  C_15
REMARK                            x       y       z     vdW  Elec       q    Type
REMARK                         _______ _______ _______ _____ _____    ______ ____
ROOT
ATOM      1  O   UNL     1      -0.567   0.271  25.603  0.00  0.00    -0.275 OA
ATOM      2  C   UNL     1      -0.866   0.936  25.217  0.00  0.00    +0.225 C 
ATOM      6  N   UNL     1      -1.674   0.996  25.061  0.00  0.00    -0.275 N 
ATOM      7  C   UNL     1      -2.049   1.625  24.682  0.00  0.00    +0.125 C 
ATOM      8  C   UNL     1      -2.855   1.454  24.643  0.00  0.00    +0.155 C 
ATOM      9  O   UNL     1      -3.494   1.872  24.331  0.00  0.00    -0.343 OA
ATOM     10  C   UNL     1      -4.255   1.557  24.373  0.00  0.00    +0.227 C 
ATOM     11  C   UNL     1      -4.377   0.822  24.729  0.00  0.00    +0.256 C 
ATOM     12  O   UNL     1      -5.138   0.506  24.772  0.00  0.00    -0.272 OA
ATOM     13  N   UNL     1      -3.739   0.403  25.042  0.00  0.00    -0.271 N 
ATOM     21  C   UNL     1      -2.977   0.720  24.999  0.00  0.00    +0.124 C 
ATOM     22  C   UNL     1      -2.247   0.437  25.257  0.00  0.00    +0.116 C 
ENDROOT
BRANCH   2   3
ATOM      3  C   UNL     1      -0.355   1.543  24.987  0.00  0.00    +0.077 C 
ATOM      4  C   UNL     1       0.035   2.250  25.154  0.00  0.00    +0.010 C 
ATOM      5  C   UNL     1       0.138   1.886  24.422  0.00  0.00    +0.010 C 
ENDBRANCH   2   3
BRANCH  13  14
ATOM     14  C   UNL     1      -3.861  -0.331  25.398  0.00  0.00    +0.122 C 
BRANCH  14  15
ATOM     15  C   UNL     1      -3.853  -1.017  24.939  0.00  0.00    +0.017 A 
ATOM     16  C   UNL     1      -3.440  -1.682  25.201  0.00  0.00    +0.001 A 
ATOM     17  C   UNL     1      -3.431  -2.369  24.744  0.00  0.00    +0.020 A 
ATOM     18  C   UNL     1      -3.834  -2.390  24.024  0.00  0.00    +0.099 A 
ATOM     19  N   UNL     1      -4.246  -1.725  23.762  0.00  0.00    -0.243 NA
ATOM     20  C   UNL     1      -4.255  -1.039  24.220  0.00  0.00    +0.096 A 
ENDBRANCH  14  15
ENDBRANCH  13  14
TORSDOF 3
ENDMDL
