MODEL 1
REMARK VINA RESULT:     -16.0      0.000      0.000
REMARK  Name = 
REMARK  5 active torsions:
REMARK  status: ('A' for Active; 'I' for Inactive)
REMARK    1  A    between atoms: C_2  and  C_3
REMARK    2  A    between atoms: C_11  and  C_12
REMARK    3  A    between atoms: C_12  and  C_13
REMARK    4  A    between atoms: N_15  and  C_16
REMARK    5  A    between atoms: C_26  and  C_28
REMARK                            x       y       z     vdW  Elec       q    Type
REMARK                         _______ _______ _______ _____ _____    ______ ____
ROOT
ATOM      1  C   UNL     1      -2.563  -2.772  24.613  0.00  0.00    +0.005 C 
ATOM      2  C   UNL     1      -2.854  -2.003  24.540  0.00  0.00    +0.059 C 
ATOM      5  C   UNL     1      -3.540  -2.432  24.381  0.00  0.00    +0.154 C 
ATOM      6  O   UNL     1      -3.523  -3.257  24.389  0.00  0.00    -0.223 OA
ATOM      7  C   UNL     1      -4.245  -2.035  24.213  0.00  0.00    +0.033 C 
ATOM      8  C   UNL     1      -4.263  -1.211  24.205  0.00  0.00    +0.003 C 
ATOM      9  C   UNL     1      -3.577  -0.783  24.365  0.00  0.00    +0.006 C 
ATOM     10  C   UNL     1      -4.280  -0.387  24.197  0.00  0.00    +0.000 C 
ATOM     11  C   UNL     1      -3.594   0.042  24.357  0.00  0.00    +0.050 C 
ATOM     19  C   UNL     1      -2.908   0.471  24.516  0.00  0.00    +0.063 A 
ATOM     20  C   UNL     1      -2.203   0.074  24.684  0.00  0.00    +0.023 A 
ATOM     21  C   UNL     1      -2.185  -0.750  24.692  0.00  0.00    +0.034 C 
ATOM     22  C   UNL     1      -2.872  -1.179  24.533  0.00  0.00    +0.010 C 
ATOM     23  S   UNL     1      -1.619   0.641  24.819  0.00  0.00    -0.054 S 
ATOM     24  C   UNL     1      -1.961   1.387  24.735  0.00  0.00    +0.185 A 
ATOM     25  N   UNL     1      -1.574   2.111  24.823  0.00  0.00    -0.151 NA
ATOM     26  C   UNL     1      -1.991   2.815  24.721  0.00  0.00    +0.271 C 
ATOM     27  O   UNL     1      -2.794   2.797  24.532  0.00  0.00    -0.268 OA
ATOM     35  N   UNL     1      -2.757   1.282  24.548  0.00  0.00    -0.227 NA
ENDROOT
BRANCH  26  28
ATOM     28  C   UNL     1      -1.605   3.538  24.809  0.00  0.00    +0.056 A 
ATOM     29  C   UNL     1      -1.982   4.164  25.194  0.00  0.00    +0.007 A 
ATOM     30  C   UNL     1      -1.596   4.888  25.282  0.00  0.00    +0.030 A 
ATOM     31  C   UNL     1      -0.832   4.986  24.984  0.00  0.00    +0.140 A 
ATOM     32  F   UNL     1      -0.446   5.710  25.072  0.00  0.00    -0.204 F 
ATOM     33  C   UNL     1      -0.455   4.362  24.600  0.00  0.00    +0.030 A 
ATOM     34  C   UNL     1      -0.842   3.638  24.512  0.00  0.00    +0.007 A 
ENDBRANCH  26  28
BRANCH   2   3
ATOM      3  C   UNL     1      -2.067  -1.842  24.725  0.00  0.00    +0.184 C 
ATOM      4  O   UNL     1      -1.531  -2.461  24.826  0.00  0.00    -0.220 OA
ENDBRANCH   2   3
BRANCH  11  12
ATOM     12  C   UNL     1      -4.298   0.438  24.189  0.00  0.00    +0.093 C 
BRANCH  12  13
ATOM     13  C   UNL     1      -4.715   0.813  24.795  0.00  0.00    +0.242 C 
ATOM     14  O   UNL     1      -4.636   0.550  25.573  0.00  0.00    -0.273 OA
ATOM     15  N   UNL     1      -5.211   1.448  24.622  0.00  0.00    -0.207 NA
BRANCH  15  16
ATOM     16  C   UNL     1      -5.628   1.822  25.227  0.00  0.00    +0.095 C 
ATOM     17  C   UNL     1      -5.812   2.506  25.651  0.00  0.00    +0.023 C 
ATOM     18  C   UNL     1      -6.167   1.789  25.851  0.00  0.00    +0.023 C 
ENDBRANCH  15  16
ENDBRANCH  12  13
ENDBRANCH  11  12
TORSDOF 5
ENDMDL
MODEL 2
REMARK VINA RESULT:     -15.1      2.088      5.055
REMARK  Name = 
REMARK  5 active torsions:
REMARK  status: ('A' for Active; 'I' for Inactive)
REMARK    1  A    between atoms: C_2  and  C_3
REMARK    2  A    between atoms: C_11  and  C_12
REMARK    3  A    between atoms: C_12  and  C_13
REMARK    4  A    between atoms: N_15  and  C_16
REMARK    5  A    between atoms: C_26  and  C_28
REMARK                            x       y       z     vdW  Elec       q    Type
REMARK                         _______ _______ _______ _____ _____    ______ ____
ROOT
ATOM      1  C   UNL     1      -0.619   4.330  25.288  0.00  0.00    +0.005 C 
ATOM      2  C   UNL     1      -1.302   3.902  25.113  0.00  0.00    +0.059 C 
ATOM      5  C   UNL     1      -1.597   4.670  25.060  0.00  0.00    +0.154 C 
ATOM      6  O   UNL     1      -1.099   5.314  25.196  0.00  0.00    -0.223 OA
ATOM      7  C   UNL     1      -2.391   4.795  24.871  0.00  0.00    +0.033 C 
ATOM      8  C   UNL     1      -2.889   4.152  24.735  0.00  0.00    +0.003 C 
ATOM      9  C   UNL     1      -2.594   3.384  24.788  0.00  0.00    +0.006 C 
ATOM     10  C   UNL     1      -3.386   3.509  24.600  0.00  0.00    +0.000 C 
ATOM     11  C   UNL     1      -3.091   2.740  24.652  0.00  0.00    +0.050 C 
ATOM     19  C   UNL     1      -2.796   1.972  24.705  0.00  0.00    +0.063 A 
ATOM     20  C   UNL     1      -2.002   1.847  24.894  0.00  0.00    +0.023 A 
ATOM     21  C   UNL     1      -1.505   2.490  25.029  0.00  0.00    +0.034 C 
ATOM     22  C   UNL     1      -1.799   3.259  24.977  0.00  0.00    +0.010 C 
ATOM     23  S   UNL     1      -1.869   1.033  24.906  0.00  0.00    -0.054 S 
ATOM     24  C   UNL     1      -2.580   0.655  24.726  0.00  0.00    +0.185 A 
ATOM     25  N   UNL     1      -2.697  -0.161  24.678  0.00  0.00    -0.151 NA
ATOM     26  C   UNL     1      -3.442  -0.460  24.490  0.00  0.00    +0.271 C 
ATOM     27  O   UNL     1      -4.071   0.056  24.351  0.00  0.00    -0.268 OA
ATOM     35  N   UNL     1      -3.152   1.235  24.601  0.00  0.00    -0.227 NA
ENDROOT
BRANCH  26  28
ATOM     28  C   UNL     1      -3.559  -1.275  24.442  0.00  0.00    +0.056 A 
ATOM     29  C   UNL     1      -4.029  -1.590  23.842  0.00  0.00    +0.007 A 
ATOM     30  C   UNL     1      -4.146  -2.405  23.794  0.00  0.00    +0.030 A 
ATOM     31  C   UNL     1      -3.793  -2.905  24.347  0.00  0.00    +0.140 A 
ATOM     32  F   UNL     1      -3.910  -3.721  24.299  0.00  0.00    -0.204 F 
ATOM     33  C   UNL     1      -3.323  -2.591  24.947  0.00  0.00    +0.030 A 
ATOM     34  C   UNL     1      -3.206  -1.776  24.995  0.00  0.00    +0.007 A 
ENDBRANCH  26  28
BRANCH   2   3
ATOM      3  C   UNL     1      -0.769   3.283  25.226  0.00  0.00    +0.184 C 
ATOM      4  O   UNL     1       0.011   3.443  25.443  0.00  0.00    -0.220 OA
ENDBRANCH   2   3
BRANCH  11  12
ATOM     12  C   UNL     1      -3.885   2.865  24.464  0.00  0.00    +0.093 C 
BRANCH  12  13
ATOM     13  C   UNL     1      -4.472   2.705  25.021  0.00  0.00    +0.242 C 
ATOM     14  O   UNL     1      -4.304   2.770  25.826  0.00  0.00    -0.273 OA
ATOM     15  N   UNL     1      -5.225   2.481  24.774  0.00  0.00    -0.207 NA
BRANCH  15  16
ATOM     16  C   UNL     1      -5.812   2.321  25.331  0.00  0.00    +0.095 C 
ATOM     17  C   UNL     1      -6.511   1.936  25.541  0.00  0.00    +0.023 C 
ATOM     18  C   UNL     1      -6.131   2.426  26.084  0.00  0.00    +0.023 C 
ENDBRANCH  15  16
ENDBRANCH  12  13
ENDBRANCH  11  12
TORSDOF 5
ENDMDL
MODEL 3
REMARK VINA RESULT:     -14.1      1.532      3.103
REMARK  Name = 
REMARK  5 active torsions:
REMARK  status: ('A' for Active; 'I' for Inactive)
REMARK    1  A    between atoms: C_2  and  C_3
REMARK    2  A    between atoms: C_11  and  C_12
REMARK    3  A    between atoms: C_12  and  C_13
REMARK    4  A    between atoms: N_15  and  C_16
REMARK    5  A    between atoms: C_26  and  C_28
REMARK                            x       y       z     vdW  Elec       q    Type
REMARK                         _______ _______ _______ _____ _____    ______ ____
ROOT
ATOM      1  C   UNL     1      -4.099  -2.321  24.333  0.00  0.00    +0.005 C 
ATOM      2  C   UNL     1      -3.435  -1.841  24.423  0.00  0.00    +0.059 C 
ATOM      5  C   UNL     1      -3.073  -2.580  24.385  0.00  0.00    +0.154 C 
ATOM      6  O   UNL     1      -3.531  -3.260  24.292  0.00  0.00    -0.223 OA
ATOM      7  C   UNL     1      -2.251  -2.641  24.439  0.00  0.00    +0.033 C 
ATOM      8  C   UNL     1      -1.793  -1.962  24.532  0.00  0.00    +0.003 C 
ATOM      9  C   UNL     1      -2.154  -1.223  24.571  0.00  0.00    +0.006 C 
ATOM     10  C   UNL     1      -1.335  -1.283  24.625  0.00  0.00    +0.000 C 
ATOM     11  C   UNL     1      -1.696  -0.543  24.663  0.00  0.00    +0.050 C 
ATOM     19  C   UNL     1      -2.058   0.197  24.702  0.00  0.00    +0.063 A 
ATOM     20  C   UNL     1      -2.880   0.258  24.647  0.00  0.00    +0.023 A 
ATOM     21  C   UNL     1      -3.338  -0.421  24.555  0.00  0.00    +0.034 C 
ATOM     22  C   UNL     1      -2.976  -1.162  24.516  0.00  0.00    +0.010 C 
ATOM     23  S   UNL     1      -3.080   1.057  24.703  0.00  0.00    -0.054 S 
ATOM     24  C   UNL     1      -2.383   1.489  24.791  0.00  0.00    +0.185 A 
ATOM     25  N   UNL     1      -2.328   2.309  24.867  0.00  0.00    -0.151 NA
ATOM     26  C   UNL     1      -1.589   2.666  24.952  0.00  0.00    +0.271 C 
ATOM     27  O   UNL     1      -0.906   2.204  24.961  0.00  0.00    -0.268 OA
ATOM     35  N   UNL     1      -1.752   0.958  24.791  0.00  0.00    -0.227 NA
ENDROOT
BRANCH  26  28
ATOM     28  C   UNL     1      -1.533   3.485  25.028  0.00  0.00    +0.056 A 
ATOM     29  C   UNL     1      -0.876   3.884  24.727  0.00  0.00    +0.007 A 
ATOM     30  C   UNL     1      -0.820   4.704  24.802  0.00  0.00    +0.030 A 
ATOM     31  C   UNL     1      -1.422   5.125  25.179  0.00  0.00    +0.140 A 
ATOM     32  F   UNL     1      -1.366   5.944  25.255  0.00  0.00    -0.204 F 
ATOM     33  C   UNL     1      -2.078   4.727  25.480  0.00  0.00    +0.030 A 
ATOM     34  C   UNL     1      -2.134   3.907  25.404  0.00  0.00    +0.007 A 
ENDBRANCH  26  28
BRANCH   2   3
ATOM      3  C   UNL     1      -4.028  -1.267  24.431  0.00  0.00    +0.184 C 
ATOM      4  O   UNL     1      -4.793  -1.463  24.192  0.00  0.00    -0.220 OA
ENDBRANCH   2   3
BRANCH  11  12
ATOM     12  C   UNL     1      -0.875  -0.603  24.718  0.00  0.00    +0.093 C 
BRANCH  12  13
ATOM     13  C   UNL     1      -0.403  -0.404  24.071  0.00  0.00    +0.242 C 
ATOM     14  O   UNL     1      -0.744  -0.305  23.326  0.00  0.00    -0.273 OA
ATOM     15  N   UNL     1       0.409  -0.305  24.169  0.00  0.00    -0.207 NA
BRANCH  15  16
ATOM     16  C   UNL     1       0.882  -0.106  23.522  0.00  0.00    +0.095 C 
ATOM     17  C   UNL     1       1.441   0.389  23.172  0.00  0.00    +0.023 C 
ATOM     18  C   UNL     1       1.142  -0.255  22.754  0.00  0.00    +0.023 C 
ENDBRANCH  15  16
ENDBRANCH  12  13
ENDBRANCH  11  12
TORSDOF 5
ENDMDL
MODEL 4
REMARK VINA RESULT:     -13.7      2.313      5.813
REMARK  Name = 
REMARK  5 active torsions:
REMARK  status: ('A' for Active; 'I' for Inactive)
REMARK    1  A    between atoms: C_2  and  C_3
REMARK    2  A    between atoms: C_11  and  C_12
REMARK    3  A    between atoms: C_12  and  C_13
REMARK    4  A    between atoms: N_15  and  C_16
REMARK    5  A    between atoms: C_26  and  C_28
REMARK                            x       y       z     vdW  Elec       q    Type
REMARK                         _______ _______ _______ _____ _____    ______ ____
ROOT
ATOM      1  C   UNL     1      -2.443   4.819  25.185  0.00  0.00    +0.005 C 
ATOM      2  C   UNL     1      -2.126   4.059  25.135  0.00  0.00    +0.059 C 
ATOM      5  C   UNL     1      -1.435   4.495  25.246  0.00  0.00    +0.154 C 
ATOM      6  O   UNL     1      -1.473   5.315  25.328  0.00  0.00    -0.223 OA
ATOM      7  C   UNL     1      -0.705   4.110  25.274  0.00  0.00    +0.033 C 
ATOM      8  C   UNL     1      -0.667   3.291  25.192  0.00  0.00    +0.003 C 
ATOM      9  C   UNL     1      -1.358   2.855  25.082  0.00  0.00    +0.006 C 
ATOM     10  C   UNL     1      -0.630   2.472  25.110  0.00  0.00    +0.000 C 
ATOM     11  C   UNL     1      -1.321   2.035  25.000  0.00  0.00    +0.050 C 
ATOM     19  C   UNL     1      -2.012   1.599  24.890  0.00  0.00    +0.063 A 
ATOM     20  C   UNL     1      -2.742   1.984  24.861  0.00  0.00    +0.023 A 
ATOM     21  C   UNL     1      -2.780   2.803  24.943  0.00  0.00    +0.034 C 
ATOM     22  C   UNL     1      -2.089   3.240  25.053  0.00  0.00    +0.010 C 
ATOM     23  S   UNL     1      -3.326   1.412  24.747  0.00  0.00    -0.054 S 
ATOM     24  C   UNL     1      -2.958   0.675  24.705  0.00  0.00    +0.185 A 
ATOM     25  N   UNL     1      -3.336  -0.050  24.594  0.00  0.00    -0.151 NA
ATOM     26  C   UNL     1      -2.893  -0.745  24.563  0.00  0.00    +0.271 C 
ATOM     27  O   UNL     1      -2.072  -0.715  24.643  0.00  0.00    -0.268 OA
ATOM     35  N   UNL     1      -2.147   0.791  24.793  0.00  0.00    -0.227 NA
ENDROOT
BRANCH  26  28
ATOM     28  C   UNL     1      -3.270  -1.470  24.452  0.00  0.00    +0.056 A 
ATOM     29  C   UNL     1      -3.902  -1.530  23.923  0.00  0.00    +0.007 A 
ATOM     30  C   UNL     1      -4.279  -2.255  23.812  0.00  0.00    +0.030 A 
ATOM     31  C   UNL     1      -4.025  -2.920  24.230  0.00  0.00    +0.140 A 
ATOM     32  F   UNL     1      -4.403  -3.645  24.119  0.00  0.00    -0.204 F 
ATOM     33  C   UNL     1      -3.395  -2.860  24.758  0.00  0.00    +0.030 A 
ATOM     34  C   UNL     1      -3.017  -2.135  24.869  0.00  0.00    +0.007 A 
ENDBRANCH  26  28
BRANCH   2   3
ATOM      3  C   UNL     1      -2.928   3.888  25.042  0.00  0.00    +0.184 C 
ATOM      4  O   UNL     1      -3.485   4.496  25.059  0.00  0.00    -0.220 OA
ENDBRANCH   2   3
BRANCH  11  12
ATOM     12  C   UNL     1      -0.591   1.651  25.028  0.00  0.00    +0.093 C 
BRANCH  12  13
ATOM     13  C   UNL     1      -0.257   1.348  24.337  0.00  0.00    +0.242 C 
ATOM     14  O   UNL     1      -0.459   1.672  23.606  0.00  0.00    -0.273 OA
ATOM     15  N   UNL     1       0.279   0.723  24.377  0.00  0.00    -0.207 NA
BRANCH  15  16
ATOM     16  C   UNL     1       0.613   0.421  23.687  0.00  0.00    +0.095 C 
ATOM     17  C   UNL     1       0.733  -0.209  23.168  0.00  0.00    +0.023 C 
ATOM     18  C   UNL     1       1.072   0.525  23.009  0.00  0.00    +0.023 C 
ENDBRANCH  15  16
ENDBRANCH  12  13
ENDBRANCH  11  12
TORSDOF 5
ENDMDL
MODEL 5
REMARK VINA RESULT:     -13.4      2.193      4.138
REMARK  Name = 
REMARK  5 active torsions:
REMARK  status: ('A' for Active; 'I' for Inactive)
REMARK    1  A    between atoms: C_2  and  C_3
REMARK    2  A    between atoms: C_11  and  C_12
REMARK    3  A    between atoms: C_12  and  C_13
REMARK    4  A    between atoms: N_15  and  C_16
REMARK    5  A    between atoms: C_26  and  C_28
REMARK                            x       y       z     vdW  Elec       q    Type
REMARK                         _______ _______ _______ _____ _____    ______ ____
ROOT
ATOM      1  C   UNL     1      -5.067   3.592  25.777  0.00  0.00    +0.005 C 
ATOM      2  C   UNL     1      -4.729   2.923  25.433  0.00  0.00    +0.059 C 
ATOM      5  C   UNL     1      -5.514   2.677  25.480  0.00  0.00    +0.154 C 
ATOM      6  O   UNL     1      -6.086   3.180  25.799  0.00  0.00    -0.223 OA
ATOM      7  C   UNL     1      -5.730   1.928  25.208  0.00  0.00    +0.033 C 
ATOM      8  C   UNL     1      -5.159   1.425  24.890  0.00  0.00    +0.003 C 
ATOM      9  C   UNL     1      -4.374   1.671  24.842  0.00  0.00    +0.006 C 
ATOM     10  C   UNL     1      -4.589   0.923  24.571  0.00  0.00    +0.000 C 
ATOM     11  C   UNL     1      -3.802   1.168  24.523  0.00  0.00    +0.050 C 
ATOM     19  C   UNL     1      -3.017   1.413  24.476  0.00  0.00    +0.063 A 
ATOM     20  C   UNL     1      -2.801   2.163  24.748  0.00  0.00    +0.023 A 
ATOM     21  C   UNL     1      -3.372   2.665  25.066  0.00  0.00    +0.034 C 
ATOM     22  C   UNL     1      -4.158   2.420  25.114  0.00  0.00    +0.010 C 
ATOM     23  S   UNL     1      -1.989   2.252  24.630  0.00  0.00    -0.054 S 
ATOM     24  C   UNL     1      -1.703   1.559  24.286  0.00  0.00    +0.185 A 
ATOM     25  N   UNL     1      -0.919   1.411  24.075  0.00  0.00    -0.151 NA
ATOM     26  C   UNL     1      -0.715   0.689  23.734  0.00  0.00    +0.271 C 
ATOM     27  O   UNL     1      -1.292   0.114  23.604  0.00  0.00    -0.268 OA
ATOM     35  N   UNL     1      -2.338   1.042  24.191  0.00  0.00    -0.227 NA
ENDROOT
BRANCH  26  28
ATOM     28  C   UNL     1       0.069   0.540  23.522  0.00  0.00    +0.056 A 
ATOM     29  C   UNL     1       0.261  -0.145  23.103  0.00  0.00    +0.007 A 
ATOM     30  C   UNL     1       1.044  -0.293  22.891  0.00  0.00    +0.030 A 
ATOM     31  C   UNL     1       1.636   0.243  23.099  0.00  0.00    +0.140 A 
ATOM     32  F   UNL     1       2.419   0.094  22.888  0.00  0.00    -0.204 F 
ATOM     33  C   UNL     1       1.445   0.927  23.518  0.00  0.00    +0.030 A 
ATOM     34  C   UNL     1       0.661   1.075  23.730  0.00  0.00    +0.007 A 
ENDBRANCH  26  28
BRANCH   2   3
ATOM      3  C   UNL     1      -4.060   3.401  25.505  0.00  0.00    +0.184 C 
ATOM      4  O   UNL     1      -4.123   4.147  25.852  0.00  0.00    -0.220 OA
ENDBRANCH   2   3
BRANCH  11  12
ATOM     12  C   UNL     1      -4.018   0.419  24.252  0.00  0.00    +0.093 C 
BRANCH  12  13
ATOM     13  C   UNL     1      -3.835  -0.250  24.699  0.00  0.00    +0.242 C 
ATOM     14  O   UNL     1      -3.695  -0.179  25.508  0.00  0.00    -0.273 OA
ATOM     15  N   UNL     1      -3.793  -0.989  24.336  0.00  0.00    -0.207 NA
BRANCH  15  16
ATOM     16  C   UNL     1      -3.611  -1.658  24.782  0.00  0.00    +0.095 C 
ATOM     17  C   UNL     1      -3.535  -2.478  24.842  0.00  0.00    +0.023 C 
ATOM     18  C   UNL     1      -3.372  -2.000  25.494  0.00  0.00    +0.023 C 
ENDBRANCH  15  16
ENDBRANCH  12  13
ENDBRANCH  11  12
TORSDOF 5
ENDMDL
MODEL 6
REMARK VINA RESULT:     -12.8      1.620      3.289
REMARK  Name = 
REMARK  5 active torsions:
REMARK  status: ('A' for Active; 'I' for Inactive)
REMARK    1  A    between atoms: C_2  and  C_3
REMARK    2  A    between atoms: C_11  and  C_12
REMARK    3  A    between atoms: C_12  and  C_13
REMARK    4  A    between atoms: N_15  and  C_16
REMARK    5  A    between atoms: C_26  and  C_28
REMARK                            x       y       z     vdW  Elec       q    Type
REMARK                         _______ _______ _______ _____ _____    ______ ____
ROOT
ATOM      1  C   UNL     1      -2.969  -3.012  24.151  0.00  0.00    +0.005 C 
ATOM      2  C   UNL     1      -2.790  -2.253  24.419  0.00  0.00    +0.059 C 
ATOM      5  C   UNL     1      -2.056  -2.616  24.515  0.00  0.00    +0.154 C 
ATOM      6  O   UNL     1      -1.958  -3.410  24.314  0.00  0.00    -0.223 OA
ATOM      7  C   UNL     1      -1.418  -2.185  24.813  0.00  0.00    +0.033 C 
ATOM      8  C   UNL     1      -1.515  -1.391  25.015  0.00  0.00    +0.003 C 
ATOM      9  C   UNL     1      -2.249  -1.028  24.918  0.00  0.00    +0.006 C 
ATOM     10  C   UNL     1      -1.612  -0.598  25.216  0.00  0.00    +0.000 C 
ATOM     11  C   UNL     1      -2.347  -0.234  25.119  0.00  0.00    +0.050 C 
ATOM     19  C   UNL     1      -3.080   0.129  25.023  0.00  0.00    +0.063 A 
ATOM     20  C   UNL     1      -3.718  -0.302  24.724  0.00  0.00    +0.023 A 
ATOM     21  C   UNL     1      -3.621  -1.095  24.523  0.00  0.00    +0.034 C 
ATOM     22  C   UNL     1      -2.887  -1.459  24.620  0.00  0.00    +0.010 C 
ATOM     23  S   UNL     1      -4.371   0.201  24.690  0.00  0.00    -0.054 S 
ATOM     24  C   UNL     1      -4.138   0.942  24.967  0.00  0.00    +0.185 A 
ATOM     25  N   UNL     1      -4.618   1.611  25.027  0.00  0.00    -0.151 NA
ATOM     26  C   UNL     1      -4.307   2.317  25.315  0.00  0.00    +0.271 C 
ATOM     27  O   UNL     1      -3.515   2.357  25.543  0.00  0.00    -0.268 OA
ATOM     35  N   UNL     1      -3.341   0.898  25.172  0.00  0.00    -0.227 NA
ENDROOT
BRANCH  26  28
ATOM     28  C   UNL     1      -4.787   2.985  25.376  0.00  0.00    +0.056 A 
ATOM     29  C   UNL     1      -4.547   3.698  25.035  0.00  0.00    +0.007 A 
ATOM     30  C   UNL     1      -5.027   4.366  25.095  0.00  0.00    +0.030 A 
ATOM     31  C   UNL     1      -5.747   4.322  25.497  0.00  0.00    +0.140 A 
ATOM     32  F   UNL     1      -6.227   4.990  25.557  0.00  0.00    -0.204 F 
ATOM     33  C   UNL     1      -5.986   3.610  25.837  0.00  0.00    +0.030 A 
ATOM     34  C   UNL     1      -5.506   2.942  25.777  0.00  0.00    +0.007 A 
ENDBRANCH  26  28
BRANCH   2   3
ATOM      3  C   UNL     1      -3.586  -2.154  24.229  0.00  0.00    +0.184 C 
ATOM      4  O   UNL     1      -4.021  -2.788  23.930  0.00  0.00    -0.220 OA
ENDBRANCH   2   3
BRANCH  11  12
ATOM     12  C   UNL     1      -1.709   0.197  25.417  0.00  0.00    +0.093 C 
BRANCH  12  13
ATOM     13  C   UNL     1      -1.311   0.735  24.933  0.00  0.00    +0.242 C 
ATOM     14  O   UNL     1      -1.394   0.690  24.114  0.00  0.00    -0.273 OA
ATOM     15  N   UNL     1      -0.832   1.315  25.268  0.00  0.00    -0.207 NA
BRANCH  15  16
ATOM     16  C   UNL     1      -0.435   1.852  24.785  0.00  0.00    +0.095 C 
ATOM     17  C   UNL     1      -0.272   2.631  24.565  0.00  0.00    +0.023 C 
ATOM     18  C   UNL     1       0.091   2.006  24.167  0.00  0.00    +0.023 C 
ENDBRANCH  15  16
ENDBRANCH  12  13
ENDBRANCH  11  12
TORSDOF 5
ENDMDL
MODEL 7
REMARK VINA RESULT:     -12.5      2.396      5.580
REMARK  Name = 
REMARK  5 active torsions:
REMARK  status: ('A' for Active; 'I' for Inactive)
REMARK    1  A    between atoms: C_2  and  C_3
REMARK    2  A    between atoms: C_11  and  C_12
REMARK    3  A    between atoms: C_12  and  C_13
REMARK    4  A    between atoms: N_15  and  C_16
REMARK    5  A    between atoms: C_26  and  C_28
REMARK                            x       y       z     vdW  Elec       q    Type
REMARK                         _______ _______ _______ _____ _____    ______ ____
ROOT
ATOM      1  C   UNL     1      -5.586   4.179  25.666  0.00  0.00    +0.005 C 
ATOM      2  C   UNL     1      -5.039   3.673  25.311  0.00  0.00    +0.059 C 
ATOM      5  C   UNL     1      -4.708   4.403  25.115  0.00  0.00    +0.154 C 
ATOM      6  O   UNL     1      -5.074   5.101  25.358  0.00  0.00    -0.223 OA
ATOM      7  C   UNL     1      -4.010   4.434  24.674  0.00  0.00    +0.033 C 
ATOM      8  C   UNL     1      -3.645   3.737  24.431  0.00  0.00    +0.003 C 
ATOM      9  C   UNL     1      -3.975   3.007  24.627  0.00  0.00    +0.006 C 
ATOM     10  C   UNL     1      -3.279   3.039  24.187  0.00  0.00    +0.000 C 
ATOM     11  C   UNL     1      -3.610   2.309  24.384  0.00  0.00    +0.050 C 
ATOM     19  C   UNL     1      -3.941   1.580  24.580  0.00  0.00    +0.063 A 
ATOM     20  C   UNL     1      -4.639   1.548  25.020  0.00  0.00    +0.023 A 
ATOM     21  C   UNL     1      -5.004   2.246  25.264  0.00  0.00    +0.034 C 
ATOM     22  C   UNL     1      -4.673   2.976  25.068  0.00  0.00    +0.010 C 
ATOM     23  S   UNL     1      -4.834   0.754  25.130  0.00  0.00    -0.054 S 
ATOM     24  C   UNL     1      -4.259   0.295  24.758  0.00  0.00    +0.185 A 
ATOM     25  N   UNL     1      -4.239  -0.529  24.731  0.00  0.00    -0.151 NA
ATOM     26  C   UNL     1      -3.625  -0.914  24.336  0.00  0.00    +0.271 C 
ATOM     27  O   UNL     1      -3.031  -0.475  23.969  0.00  0.00    -0.268 OA
ATOM     35  N   UNL     1      -3.707   0.805  24.418  0.00  0.00    -0.227 NA
ENDROOT
BRANCH  26  28
ATOM     28  C   UNL     1      -3.605  -1.738  24.309  0.00  0.00    +0.056 A 
ATOM     29  C   UNL     1      -4.160  -2.150  23.857  0.00  0.00    +0.007 A 
ATOM     30  C   UNL     1      -4.140  -2.974  23.830  0.00  0.00    +0.030 A 
ATOM     31  C   UNL     1      -3.565  -3.387  24.255  0.00  0.00    +0.140 A 
ATOM     32  F   UNL     1      -3.545  -4.211  24.227  0.00  0.00    -0.204 F 
ATOM     33  C   UNL     1      -3.011  -2.976  24.706  0.00  0.00    +0.030 A 
ATOM     34  C   UNL     1      -3.031  -2.151  24.733  0.00  0.00    +0.007 A 
ENDBRANCH  26  28
BRANCH   2   3
ATOM      3  C   UNL     1      -5.560   3.120  25.631  0.00  0.00    +0.184 C 
ATOM      4  O   UNL     1      -6.218   3.372  26.060  0.00  0.00    -0.220 OA
ENDBRANCH   2   3
BRANCH  11  12
ATOM     12  C   UNL     1      -2.913   2.340  23.943  0.00  0.00    +0.093 C 
BRANCH  12  13
ATOM     13  C   UNL     1      -2.188   2.181  24.306  0.00  0.00    +0.242 C 
ATOM     14  O   UNL     1      -2.128   2.190  25.128  0.00  0.00    -0.273 OA
ATOM     15  N   UNL     1      -1.525   2.014  23.846  0.00  0.00    -0.207 NA
BRANCH  15  16
ATOM     16  C   UNL     1      -0.801   1.855  24.207  0.00  0.00    +0.095 C 
ATOM     17  C   UNL     1      -0.130   1.382  24.283  0.00  0.00    +0.023 C 
ATOM     18  C   UNL     1      -0.218   2.051  24.756  0.00  0.00    +0.023 C 
ENDBRANCH  15  16
ENDBRANCH  12  13
ENDBRANCH  11  12
TORSDOF 5
ENDMDL
MODEL 8
REMARK VINA RESULT:     -12.1      2.543      4.590
REMARK  Name = 
REMARK  5 active torsions:
REMARK  status: ('A' for Active; 'I' for Inactive)
REMARK    1  A    between atoms: C_2  and  C_3
REMARK    2  A    between atoms: C_11  and  C_12
REMARK    3  A    between atoms: C_12  and  C_13
REMARK    4  A    between atoms: N_15  and  C_16
REMARK    5  A    between atoms: C_26  and  C_28
REMARK                            x       y       z     vdW  Elec       q    Type
REMARK                         _______ _______ _______ _____ _____    ______ ____
ROOT
ATOM      1  C   UNL     1      -6.131   2.433  25.174  0.00  0.00    +0.005 C 
ATOM      2  C   UNL     1      -5.318   2.558  25.239  0.00  0.00    +0.059 C 
ATOM      5  C   UNL     1      -5.597   3.197  25.679  0.00  0.00    +0.154 C 
ATOM      6  O   UNL     1      -6.409   3.310  25.775  0.00  0.00    -0.223 OA
ATOM      7  C   UNL     1      -5.064   3.725  26.024  0.00  0.00    +0.033 C 
ATOM      8  C   UNL     1      -4.253   3.613  25.928  0.00  0.00    +0.003 C 
ATOM      9  C   UNL     1      -3.974   2.974  25.489  0.00  0.00    +0.006 C 
ATOM     10  C   UNL     1      -3.442   3.501  25.833  0.00  0.00    +0.000 C 
ATOM     11  C   UNL     1      -3.162   2.861  25.393  0.00  0.00    +0.050 C 
ATOM     19  C   UNL     1      -2.883   2.222  24.953  0.00  0.00    +0.063 A 
ATOM     20  C   UNL     1      -3.416   1.694  24.608  0.00  0.00    +0.023 A 
ATOM     21  C   UNL     1      -4.227   1.806  24.703  0.00  0.00    +0.034 C 
ATOM     22  C   UNL     1      -4.507   2.446  25.144  0.00  0.00    +0.010 C 
ATOM     23  S   UNL     1      -2.981   1.119  24.208  0.00  0.00    -0.054 S 
ATOM     24  C   UNL     1      -2.180   1.290  24.304  0.00  0.00    +0.185 A 
ATOM     25  N   UNL     1      -1.550   0.856  23.995  0.00  0.00    -0.151 NA
ATOM     26  C   UNL     1      -0.774   1.096  24.139  0.00  0.00    +0.271 C 
ATOM     27  O   UNL     1      -0.627   1.770  24.592  0.00  0.00    -0.268 OA
ATOM     35  N   UNL     1      -2.119   1.972  24.765  0.00  0.00    -0.227 NA
ENDROOT
BRANCH  26  28
ATOM     28  C   UNL     1      -0.145   0.662  23.830  0.00  0.00    +0.056 A 
ATOM     29  C   UNL     1      -0.159  -0.163  23.855  0.00  0.00    +0.007 A 
ATOM     30  C   UNL     1       0.470  -0.597  23.546  0.00  0.00    +0.030 A 
ATOM     31  C   UNL     1       1.115  -0.205  23.211  0.00  0.00    +0.140 A 
ATOM     32  F   UNL     1       1.745  -0.639  22.902  0.00  0.00    -0.204 F 
ATOM     33  C   UNL     1       1.130   0.618  23.185  0.00  0.00    +0.030 A 
ATOM     34  C   UNL     1       0.500   1.052  23.495  0.00  0.00    +0.007 A 
ENDBRANCH  26  28
BRANCH   2   3
ATOM      3  C   UNL     1      -5.321   1.875  24.776  0.00  0.00    +0.184 C 
ATOM      4  O   UNL     1      -6.036   1.510  24.584  0.00  0.00    -0.220 OA
ENDBRANCH   2   3
BRANCH  11  12
ATOM     12  C   UNL     1      -2.629   3.389  25.737  0.00  0.00    +0.093 C 
BRANCH  12  13
ATOM     13  C   UNL     1      -2.244   3.951  25.271  0.00  0.00    +0.242 C 
ATOM     14  O   UNL     1      -2.547   4.148  24.529  0.00  0.00    -0.273 OA
ATOM     15  N   UNL     1      -1.558   4.314  25.546  0.00  0.00    -0.207 NA
BRANCH  15  16
ATOM     16  C   UNL     1      -1.173   4.876  25.080  0.00  0.00    +0.095 C 
ATOM     17  C   UNL     1      -0.501   5.124  24.670  0.00  0.00    +0.023 C 
ATOM     18  C   UNL     1      -1.175   5.599  24.683  0.00  0.00    +0.023 C 
ENDBRANCH  15  16
ENDBRANCH  12  13
ENDBRANCH  11  12
TORSDOF 5
ENDMDL
