MODEL 1
REMARK VINA RESULT:     -12.3      0.000      0.000
REMARK  Name = 
REMARK  6 active torsions:
REMARK  status: ('A' for Active; 'I' for Inactive)
REMARK    1  A    between atoms: C_2  and  C_13
REMARK    2  A    between atoms: N_3  and  C_4
REMARK    3  A    between atoms: C_4  and  C_5
REMARK    4  A    between atoms: C_8  and  C_11
REMARK    5  A    between atoms: N_18  and  C_19
REMARK    6  A    between atoms: C_19  and  C_20
REMARK                            x       y       z     vdW  Elec       q    Type
REMARK                         _______ _______ _______ _____ _____    ______ ____
ROOT
ATOM     13  C   UNL     1      -3.794   1.992  24.166  0.00  0.00    +0.143 C 
ATOM     14  C   UNL     1      -4.230   2.557  24.581  0.00  0.00    +0.072 C 
ATOM     15  C   UNL     1      -4.910   2.334  24.990  0.00  0.00    +0.077 A 
ATOM     16  C   UNL     1      -5.155   1.546  24.985  0.00  0.00    +0.090 A 
ATOM     17  C   UNL     1      -4.720   0.981  24.570  0.00  0.00    +0.121 C 
ATOM     18  N   UNL     1      -4.039   1.205  24.161  0.00  0.00    -0.255 NA
ATOM     29  N   UNL     1      -5.844   1.491  25.436  0.00  0.00    -0.226 NA
ATOM     30  C   UNL     1      -6.025   2.244  25.720  0.00  0.00    +0.198 A 
ATOM     31  N   UNL     1      -5.447   2.765  25.445  0.00  0.00    -0.227 NA
ENDROOT
BRANCH  13   2
ATOM      1  O   UNL     1      -3.117   2.235  22.932  0.00  0.00    -0.272 OA
ATOM      2  C   UNL     1      -3.114   2.215  23.757  0.00  0.00    +0.257 C 
ATOM      3  N   UNL     1      -2.430   2.418  24.171  0.00  0.00    -0.199 NA
BRANCH   3   4
ATOM      4  C   UNL     1      -2.427   2.398  24.996  0.00  0.00    +0.142 C 
BRANCH   4   5
ATOM      5  C   UNL     1      -1.716   2.468  25.408  0.00  0.00    -0.001 A 
ATOM      6  C   UNL     1      -1.506   3.190  25.750  0.00  0.00    -0.002 A 
ATOM      7  C   UNL     1      -0.795   3.259  26.162  0.00  0.00    +0.010 A 
ATOM      8  C   UNL     1      -0.294   2.608  26.233  0.00  0.00    +0.068 A 
ATOM      9  C   UNL     1      -0.503   1.887  25.892  0.00  0.00    +0.010 A 
ATOM     10  C   UNL     1      -1.214   1.817  25.480  0.00  0.00    -0.002 A 
BRANCH   8  11
ATOM     11  C   UNL     1       0.417   2.678  26.646  0.00  0.00    +0.100 C 
ATOM     12  N   UNL     1       1.128   2.748  27.059  0.00  0.00    -0.191 NA
ENDBRANCH   8  11
ENDBRANCH   4   5
ENDBRANCH   3   4
ENDBRANCH  13   2
BRANCH  18  19
ATOM     19  C   UNL     1      -3.604   0.639  23.746  0.00  0.00    +0.138 C 
BRANCH  19  20
ATOM     20  C   UNL     1      -3.633  -0.153  23.974  0.00  0.00    +0.139 A 
ATOM     21  C   UNL     1      -4.026  -0.758  23.576  0.00  0.00    +0.037 A 
ATOM     22  C   UNL     1      -3.909  -1.458  23.997  0.00  0.00    +0.037 A 
ATOM     23  C   UNL     1      -3.443  -1.285  24.655  0.00  0.00    +0.145 A 
ATOM     24  O   UNL     1      -3.272  -0.478  24.642  0.00  0.00    -0.456 OA
ATOM     25  C   UNL     1      -3.235  -1.885  25.182  0.00  0.00    +0.037 A 
ATOM     26  C   UNL     1      -3.493  -2.657  25.051  0.00  0.00    +0.003 A 
ATOM     27  C   UNL     1      -3.958  -2.830  24.392  0.00  0.00    +0.000 A 
ATOM     28  C   UNL     1      -4.167  -2.231  23.865  0.00  0.00    +0.003 A 
ENDBRANCH  19  20
ENDBRANCH  18  19
TORSDOF 6
ENDMDL
MODEL 2
REMARK VINA RESULT:     -11.5      1.273      4.297
REMARK  Name = 
REMARK  6 active torsions:
REMARK  status: ('A' for Active; 'I' for Inactive)
REMARK    1  A    between atoms: C_2  and  C_13
REMARK    2  A    between atoms: N_3  and  C_4
REMARK    3  A    between atoms: C_4  and  C_5
REMARK    4  A    between atoms: C_8  and  C_11
REMARK    5  A    between atoms: N_18  and  C_19
REMARK    6  A    between atoms: C_19  and  C_20
REMARK                            x       y       z     vdW  Elec       q    Type
REMARK                         _______ _______ _______ _____ _____    ______ ____
ROOT
ATOM     13  C   UNL     1      -3.735   2.138  23.983  0.00  0.00    +0.143 C 
ATOM     14  C   UNL     1      -4.515   2.167  24.250  0.00  0.00    +0.072 C 
ATOM     15  C   UNL     1      -4.723   2.674  24.866  0.00  0.00    +0.077 A 
ATOM     16  C   UNL     1      -4.150   3.153  25.216  0.00  0.00    +0.090 A 
ATOM     17  C   UNL     1      -3.370   3.126  24.950  0.00  0.00    +0.121 C 
ATOM     18  N   UNL     1      -3.162   2.618  24.333  0.00  0.00    -0.255 NA
ATOM     29  N   UNL     1      -4.516   3.596  25.809  0.00  0.00    -0.226 NA
ATOM     30  C   UNL     1      -5.314   3.390  25.826  0.00  0.00    +0.198 A 
ATOM     31  N   UNL     1      -5.442   2.820  25.243  0.00  0.00    -0.227 NA
ENDROOT
BRANCH  13   2
ATOM      1  O   UNL     1      -3.274   1.941  22.646  0.00  0.00    -0.272 OA
ATOM      2  C   UNL     1      -3.527   1.631  23.367  0.00  0.00    +0.257 C 
ATOM      3  N   UNL     1      -3.573   0.814  23.472  0.00  0.00    -0.199 NA
BRANCH   3   4
ATOM      4  C   UNL     1      -3.827   0.504  24.193  0.00  0.00    +0.142 C 
BRANCH   4   5
ATOM      5  C   UNL     1      -3.772  -0.306  24.337  0.00  0.00    -0.001 A 
ATOM      6  C   UNL     1      -3.410  -0.579  25.027  0.00  0.00    -0.002 A 
ATOM      7  C   UNL     1      -3.355  -1.390  25.170  0.00  0.00    +0.010 A 
ATOM      8  C   UNL     1      -3.662  -1.927  24.625  0.00  0.00    +0.068 A 
ATOM      9  C   UNL     1      -4.024  -1.655  23.936  0.00  0.00    +0.010 A 
ATOM     10  C   UNL     1      -4.079  -0.844  23.792  0.00  0.00    -0.002 A 
BRANCH   8  11
ATOM     11  C   UNL     1      -3.607  -2.737  24.770  0.00  0.00    +0.100 C 
ATOM     12  N   UNL     1      -3.552  -3.548  24.914  0.00  0.00    -0.191 NA
ENDBRANCH   8  11
ENDBRANCH   4   5
ENDBRANCH   3   4
ENDBRANCH  13   2
BRANCH  18  19
ATOM     19  C   UNL     1      -2.382   2.590  24.067  0.00  0.00    +0.138 C 
BRANCH  19  20
ATOM     20  C   UNL     1      -1.760   2.642  24.606  0.00  0.00    +0.139 A 
ATOM     21  C   UNL     1      -1.266   3.293  24.717  0.00  0.00    +0.037 A 
ATOM     22  C   UNL     1      -0.723   3.105  25.308  0.00  0.00    +0.037 A 
ATOM     23  C   UNL     1      -0.882   2.336  25.564  0.00  0.00    +0.145 A 
ATOM     24  O   UNL     1      -1.522   2.050  25.131  0.00  0.00    -0.456 OA
ATOM     25  C   UNL     1      -0.422   1.998  26.159  0.00  0.00    +0.037 A 
ATOM     26  C   UNL     1       0.196   2.426  26.498  0.00  0.00    +0.003 A 
ATOM     27  C   UNL     1       0.354   3.194  26.242  0.00  0.00    +0.000 A 
ATOM     28  C   UNL     1      -0.105   3.534  25.647  0.00  0.00    +0.003 A 
ENDBRANCH  19  20
ENDBRANCH  18  19
TORSDOF 6
ENDMDL
MODEL 3
REMARK VINA RESULT:     -10.8      2.278      3.541
REMARK  Name = 
REMARK  6 active torsions:
REMARK  status: ('A' for Active; 'I' for Inactive)
REMARK    1  A    between atoms: C_2  and  C_13
REMARK    2  A    between atoms: N_3  and  C_4
REMARK    3  A    between atoms: C_4  and  C_5
REMARK    4  A    between atoms: C_8  and  C_11
REMARK    5  A    between atoms: N_18  and  C_19
REMARK    6  A    between atoms: C_19  and  C_20
REMARK                            x       y       z     vdW  Elec       q    Type
REMARK                         _______ _______ _______ _____ _____    ______ ____
ROOT
ATOM     13  C   UNL     1      -0.637   0.584  25.109  0.00  0.00    +0.143 C 
ATOM     14  C   UNL     1       0.058   0.739  24.692  0.00  0.00    +0.072 C 
ATOM     15  C   UNL     1       0.210   0.349  23.982  0.00  0.00    +0.077 A 
ATOM     16  C   UNL     1      -0.333  -0.198  23.687  0.00  0.00    +0.090 A 
ATOM     17  C   UNL     1      -1.028  -0.354  24.103  0.00  0.00    +0.121 C 
ATOM     18  N   UNL     1      -1.180   0.037  24.814  0.00  0.00    -0.255 NA
ATOM     29  N   UNL     1      -0.036  -0.496  22.977  0.00  0.00    -0.226 NA
ATOM     30  C   UNL     1       0.690  -0.133  22.833  0.00  0.00    +0.198 A 
ATOM     31  N   UNL     1       0.843   0.389  23.453  0.00  0.00    -0.227 NA
ENDROOT
BRANCH  13   2
ATOM      1  O   UNL     1      -0.758   0.560  26.532  0.00  0.00    -0.272 OA
ATOM      2  C   UNL     1      -0.788   0.974  25.819  0.00  0.00    +0.257 C 
ATOM      3  N   UNL     1      -0.970   1.779  25.817  0.00  0.00    -0.199 NA
BRANCH   3   4
ATOM      4  C   UNL     1      -1.000   2.193  25.105  0.00  0.00    +0.142 C 
BRANCH   4   5
ATOM      5  C   UNL     1      -1.167   3.001  25.103  0.00  0.00    -0.001 A 
ATOM      6  C   UNL     1      -0.549   3.549  25.088  0.00  0.00    -0.002 A 
ATOM      7  C   UNL     1      -0.716   4.357  25.086  0.00  0.00    +0.010 A 
ATOM      8  C   UNL     1      -1.499   4.617  25.100  0.00  0.00    +0.068 A 
ATOM      9  C   UNL     1      -2.115   4.070  25.115  0.00  0.00    +0.010 A 
ATOM     10  C   UNL     1      -1.950   3.261  25.117  0.00  0.00    -0.002 A 
BRANCH   8  11
ATOM     11  C   UNL     1      -1.664   5.425  25.099  0.00  0.00    +0.100 C 
ATOM     12  N   UNL     1      -1.830   6.234  25.097  0.00  0.00    -0.191 NA
ENDBRANCH   8  11
ENDBRANCH   4   5
ENDBRANCH   3   4
ENDBRANCH  13   2
BRANCH  18  19
ATOM     19  C   UNL     1      -1.875  -0.119  25.230  0.00  0.00    +0.138 C 
BRANCH  19  20
ATOM     20  C   UNL     1      -2.406  -0.684  24.949  0.00  0.00    +0.139 A 
ATOM     21  C   UNL     1      -3.095  -0.532  24.522  0.00  0.00    +0.037 A 
ATOM     22  C   UNL     1      -3.456  -1.254  24.355  0.00  0.00    +0.037 A 
ATOM     23  C   UNL     1      -2.991  -1.853  24.679  0.00  0.00    +0.145 A 
ATOM     24  O   UNL     1      -2.342  -1.501  25.047  0.00  0.00    -0.456 OA
ATOM     25  C   UNL     1      -3.219  -2.642  24.598  0.00  0.00    +0.037 A 
ATOM     26  C   UNL     1      -3.911  -2.832  24.192  0.00  0.00    +0.003 A 
ATOM     27  C   UNL     1      -4.377  -2.233  23.868  0.00  0.00    +0.000 A 
ATOM     28  C   UNL     1      -4.150  -1.444  23.949  0.00  0.00    +0.003 A 
ENDBRANCH  19  20
ENDBRANCH  18  19
TORSDOF 6
ENDMDL
MODEL 4
REMARK VINA RESULT:     -10.7      1.500      4.616
REMARK  Name = 
REMARK  6 active torsions:
REMARK  status: ('A' for Active; 'I' for Inactive)
REMARK    1  A    between atoms: C_2  and  C_13
REMARK    2  A    between atoms: N_3  and  C_4
REMARK    3  A    between atoms: C_4  and  C_5
REMARK    4  A    between atoms: C_8  and  C_11
REMARK    5  A    between atoms: N_18  and  C_19
REMARK    6  A    between atoms: C_19  and  C_20
REMARK                            x       y       z     vdW  Elec       q    Type
REMARK                         _______ _______ _______ _____ _____    ______ ____
ROOT
ATOM     13  C   UNL     1      -1.571   1.809  24.227  0.00  0.00    +0.143 C 
ATOM     14  C   UNL     1      -0.888   1.636  24.657  0.00  0.00    +0.072 C 
ATOM     15  C   UNL     1      -0.699   2.077  25.328  0.00  0.00    +0.077 A 
ATOM     16  C   UNL     1      -1.194   2.691  25.571  0.00  0.00    +0.090 A 
ATOM     17  C   UNL     1      -1.877   2.864  25.142  0.00  0.00    +0.121 C 
ATOM     18  N   UNL     1      -2.066   2.423  24.470  0.00  0.00    -0.255 NA
ATOM     29  N   UNL     1      -0.868   3.027  26.250  0.00  0.00    -0.226 NA
ATOM     30  C   UNL     1      -0.173   2.622  26.427  0.00  0.00    +0.198 A 
ATOM     31  N   UNL     1      -0.068   2.034  25.857  0.00  0.00    -0.227 NA
ENDROOT
BRANCH  13   2
ATOM      1  O   UNL     1      -1.713   1.716  22.809  0.00  0.00    -0.272 OA
ATOM      2  C   UNL     1      -1.759   1.369  23.556  0.00  0.00    +0.257 C 
ATOM      3  N   UNL     1      -1.993   0.581  23.631  0.00  0.00    -0.199 NA
BRANCH   3   4
ATOM      4  C   UNL     1      -2.039   0.234  24.378  0.00  0.00    +0.142 C 
BRANCH   4   5
ATOM      5  C   UNL     1      -2.354  -0.523  24.463  0.00  0.00    -0.001 A 
ATOM      6  C   UNL     1      -1.853  -1.166  24.592  0.00  0.00    -0.002 A 
ATOM      7  C   UNL     1      -2.168  -1.924  24.677  0.00  0.00    +0.010 A 
ATOM      8  C   UNL     1      -2.984  -2.039  24.633  0.00  0.00    +0.068 A 
ATOM      9  C   UNL     1      -3.484  -1.397  24.504  0.00  0.00    +0.010 A 
ATOM     10  C   UNL     1      -3.170  -0.638  24.419  0.00  0.00    -0.002 A 
BRANCH   8  11
ATOM     11  C   UNL     1      -3.298  -2.796  24.717  0.00  0.00    +0.100 C 
ATOM     12  N   UNL     1      -3.613  -3.555  24.802  0.00  0.00    -0.191 NA
ENDBRANCH   8  11
ENDBRANCH   4   5
ENDBRANCH   3   4
ENDBRANCH  13   2
BRANCH  18  19
ATOM     19  C   UNL     1      -2.749   2.597  24.042  0.00  0.00    +0.138 C 
BRANCH  19  20
ATOM     20  C   UNL     1      -3.437   2.825  24.436  0.00  0.00    +0.139 A 
ATOM     21  C   UNL     1      -3.713   3.597  24.523  0.00  0.00    +0.037 A 
ATOM     22  C   UNL     1      -4.416   3.569  24.953  0.00  0.00    +0.037 A 
ATOM     23  C   UNL     1      -4.575   2.779  25.132  0.00  0.00    +0.145 A 
ATOM     24  O   UNL     1      -3.970   2.319  24.813  0.00  0.00    -0.456 OA
ATOM     25  C   UNL     1      -5.250   2.582  25.563  0.00  0.00    +0.037 A 
ATOM     26  C   UNL     1      -5.766   3.174  25.814  0.00  0.00    +0.003 A 
ATOM     27  C   UNL     1      -5.608   3.963  25.635  0.00  0.00    +0.000 A 
ATOM     28  C   UNL     1      -4.933   4.161  25.205  0.00  0.00    +0.003 A 
ENDBRANCH  19  20
ENDBRANCH  18  19
TORSDOF 6
ENDMDL
MODEL 5
REMARK VINA RESULT:     -10.4      2.233      5.674
REMARK  Name = 
REMARK  6 active torsions:
REMARK  status: ('A' for Active; 'I' for Inactive)
REMARK    1  A    between atoms: C_2  and  C_13
REMARK    2  A    between atoms: N_3  and  C_4
REMARK    3  A    between atoms: C_4  and  C_5
REMARK    4  A    between atoms: C_8  and  C_11
REMARK    5  A    between atoms: N_18  and  C_19
REMARK    6  A    between atoms: C_19  and  C_20
REMARK                            x       y       z     vdW  Elec       q    Type
REMARK                         _______ _______ _______ _____ _____    ______ ____
ROOT
ATOM     13  C   UNL     1      -0.736  -0.034  25.107  0.00  0.00    +0.143 C 
ATOM     14  C   UNL     1      -0.336  -0.478  24.538  0.00  0.00    +0.072 C 
ATOM     15  C   UNL     1       0.122  -0.100  23.966  0.00  0.00    +0.077 A 
ATOM     16  C   UNL     1       0.182   0.723  23.964  0.00  0.00    +0.090 A 
ATOM     17  C   UNL     1      -0.216   1.168  24.532  0.00  0.00    +0.121 C 
ATOM     18  N   UNL     1      -0.676   0.789  25.104  0.00  0.00    -0.255 NA
ATOM     29  N   UNL     1       0.672   0.941  23.336  0.00  0.00    -0.226 NA
ATOM     30  C   UNL     1       0.915   0.253  22.951  0.00  0.00    +0.198 A 
ATOM     31  N   UNL     1       0.575  -0.391  23.340  0.00  0.00    -0.227 NA
ENDROOT
BRANCH  13   2
ATOM      1  O   UNL     1      -0.968  -0.387  26.471  0.00  0.00    -0.272 OA
ATOM      2  C   UNL     1      -1.194  -0.412  25.678  0.00  0.00    +0.257 C 
ATOM      3  N   UNL     1      -1.880  -0.814  25.458  0.00  0.00    -0.199 NA
BRANCH   3   4
ATOM      4  C   UNL     1      -2.107  -0.838  24.665  0.00  0.00    +0.142 C 
BRANCH   4   5
ATOM      5  C   UNL     1      -2.756  -1.292  24.435  0.00  0.00    -0.001 A 
ATOM      6  C   UNL     1      -2.717  -2.116  24.473  0.00  0.00    -0.002 A 
ATOM      7  C   UNL     1      -3.366  -2.570  24.242  0.00  0.00    +0.010 A 
ATOM      8  C   UNL     1      -4.054  -2.201  23.974  0.00  0.00    +0.068 A 
ATOM      9  C   UNL     1      -4.092  -1.379  23.937  0.00  0.00    +0.010 A 
ATOM     10  C   UNL     1      -3.443  -0.924  24.167  0.00  0.00    -0.002 A 
BRANCH   8  11
ATOM     11  C   UNL     1      -4.702  -2.656  23.744  0.00  0.00    +0.100 C 
ATOM     12  N   UNL     1      -5.351  -3.111  23.514  0.00  0.00    -0.191 NA
ENDBRANCH   8  11
ENDBRANCH   4   5
ENDBRANCH   3   4
ENDBRANCH  13   2
BRANCH  18  19
ATOM     19  C   UNL     1      -1.075   1.234  25.673  0.00  0.00    +0.138 C 
BRANCH  19  20
ATOM     20  C   UNL     1      -1.254   2.026  25.527  0.00  0.00    +0.139 A 
ATOM     21  C   UNL     1      -0.778   2.673  25.710  0.00  0.00    +0.037 A 
ATOM     22  C   UNL     1      -1.171   3.356  25.468  0.00  0.00    +0.037 A 
ATOM     23  C   UNL     1      -1.892   3.131  25.134  0.00  0.00    +0.145 A 
ATOM     24  O   UNL     1      -1.943   2.309  25.170  0.00  0.00    -0.456 OA
ATOM     25  C   UNL     1      -2.407   3.705  24.841  0.00  0.00    +0.037 A 
ATOM     26  C   UNL     1      -2.203   4.502  24.881  0.00  0.00    +0.003 A 
ATOM     27  C   UNL     1      -1.483   4.728  25.214  0.00  0.00    +0.000 A 
ATOM     28  C   UNL     1      -0.967   4.155  25.508  0.00  0.00    +0.003 A 
ENDBRANCH  19  20
ENDBRANCH  18  19
TORSDOF 6
ENDMDL
MODEL 6
REMARK VINA RESULT:     -10.1      1.461      3.480
REMARK  Name = 
REMARK  6 active torsions:
REMARK  status: ('A' for Active; 'I' for Inactive)
REMARK    1  A    between atoms: C_2  and  C_13
REMARK    2  A    between atoms: N_3  and  C_4
REMARK    3  A    between atoms: C_4  and  C_5
REMARK    4  A    between atoms: C_8  and  C_11
REMARK    5  A    between atoms: N_18  and  C_19
REMARK    6  A    between atoms: C_19  and  C_20
REMARK                            x       y       z     vdW  Elec       q    Type
REMARK                         _______ _______ _______ _____ _____    ______ ____
ROOT
ATOM     13  C   UNL     1      -2.085   1.678  23.648  0.00  0.00    +0.143 C 
ATOM     14  C   UNL     1      -1.477   2.187  23.879  0.00  0.00    +0.072 C 
ATOM     15  C   UNL     1      -0.868   1.911  24.361  0.00  0.00    +0.077 A 
ATOM     16  C   UNL     1      -0.866   1.125  24.613  0.00  0.00    +0.090 A 
ATOM     17  C   UNL     1      -1.472   0.616  24.383  0.00  0.00    +0.121 C 
ATOM     18  N   UNL     1      -2.082   0.893  23.900  0.00  0.00    -0.255 NA
ATOM     29  N   UNL     1      -0.197   1.010  25.083  0.00  0.00    -0.226 NA
ATOM     30  C   UNL     1       0.214   1.725  25.121  0.00  0.00    +0.198 A 
ATOM     31  N   UNL     1      -0.201   2.282  24.675  0.00  0.00    -0.227 NA
ENDROOT
BRANCH  13   2
ATOM      1  O   UNL     1      -2.703   1.764  22.364  0.00  0.00    -0.272 OA
ATOM      2  C   UNL     1      -2.694   1.954  23.166  0.00  0.00    +0.257 C 
ATOM      3  N   UNL     1      -3.295   2.421  23.486  0.00  0.00    -0.199 NA
BRANCH   3   4
ATOM      4  C   UNL     1      -3.286   2.611  24.289  0.00  0.00    +0.142 C 
BRANCH   4   5
ATOM      5  C   UNL     1      -3.912   3.034  24.620  0.00  0.00    -0.001 A 
ATOM      6  C   UNL     1      -3.873   3.857  24.668  0.00  0.00    -0.002 A 
ATOM      7  C   UNL     1      -4.499   4.280  24.999  0.00  0.00    +0.010 A 
ATOM      8  C   UNL     1      -5.163   3.881  25.283  0.00  0.00    +0.068 A 
ATOM      9  C   UNL     1      -5.201   3.059  25.235  0.00  0.00    +0.010 A 
ATOM     10  C   UNL     1      -4.576   2.635  24.903  0.00  0.00    -0.002 A 
BRANCH   8  11
ATOM     11  C   UNL     1      -5.788   4.304  25.614  0.00  0.00    +0.100 C 
ATOM     12  N   UNL     1      -6.415   4.728  25.945  0.00  0.00    -0.191 NA
ENDBRANCH   8  11
ENDBRANCH   4   5
ENDBRANCH   3   4
ENDBRANCH  13   2
BRANCH  18  19
ATOM     19  C   UNL     1      -2.688   0.383  23.670  0.00  0.00    +0.138 C 
BRANCH  19  20
ATOM     20  C   UNL     1      -2.765  -0.356  24.029  0.00  0.00    +0.139 A 
ATOM     21  C   UNL     1      -3.325  -0.563  24.598  0.00  0.00    +0.037 A 
ATOM     22  C   UNL     1      -3.201  -1.352  24.802  0.00  0.00    +0.037 A 
ATOM     23  C   UNL     1      -2.565  -1.634  24.358  0.00  0.00    +0.145 A 
ATOM     24  O   UNL     1      -2.296  -1.018  23.880  0.00  0.00    -0.456 OA
ATOM     25  C   UNL     1      -2.314  -2.415  24.448  0.00  0.00    +0.037 A 
ATOM     26  C   UNL     1      -2.699  -2.914  24.979  0.00  0.00    +0.003 A 
ATOM     27  C   UNL     1      -3.335  -2.632  25.423  0.00  0.00    +0.000 A 
ATOM     28  C   UNL     1      -3.587  -1.852  25.335  0.00  0.00    +0.003 A 
ENDBRANCH  19  20
ENDBRANCH  18  19
TORSDOF 6
ENDMDL
MODEL 7
REMARK VINA RESULT:     -10.0      2.410      4.029
REMARK  Name = 
REMARK  6 active torsions:
REMARK  status: ('A' for Active; 'I' for Inactive)
REMARK    1  A    between atoms: C_2  and  C_13
REMARK    2  A    between atoms: N_3  and  C_4
REMARK    3  A    between atoms: C_4  and  C_5
REMARK    4  A    between atoms: C_8  and  C_11
REMARK    5  A    between atoms: N_18  and  C_19
REMARK    6  A    between atoms: C_19  and  C_20
REMARK                            x       y       z     vdW  Elec       q    Type
REMARK                         _______ _______ _______ _____ _____    ______ ____
ROOT
ATOM     13  C   UNL     1      -2.493  -0.916  25.105  0.00  0.00    +0.143 C 
ATOM     14  C   UNL     1      -2.541  -1.715  24.907  0.00  0.00    +0.072 C 
ATOM     15  C   UNL     1      -3.185  -1.996  24.475  0.00  0.00    +0.077 A 
ATOM     16  C   UNL     1      -3.782  -1.478  24.241  0.00  0.00    +0.090 A 
ATOM     17  C   UNL     1      -3.736  -0.678  24.439  0.00  0.00    +0.121 C 
ATOM     18  N   UNL     1      -3.091  -0.397  24.871  0.00  0.00    -0.255 NA
ATOM     29  N   UNL     1      -4.347  -1.911  23.823  0.00  0.00    -0.226 NA
ATOM     30  C   UNL     1      -4.099  -2.697  23.799  0.00  0.00    +0.198 A 
ATOM     31  N   UNL     1      -3.380  -2.750  24.202  0.00  0.00    -0.227 NA
ENDROOT
BRANCH  13   2
ATOM      1  O   UNL     1      -1.910  -0.540  26.353  0.00  0.00    -0.272 OA
ATOM      2  C   UNL     1      -1.850  -0.634  25.536  0.00  0.00    +0.257 C 
ATOM      3  N   UNL     1      -1.144  -0.448  25.151  0.00  0.00    -0.199 NA
BRANCH   3   4
ATOM      4  C   UNL     1      -1.083  -0.543  24.333  0.00  0.00    +0.142 C 
BRANCH   4   5
ATOM      5  C   UNL     1      -0.372  -0.377  23.950  0.00  0.00    -0.001 A 
ATOM      6  C   UNL     1       0.180  -0.979  23.828  0.00  0.00    -0.002 A 
ATOM      7  C   UNL     1       0.892  -0.814  23.445  0.00  0.00    +0.010 A 
ATOM      8  C   UNL     1       1.052  -0.048  23.184  0.00  0.00    +0.068 A 
ATOM      9  C   UNL     1       0.501   0.553  23.306  0.00  0.00    +0.010 A 
ATOM     10  C   UNL     1      -0.211   0.389  23.689  0.00  0.00    -0.002 A 
BRANCH   8  11
ATOM     11  C   UNL     1       1.763   0.117  22.801  0.00  0.00    +0.100 C 
ATOM     12  N   UNL     1       2.476   0.281  22.417  0.00  0.00    -0.191 NA
ENDBRANCH   8  11
ENDBRANCH   4   5
ENDBRANCH   3   4
ENDBRANCH  13   2
BRANCH  18  19
ATOM     19  C   UNL     1      -3.045   0.403  25.068  0.00  0.00    +0.138 C 
BRANCH  19  20
ATOM     20  C   UNL     1      -3.725   0.869  25.064  0.00  0.00    +0.139 A 
ATOM     21  C   UNL     1      -3.846   1.546  24.608  0.00  0.00    +0.037 A 
ATOM     22  C   UNL     1      -4.599   1.835  24.777  0.00  0.00    +0.037 A 
ATOM     23  C   UNL     1      -4.944   1.338  25.338  0.00  0.00    +0.145 A 
ATOM     24  O   UNL     1      -4.404   0.741  25.515  0.00  0.00    -0.456 OA
ATOM     25  C   UNL     1      -5.706   1.494  25.615  0.00  0.00    +0.037 A 
ATOM     26  C   UNL     1      -6.122   2.146  25.331  0.00  0.00    +0.003 A 
ATOM     27  C   UNL     1      -5.778   2.644  24.770  0.00  0.00    +0.000 A 
ATOM     28  C   UNL     1      -5.017   2.489  24.493  0.00  0.00    +0.003 A 
ENDBRANCH  19  20
ENDBRANCH  18  19
TORSDOF 6
ENDMDL
