MODEL 1
REMARK VINA RESULT:     -10.3      0.000      0.000
REMARK  Name = 
REMARK  5 active torsions:
REMARK  status: ('A' for Active; 'I' for Inactive)
REMARK    1  A    between atoms: C_7  and  N_10
REMARK    2  A    between atoms: N_10  and  C_11
REMARK    3  A    between atoms: C_14  and  C_15
REMARK    4  A    between atoms: C_15  and  N_16
REMARK    5  A    between atoms: C_17  and  C_19
REMARK                            x       y       z     vdW  Elec       q    Type
REMARK                         _______ _______ _______ _____ _____    ______ ____
ROOT
ATOM     11  C   UNL     1      -3.993   1.266  24.652  0.00  0.00    +0.135 C 
ATOM     12  C   UNL     1      -3.272   1.268  24.251  0.00  0.00    +0.162 C 
ATOM     13  O   UNL     1      -2.900   1.989  24.402  0.00  0.00    -0.350 OA
ATOM     14  C   UNL     1      -3.390   2.432  24.895  0.00  0.00    +0.169 C 
ATOM     22  C   UNL     1      -4.066   1.985  25.050  0.00  0.00    +0.199 C 
ATOM     23  O   UNL     1      -4.704   2.216  25.521  0.00  0.00    -0.219 OA
ENDROOT
BRANCH  11  10
ATOM     10  N   UNL     1      -4.544   0.652  24.655  0.00  0.00    -0.216 NA
BRANCH  10   7
ATOM      1  C   UNL     1      -3.539  -2.953  24.114  0.00  0.00    +0.095 C 
ATOM      2  C   UNL     1      -3.520  -2.482  24.792  0.00  0.00    +0.226 C 
ATOM      3  O   UNL     1      -3.246  -2.797  25.504  0.00  0.00    -0.275 OA
ATOM      4  N   UNL     1      -3.777  -1.698  24.758  0.00  0.00    -0.279 N 
ATOM      5  C   UNL     1      -3.757  -1.229  25.435  0.00  0.00    +0.095 C 
ATOM      6  C   UNL     1      -4.014  -0.445  25.401  0.00  0.00    +0.039 C 
ATOM      7  C   UNL     1      -4.288  -0.132  24.689  0.00  0.00    +0.076 C 
ATOM      8  C   UNL     1      -4.307  -0.602  24.011  0.00  0.00    +0.039 C 
ATOM      9  C   UNL     1      -4.051  -1.386  24.046  0.00  0.00    +0.095 C 
ENDBRANCH  10   7
ENDBRANCH  11  10
BRANCH  14  15
ATOM     15  C   UNL     1      -3.234   3.189  25.184  0.00  0.00    +0.147 C 
BRANCH  15  16
ATOM     16  N   UNL     1      -2.537   3.576  24.971  0.00  0.00    -0.203 NA
ATOM     17  C   UNL     1      -2.294   4.246  25.386  0.00  0.00    +0.241 C 
ATOM     18  O   UNL     1      -2.747   4.528  26.016  0.00  0.00    -0.273 OA
BRANCH  17  19
ATOM     19  C   UNL     1      -1.598   4.633  25.173  0.00  0.00    +0.078 C 
ATOM     20  C   UNL     1      -1.197   5.328  24.977  0.00  0.00    +0.010 C 
ATOM     21  C   UNL     1      -0.791   4.610  25.000  0.00  0.00    +0.010 C 
ENDBRANCH  17  19
ENDBRANCH  15  16
ENDBRANCH  14  15
TORSDOF 5
ENDMDL
MODEL 2
REMARK VINA RESULT:      -9.4      1.928      5.751
REMARK  Name = 
REMARK  5 active torsions:
REMARK  status: ('A' for Active; 'I' for Inactive)
REMARK    1  A    between atoms: C_7  and  N_10
REMARK    2  A    between atoms: N_10  and  C_11
REMARK    3  A    between atoms: C_14  and  C_15
REMARK    4  A    between atoms: C_15  and  N_16
REMARK    5  A    between atoms: C_17  and  C_19
REMARK                            x       y       z     vdW  Elec       q    Type
REMARK                         _______ _______ _______ _____ _____    ______ ____
ROOT
ATOM     11  C   UNL     1      -0.918   0.905  25.207  0.00  0.00    +0.135 C 
ATOM     12  C   UNL     1      -1.124   0.983  24.411  0.00  0.00    +0.162 C 
ATOM     13  O   UNL     1      -1.468   0.273  24.167  0.00  0.00    -0.350 OA
ATOM     14  C   UNL     1      -1.475  -0.242  24.811  0.00  0.00    +0.169 C 
ATOM     22  C   UNL     1      -1.135   0.148  25.454  0.00  0.00    +0.199 C 
ATOM     23  O   UNL     1      -1.030  -0.163  26.211  0.00  0.00    -0.219 OA
ENDROOT
BRANCH  11  10
ATOM     10  N   UNL     1      -0.558   1.483  25.673  0.00  0.00    -0.216 NA
BRANCH  10   7
ATOM      1  C   UNL     1      -1.816   5.034  25.348  0.00  0.00    +0.095 C 
ATOM      2  C   UNL     1      -1.126   4.677  25.069  0.00  0.00    +0.226 C 
ATOM      3  O   UNL     1      -0.578   5.120  24.640  0.00  0.00    -0.275 OA
ATOM      4  N   UNL     1      -0.984   3.878  25.220  0.00  0.00    -0.279 N 
ATOM      5  C   UNL     1      -0.293   3.523  24.942  0.00  0.00    +0.095 C 
ATOM      6  C   UNL     1      -0.152   2.724  25.093  0.00  0.00    +0.039 C 
ATOM      7  C   UNL     1      -0.700   2.282  25.522  0.00  0.00    +0.076 C 
ATOM      8  C   UNL     1      -1.390   2.637  25.800  0.00  0.00    +0.039 C 
ATOM      9  C   UNL     1      -1.532   3.436  25.649  0.00  0.00    +0.095 C 
ENDBRANCH  10   7
ENDBRANCH  11  10
BRANCH  14  15
ATOM     15  C   UNL     1      -1.770  -1.013  24.813  0.00  0.00    +0.147 C 
BRANCH  15  16
ATOM     16  N   UNL     1      -2.527  -1.166  24.522  0.00  0.00    -0.203 NA
ATOM     17  C   UNL     1      -2.801  -1.942  24.477  0.00  0.00    +0.241 C 
ATOM     18  O   UNL     1      -2.320  -2.566  24.723  0.00  0.00    -0.273 OA
BRANCH  17  19
ATOM     19  C   UNL     1      -3.558  -2.096  24.186  0.00  0.00    +0.078 C 
ATOM     20  C   UNL     1      -4.136  -2.634  23.947  0.00  0.00    +0.010 C 
ATOM     21  C   UNL     1      -4.291  -1.824  23.922  0.00  0.00    +0.010 C 
ENDBRANCH  17  19
ENDBRANCH  15  16
ENDBRANCH  14  15
TORSDOF 5
ENDMDL
MODEL 3
REMARK VINA RESULT:      -9.0      1.041      5.287
REMARK  Name = 
REMARK  5 active torsions:
REMARK  status: ('A' for Active; 'I' for Inactive)
REMARK    1  A    between atoms: C_7  and  N_10
REMARK    2  A    between atoms: N_10  and  C_11
REMARK    3  A    between atoms: C_14  and  C_15
REMARK    4  A    between atoms: C_15  and  N_16
REMARK    5  A    between atoms: C_17  and  C_19
REMARK                            x       y       z     vdW  Elec       q    Type
REMARK                         _______ _______ _______ _____ _____    ______ ____
ROOT
ATOM     11  C   UNL     1      -3.818   1.772  24.616  0.00  0.00    +0.135 C 
ATOM     12  C   UNL     1      -3.338   1.625  23.961  0.00  0.00    +0.162 C 
ATOM     13  O   UNL     1      -3.453   0.840  23.734  0.00  0.00    -0.350 OA
ATOM     14  C   UNL     1      -4.002   0.503  24.247  0.00  0.00    +0.169 C 
ATOM     22  C   UNL     1      -4.228   1.079  24.793  0.00  0.00    +0.199 C 
ATOM     23  O   UNL     1      -4.769   0.980  25.409  0.00  0.00    -0.219 OA
ENDROOT
BRANCH  11  10
ATOM     10  N   UNL     1      -3.876   2.488  25.023  0.00  0.00    -0.216 NA
BRANCH  10   7
ATOM      1  C   UNL     1      -1.300   5.251  24.860  0.00  0.00    +0.095 C 
ATOM      2  C   UNL     1      -1.267   4.501  25.203  0.00  0.00    +0.226 C 
ATOM      3  O   UNL     1      -0.582   4.255  25.592  0.00  0.00    -0.275 OA
ATOM      4  N   UNL     1      -1.920   3.998  25.158  0.00  0.00    -0.279 N 
ATOM      5  C   UNL     1      -1.886   3.249  25.502  0.00  0.00    +0.095 C 
ATOM      6  C   UNL     1      -2.539   2.745  25.456  0.00  0.00    +0.039 C 
ATOM      7  C   UNL     1      -3.223   2.992  25.068  0.00  0.00    +0.076 C 
ATOM      8  C   UNL     1      -3.257   3.741  24.725  0.00  0.00    +0.039 C 
ATOM      9  C   UNL     1      -2.604   4.244  24.770  0.00  0.00    +0.095 C 
ENDBRANCH  10   7
ENDBRANCH  11  10
BRANCH  14  15
ATOM     15  C   UNL     1      -4.278  -0.274  24.222  0.00  0.00    +0.147 C 
BRANCH  15  16
ATOM     16  N   UNL     1      -3.769  -0.900  24.396  0.00  0.00    -0.203 NA
ATOM     17  C   UNL     1      -3.989  -1.673  24.217  0.00  0.00    +0.241 C 
ATOM     18  O   UNL     1      -4.719  -1.823  23.862  0.00  0.00    -0.273 OA
BRANCH  17  19
ATOM     19  C   UNL     1      -3.480  -2.298  24.392  0.00  0.00    +0.078 C 
ATOM     20  C   UNL     1      -3.360  -3.100  24.547  0.00  0.00    +0.010 C 
ATOM     21  C   UNL     1      -2.719  -2.581  24.539  0.00  0.00    +0.010 C 
ENDBRANCH  17  19
ENDBRANCH  15  16
ENDBRANCH  14  15
TORSDOF 5
ENDMDL
MODEL 4
REMARK VINA RESULT:      -8.6      2.058      2.514
REMARK  Name = 
REMARK  5 active torsions:
REMARK  status: ('A' for Active; 'I' for Inactive)
REMARK    1  A    between atoms: C_7  and  N_10
REMARK    2  A    between atoms: N_10  and  C_11
REMARK    3  A    between atoms: C_14  and  C_15
REMARK    4  A    between atoms: C_15  and  N_16
REMARK    5  A    between atoms: C_17  and  C_19
REMARK                            x       y       z     vdW  Elec       q    Type
REMARK                         _______ _______ _______ _____ _____    ______ ____
ROOT
ATOM     11  C   UNL     1      -0.776   0.251  24.871  0.00  0.00    +0.135 C 
ATOM     12  C   UNL     1      -1.131   0.492  25.576  0.00  0.00    +0.162 C 
ATOM     13  O   UNL     1      -1.043   1.310  25.637  0.00  0.00    -0.350 OA
ATOM     14  C   UNL     1      -0.634   1.574  24.971  0.00  0.00    +0.169 C 
ATOM     22  C   UNL     1      -0.469   0.919  24.497  0.00  0.00    +0.199 C 
ATOM     23  O   UNL     1      -0.068   0.930  23.776  0.00  0.00    -0.219 OA
ENDROOT
BRANCH  11  10
ATOM     10  N   UNL     1      -0.736  -0.524  24.589  0.00  0.00    -0.216 NA
BRANCH  10   7
ATOM      1  C   UNL     1      -4.067  -2.258  24.148  0.00  0.00    +0.095 C 
ATOM      2  C   UNL     1      -3.424  -2.437  24.634  0.00  0.00    +0.226 C 
ATOM      3  O   UNL     1      -3.455  -3.095  25.131  0.00  0.00    -0.275 OA
ATOM      4  N   UNL     1      -2.752  -1.959  24.623  0.00  0.00    -0.279 N 
ATOM      5  C   UNL     1      -2.110  -2.139  25.109  0.00  0.00    +0.095 C 
ATOM      6  C   UNL     1      -1.438  -1.660  25.098  0.00  0.00    +0.039 C 
ATOM      7  C   UNL     1      -1.408  -1.003  24.600  0.00  0.00    +0.076 C 
ATOM      8  C   UNL     1      -2.050  -0.823  24.114  0.00  0.00    +0.039 C 
ATOM      9  C   UNL     1      -2.722  -1.302  24.126  0.00  0.00    +0.095 C 
ENDBRANCH  10   7
ENDBRANCH  11  10
BRANCH  14  15
ATOM     15  C   UNL     1      -0.426   2.355  24.807  0.00  0.00    +0.147 C 
BRANCH  15  16
ATOM     16  N   UNL     1      -0.913   2.974  25.055  0.00  0.00    -0.203 NA
ATOM     17  C   UNL     1      -0.753   3.746  24.815  0.00  0.00    +0.241 C 
ATOM     18  O   UNL     1      -0.106   3.902  24.327  0.00  0.00    -0.273 OA
BRANCH  17  19
ATOM     19  C   UNL     1      -1.240   4.364  25.064  0.00  0.00    +0.078 C 
ATOM     20  C   UNL     1      -1.390   5.173  25.130  0.00  0.00    +0.010 C 
ATOM     21  C   UNL     1      -1.932   4.627  25.427  0.00  0.00    +0.010 C 
ENDBRANCH  17  19
ENDBRANCH  15  16
ENDBRANCH  14  15
TORSDOF 5
ENDMDL
MODEL 5
REMARK VINA RESULT:      -7.3     17.815     19.267
REMARK  Name = 
REMARK  5 active torsions:
REMARK  status: ('A' for Active; 'I' for Inactive)
REMARK    1  A    between atoms: C_7  and  N_10
REMARK    2  A    between atoms: N_10  and  C_11
REMARK    3  A    between atoms: C_14  and  C_15
REMARK    4  A    between atoms: C_15  and  N_16
REMARK    5  A    between atoms: C_17  and  C_19
REMARK                            x       y       z     vdW  Elec       q    Type
REMARK                         _______ _______ _______ _____ _____    ______ ____
ROOT
ATOM     11  C   UNL     1      13.330   6.936  19.560  0.00  0.00    +0.135 C 
ATOM     12  C   UNL     1      13.731   7.093  18.857  0.00  0.00    +0.162 C 
ATOM     13  O   UNL     1      13.191   7.418  18.324  0.00  0.00    -0.350 OA
ATOM     14  C   UNL     1      12.457   7.460  18.697  0.00  0.00    +0.169 C 
ATOM     22  C   UNL     1      12.543   7.162  19.462  0.00  0.00    +0.199 C 
ATOM     23  O   UNL     1      11.946   7.101  20.029  0.00  0.00    -0.219 OA
ENDROOT
BRANCH  11  10
ATOM     10  N   UNL     1      13.659   6.608  20.243  0.00  0.00    -0.216 NA
BRANCH  10   7
ATOM      1  C   UNL     1      17.389   6.870  20.798  0.00  0.00    +0.095 C 
ATOM      2  C   UNL     1      16.767   7.329  21.086  0.00  0.00    +0.226 C 
ATOM      3  O   UNL     1      16.922   7.969  21.584  0.00  0.00    -0.275 OA
ATOM      4  N   UNL     1      15.989   7.149  20.875  0.00  0.00    -0.279 N 
ATOM      5  C   UNL     1      15.368   7.608  21.162  0.00  0.00    +0.095 C 
ATOM      6  C   UNL     1      14.590   7.428  20.952  0.00  0.00    +0.039 C 
ATOM      7  C   UNL     1      14.436   6.789  20.454  0.00  0.00    +0.076 C 
ATOM      8  C   UNL     1      15.058   6.329  20.166  0.00  0.00    +0.039 C 
ATOM      9  C   UNL     1      15.835   6.510  20.377  0.00  0.00    +0.095 C 
ENDBRANCH  10   7
ENDBRANCH  11  10
BRANCH  14  15
ATOM     15  C   UNL     1      11.760   7.750  18.365  0.00  0.00    +0.147 C 
BRANCH  15  16
ATOM     16  N   UNL     1      11.765   8.068  17.604  0.00  0.00    -0.203 NA
ATOM     17  C   UNL     1      11.076   8.391  17.287  0.00  0.00    +0.241 C 
ATOM     18  O   UNL     1      10.380   8.396  17.731  0.00  0.00    -0.273 OA
BRANCH  17  19
ATOM     19  C   UNL     1      11.081   8.709  16.526  0.00  0.00    +0.078 C 
ATOM     20  C   UNL     1      10.690   8.877  15.819  0.00  0.00    +0.010 C 
ATOM     21  C   UNL     1      11.481   9.091  15.914  0.00  0.00    +0.010 C 
ENDBRANCH  17  19
ENDBRANCH  15  16
ENDBRANCH  14  15
TORSDOF 5
ENDMDL
MODEL 6
REMARK VINA RESULT:      -7.0     16.027     18.764
REMARK  Name = 
REMARK  5 active torsions:
REMARK  status: ('A' for Active; 'I' for Inactive)
REMARK    1  A    between atoms: C_7  and  N_10
REMARK    2  A    between atoms: N_10  and  C_11
REMARK    3  A    between atoms: C_14  and  C_15
REMARK    4  A    between atoms: C_15  and  N_16
REMARK    5  A    between atoms: C_17  and  C_19
REMARK                            x       y       z     vdW  Elec       q    Type
REMARK                         _______ _______ _______ _____ _____    ______ ____
ROOT
ATOM     11  C   UNL     1      12.913   7.692  19.622  0.00  0.00    +0.135 C 
ATOM     12  C   UNL     1      13.399   7.745  20.287  0.00  0.00    +0.162 C 
ATOM     13  O   UNL     1      14.138   7.439  20.087  0.00  0.00    -0.350 OA
ATOM     14  C   UNL     1      14.110   7.196  19.299  0.00  0.00    +0.169 C 
ATOM     22  C   UNL     1      13.352   7.353  19.012  0.00  0.00    +0.199 C 
ATOM     23  O   UNL     1      13.081   7.198  18.248  0.00  0.00    -0.219 OA
ENDROOT
BRANCH  11  10
ATOM     10  N   UNL     1      12.126   7.935  19.576  0.00  0.00    -0.216 NA
BRANCH  10   7
ATOM      1  C   UNL     1      10.260   9.094  22.654  0.00  0.00    +0.095 C 
ATOM      2  C   UNL     1      10.361   8.339  22.335  0.00  0.00    +0.226 C 
ATOM      3  O   UNL     1      10.019   7.686  22.706  0.00  0.00    -0.275 OA
ATOM      4  N   UNL     1      10.802   8.238  21.645  0.00  0.00    -0.279 N 
ATOM      5  C   UNL     1      10.902   7.484  21.327  0.00  0.00    +0.095 C 
ATOM      6  C   UNL     1      11.343   7.383  20.637  0.00  0.00    +0.039 C 
ATOM      7  C   UNL     1      11.684   8.036  20.266  0.00  0.00    +0.076 C 
ATOM      8  C   UNL     1      11.584   8.790  20.585  0.00  0.00    +0.039 C 
ATOM      9  C   UNL     1      11.143   8.891  21.275  0.00  0.00    +0.095 C 
ENDBRANCH  10   7
ENDBRANCH  11  10
BRANCH  14  15
ATOM     15  C   UNL     1      14.729   6.857  18.873  0.00  0.00    +0.147 C 
BRANCH  15  16
ATOM     16  N   UNL     1      15.443   6.683  19.248  0.00  0.00    -0.203 NA
ATOM     17  C   UNL     1      16.061   6.345  18.821  0.00  0.00    +0.241 C 
ATOM     18  O   UNL     1      15.968   6.181  18.017  0.00  0.00    -0.273 OA
BRANCH  17  19
ATOM     19  C   UNL     1      16.775   6.170  19.197  0.00  0.00    +0.078 C 
ATOM     20  C   UNL     1      17.381   5.636  19.367  0.00  0.00    +0.010 C 
ATOM     21  C   UNL     1      17.405   6.401  19.677  0.00  0.00    +0.010 C 
ENDBRANCH  17  19
ENDBRANCH  15  16
ENDBRANCH  14  15
TORSDOF 5
ENDMDL
MODEL 7
REMARK VINA RESULT:      -6.8     14.623     17.313
REMARK  Name = 
REMARK  5 active torsions:
REMARK  status: ('A' for Active; 'I' for Inactive)
REMARK    1  A    between atoms: C_7  and  N_10
REMARK    2  A    between atoms: N_10  and  C_11
REMARK    3  A    between atoms: C_14  and  C_15
REMARK    4  A    between atoms: C_15  and  N_16
REMARK    5  A    between atoms: C_17  and  C_19
REMARK                            x       y       z     vdW  Elec       q    Type
REMARK                         _______ _______ _______ _____ _____    ______ ____
ROOT
ATOM     11  C   UNL     1      -2.864 -10.627  12.418  0.00  0.00    +0.135 C 
ATOM     12  C   UNL     1      -3.675 -10.618  12.571  0.00  0.00    +0.162 C 
ATOM     13  O   UNL     1      -3.780 -10.650  13.389  0.00  0.00    -0.350 OA
ATOM     14  C   UNL     1      -3.035 -10.678  13.741  0.00  0.00    +0.169 C 
ATOM     22  C   UNL     1      -2.468 -10.664  13.141  0.00  0.00    +0.199 C 
ATOM     23  O   UNL     1      -1.650 -10.684  13.245  0.00  0.00    -0.219 OA
ENDROOT
BRANCH  11  10
ATOM     10  N   UNL     1      -2.512 -10.603  11.672  0.00  0.00    -0.216 NA
BRANCH  10   7
ATOM      1  C   UNL     1      -4.662  -9.810   8.666  0.00  0.00    +0.095 C 
ATOM      2  C   UNL     1      -4.156  -9.332   9.110  0.00  0.00    +0.226 C 
ATOM      3  O   UNL     1      -4.063  -8.536   8.912  0.00  0.00    -0.275 OA
ATOM      4  N   UNL     1      -3.745  -9.650   9.751  0.00  0.00    -0.279 N 
ATOM      5  C   UNL     1      -3.240  -9.172  10.194  0.00  0.00    +0.095 C 
ATOM      6  C   UNL     1      -2.829  -9.490  10.835  0.00  0.00    +0.039 C 
ATOM      7  C   UNL     1      -2.923 -10.285  11.031  0.00  0.00    +0.076 C 
ATOM      8  C   UNL     1      -3.428 -10.763  10.588  0.00  0.00    +0.039 C 
ATOM      9  C   UNL     1      -3.840 -10.445   9.947  0.00  0.00    +0.095 C 
ENDBRANCH  10   7
ENDBRANCH  11  10
BRANCH  14  15
ATOM     15  C   UNL     1      -2.881 -10.714  14.551  0.00  0.00    +0.147 C 
BRANCH  15  16
ATOM     16  N   UNL     1      -3.494 -10.604  15.093  0.00  0.00    -0.203 NA
ATOM     17  C   UNL     1      -3.338 -10.634  15.902  0.00  0.00    +0.241 C 
ATOM     18  O   UNL     1      -2.570 -10.773  16.170  0.00  0.00    -0.273 OA
BRANCH  17  19
ATOM     19  C   UNL     1      -3.950 -10.524  16.444  0.00  0.00    +0.078 C 
ATOM     20  C   UNL     1      -4.584 -10.075  16.726  0.00  0.00    +0.010 C 
ATOM     21  C   UNL     1      -4.379 -10.781  17.100  0.00  0.00    +0.010 C 
ENDBRANCH  17  19
ENDBRANCH  15  16
ENDBRANCH  14  15
TORSDOF 5
ENDMDL
MODEL 8
REMARK VINA RESULT:      -6.7     17.884     19.579
REMARK  Name = 
REMARK  5 active torsions:
REMARK  status: ('A' for Active; 'I' for Inactive)
REMARK    1  A    between atoms: C_7  and  N_10
REMARK    2  A    between atoms: N_10  and  C_11
REMARK    3  A    between atoms: C_14  and  C_15
REMARK    4  A    between atoms: C_15  and  N_16
REMARK    5  A    between atoms: C_17  and  C_19
REMARK                            x       y       z     vdW  Elec       q    Type
REMARK                         _______ _______ _______ _____ _____    ______ ____
ROOT
ATOM     11  C   UNL     1      13.197   7.962  19.266  0.00  0.00    +0.135 C 
ATOM     12  C   UNL     1      13.172   7.214  18.918  0.00  0.00    +0.162 C 
ATOM     13  O   UNL     1      13.831   6.791  19.179  0.00  0.00    -0.350 OA
ATOM     14  C   UNL     1      14.262   7.276  19.687  0.00  0.00    +0.169 C 
ATOM     22  C   UNL     1      13.870   8.000  19.741  0.00  0.00    +0.199 C 
ATOM     23  O   UNL     1      14.109   8.649  20.191  0.00  0.00    -0.219 OA
ENDROOT
BRANCH  11  10
ATOM     10  N   UNL     1      12.644   8.565  19.157  0.00  0.00    -0.216 NA
BRANCH  10   7
ATOM      1  C   UNL     1      11.323   9.094  15.654  0.00  0.00    +0.095 C 
ATOM      2  C   UNL     1      10.964   8.772  16.324  0.00  0.00    +0.226 C 
ATOM      3  O   UNL     1      10.185   8.503  16.285  0.00  0.00    -0.275 OA
ATOM      4  N   UNL     1      11.384   8.720  17.033  0.00  0.00    -0.279 N 
ATOM      5  C   UNL     1      11.025   8.399  17.702  0.00  0.00    +0.095 C 
ATOM      6  C   UNL     1      11.445   8.347  18.411  0.00  0.00    +0.039 C 
ATOM      7  C   UNL     1      12.224   8.617  18.448  0.00  0.00    +0.076 C 
ATOM      8  C   UNL     1      12.583   8.938  17.779  0.00  0.00    +0.039 C 
ATOM      9  C   UNL     1      12.163   8.990  17.071  0.00  0.00    +0.095 C 
ENDBRANCH  10   7
ENDBRANCH  11  10
BRANCH  14  15
ATOM     15  C   UNL     1      14.962   7.074  20.074  0.00  0.00    +0.147 C 
BRANCH  15  16
ATOM     16  N   UNL     1      15.562   6.684  19.665  0.00  0.00    -0.203 NA
ATOM     17  C   UNL     1      16.262   6.483  20.053  0.00  0.00    +0.241 C 
ATOM     18  O   UNL     1      16.361   6.672  20.850  0.00  0.00    -0.273 OA
BRANCH  17  19
ATOM     19  C   UNL     1      16.862   6.093  19.644  0.00  0.00    +0.078 C 
ATOM     20  C   UNL     1      17.361   6.036  18.988  0.00  0.00    +0.010 C 
ATOM     21  C   UNL     1      17.405   5.474  19.590  0.00  0.00    +0.010 C 
ENDBRANCH  17  19
ENDBRANCH  15  16
ENDBRANCH  14  15
TORSDOF 5
ENDMDL
MODEL 9
REMARK VINA RESULT:      -6.4     15.710     18.619
REMARK  Name = 
REMARK  5 active torsions:
REMARK  status: ('A' for Active; 'I' for Inactive)
REMARK    1  A    between atoms: C_7  and  N_10
REMARK    2  A    between atoms: N_10  and  C_11
REMARK    3  A    between atoms: C_14  and  C_15
REMARK    4  A    between atoms: C_15  and  N_16
REMARK    5  A    between atoms: C_17  and  C_19
REMARK                            x       y       z     vdW  Elec       q    Type
REMARK                         _______ _______ _______ _____ _____    ______ ____
ROOT
ATOM     11  C   UNL     1      12.489   8.399  19.192  0.00  0.00    +0.135 C 
ATOM     12  C   UNL     1      12.449   7.650  18.850  0.00  0.00    +0.162 C 
ATOM     13  O   UNL     1      12.189   7.120  19.428  0.00  0.00    -0.350 OA
ATOM     14  C   UNL     1      12.070   7.542  20.126  0.00  0.00    +0.169 C 
ATOM     22  C   UNL     1      12.255   8.333  19.981  0.00  0.00    +0.199 C 
ATOM     23  O   UNL     1      12.214   8.950  20.527  0.00  0.00    -0.219 OA
ENDROOT
BRANCH  11  10
ATOM     10  N   UNL     1      12.724   9.094  18.812  0.00  0.00    -0.216 NA
BRANCH  10   7
ATOM      1  C   UNL     1      14.411   8.975  15.431  0.00  0.00    +0.095 C 
ATOM      2  C   UNL     1      13.612   9.015  15.635  0.00  0.00    +0.226 C 
ATOM      3  O   UNL     1      13.036   9.035  15.044  0.00  0.00    -0.275 OA
ATOM      4  N   UNL     1      13.390   9.035  16.430  0.00  0.00    -0.279 N 
ATOM      5  C   UNL     1      12.592   9.074  16.633  0.00  0.00    +0.095 C 
ATOM      6  C   UNL     1      12.369   9.094  17.428  0.00  0.00    +0.039 C 
ATOM      7  C   UNL     1      12.946   9.074  18.017  0.00  0.00    +0.076 C 
ATOM      8  C   UNL     1      13.744   9.034  17.814  0.00  0.00    +0.039 C 
ATOM      9  C   UNL     1      13.966   9.015  17.019  0.00  0.00    +0.095 C 
ENDBRANCH  10   7
ENDBRANCH  11  10
BRANCH  14  15
ATOM     15  C   UNL     1      11.810   7.230  20.844  0.00  0.00    +0.147 C 
BRANCH  15  16
ATOM     16  N   UNL     1      11.511   6.462  20.876  0.00  0.00    -0.203 NA
ATOM     17  C   UNL     1      11.219   6.163  21.587  0.00  0.00    +0.241 C 
ATOM     18  O   UNL     1      11.225   6.631  22.266  0.00  0.00    -0.273 OA
BRANCH  17  19
ATOM     19  C   UNL     1      10.920   5.395  21.619  0.00  0.00    +0.078 C 
ATOM     20  C   UNL     1      10.276   4.877  21.622  0.00  0.00    +0.010 C 
ATOM     21  C   UNL     1      11.044   4.581  21.673  0.00  0.00    +0.010 C 
ENDBRANCH  17  19
ENDBRANCH  15  16
ENDBRANCH  14  15
TORSDOF 5
ENDMDL
MODEL 10
REMARK VINA RESULT:      -6.3     16.039     18.801
REMARK  Name = 
REMARK  5 active torsions:
REMARK  status: ('A' for Active; 'I' for Inactive)
REMARK    1  A    between atoms: C_7  and  N_10
REMARK    2  A    between atoms: N_10  and  C_11
REMARK    3  A    between atoms: C_14  and  C_15
REMARK    4  A    between atoms: C_15  and  N_16
REMARK    5  A    between atoms: C_17  and  C_19
REMARK                            x       y       z     vdW  Elec       q    Type
REMARK                         _______ _______ _______ _____ _____    ______ ____
ROOT
ATOM     11  C   UNL     1      13.627   7.810  20.198  0.00  0.00    +0.135 C 
ATOM     12  C   UNL     1      13.491   8.586  19.952  0.00  0.00    +0.162 C 
ATOM     13  O   UNL     1      13.679   8.635  19.150  0.00  0.00    -0.350 OA
ATOM     14  C   UNL     1      13.931   7.890  18.901  0.00  0.00    +0.169 C 
ATOM     22  C   UNL     1      13.899   7.380  19.549  0.00  0.00    +0.199 C 
ATOM     23  O   UNL     1      14.102   6.580  19.548  0.00  0.00    -0.219 OA
ENDROOT
BRANCH  11  10
ATOM     10  N   UNL     1      13.511   7.516  20.961  0.00  0.00    -0.216 NA
BRANCH  10   7
ATOM      1  C   UNL     1      10.594   8.822  22.981  0.00  0.00    +0.095 C 
ATOM      2  C   UNL     1      10.684   8.124  22.550  0.00  0.00    +0.226 C 
ATOM      3  O   UNL     1      10.065   7.578  22.517  0.00  0.00    -0.275 OA
ATOM      4  N   UNL     1      11.391   7.972  22.153  0.00  0.00    -0.279 N 
ATOM      5  C   UNL     1      11.479   7.274  21.722  0.00  0.00    +0.095 C 
ATOM      6  C   UNL     1      12.186   7.122  21.325  0.00  0.00    +0.039 C 
ATOM      7  C   UNL     1      12.803   7.668  21.358  0.00  0.00    +0.076 C 
ATOM      8  C   UNL     1      12.715   8.366  21.789  0.00  0.00    +0.039 C 
ATOM      9  C   UNL     1      12.008   8.518  22.186  0.00  0.00    +0.095 C 
ENDBRANCH  10   7
ENDBRANCH  11  10
BRANCH  14  15
ATOM     15  C   UNL     1      14.173   7.689  18.138  0.00  0.00    +0.147 C 
BRANCH  15  16
ATOM     16  N   UNL     1      14.038   8.209  17.512  0.00  0.00    -0.203 NA
ATOM     17  C   UNL     1      14.202   7.974  16.739  0.00  0.00    +0.241 C 
ATOM     18  O   UNL     1      14.500   7.218  16.591  0.00  0.00    -0.273 OA
BRANCH  17  19
ATOM     19  C   UNL     1      14.067   8.493  16.112  0.00  0.00    +0.078 C 
ATOM     20  C   UNL     1      14.285   8.798  15.376  0.00  0.00    +0.010 C 
ATOM     21  C   UNL     1      13.617   9.090  15.762  0.00  0.00    +0.010 C 
ENDBRANCH  17  19
ENDBRANCH  15  16
ENDBRANCH  14  15
TORSDOF 5
ENDMDL
