MODEL 1
REMARK VINA RESULT:     -10.4      0.000      0.000
REMARK  Name = 
REMARK  8 active torsions:
REMARK  status: ('A' for Active; 'I' for Inactive)
REMARK    1  A    between atoms: C_2  and  C_4
REMARK    2  A    between atoms: C_4  and  C_5
REMARK    3  A    between atoms: C_7  and  C_25
REMARK    4  A    between atoms: N_11  and  C_12
REMARK    5  A    between atoms: C_12  and  C_13
REMARK    6  A    between atoms: N_27  and  C_28
REMARK    7  A    between atoms: C_28  and  C_29
REMARK    8  A    between atoms: C_29  and  N_30
REMARK                            x       y       z     vdW  Elec       q    Type
REMARK                         _______ _______ _______ _____ _____    ______ ____
ROOT
ATOM      5  C   UNL     1      -2.254   2.555  24.754  0.00  0.00    +0.095 C 
ATOM      6  N   UNL     1      -1.475   2.288  24.709  0.00  0.00    -0.207 NA
ATOM      7  C   UNL     1      -1.197   1.511  24.704  0.00  0.00    +0.155 C 
ATOM      8  C   UNL     1      -1.629   0.810  24.743  0.00  0.00    +0.055 C 
ATOM      9  C   UNL     1      -2.447   0.712  24.796  0.00  0.00    -0.002 A 
ATOM     10  C   UNL     1      -2.815  -0.025  24.832  0.00  0.00    +0.072 A 
ATOM     11  N   UNL     1      -3.630   0.098  24.881  0.00  0.00    -0.322 N 
ATOM     19  C   UNL     1      -3.765   0.912  24.876  0.00  0.00    +0.060 A 
ATOM     20  C   UNL     1      -3.034   1.291  24.824  0.00  0.00    +0.011 A 
ATOM     21  C   UNL     1      -2.947   2.112  24.805  0.00  0.00    -0.005 A 
ATOM     22  C   UNL     1      -3.690   2.560  24.844  0.00  0.00    -0.003 A 
ATOM     23  C   UNL     1      -4.421   2.181  24.896  0.00  0.00    +0.001 A 
ATOM     24  C   UNL     1      -4.458   1.357  24.912  0.00  0.00    +0.017 A 
ENDROOT
BRANCH   7  25
ATOM     25  C   UNL     1      -0.377   1.424  24.654  0.00  0.00    +0.258 C 
ATOM     26  O   UNL     1       0.087   1.498  25.333  0.00  0.00    -0.272 OA
ATOM     27  N   UNL     1      -0.024   1.264  23.927  0.00  0.00    -0.203 NA
BRANCH  27  28
ATOM     28  C   UNL     1       0.796   1.178  23.878  0.00  0.00    +0.132 C 
BRANCH  28  29
ATOM     29  C   UNL     1       1.172   1.228  23.145  0.00  0.00    +0.096 C 
BRANCH  29  30
ATOM     30  N   UNL     1       1.866   0.803  23.007  0.00  0.00    -0.267 NA
ATOM     31  C   UNL     1       1.827   0.024  22.739  0.00  0.00    +0.105 C 
ATOM     32  C   UNL     1       2.521  -0.400  22.602  0.00  0.00    +0.159 C 
ATOM     33  O   UNL     1       3.254  -0.045  22.733  0.00  0.00    -0.351 OA
ATOM     34  C   UNL     1       3.293   0.734  23.001  0.00  0.00    +0.159 C 
ATOM     35  C   UNL     1       2.599   1.159  23.139  0.00  0.00    +0.105 C 
ENDBRANCH  29  30
ENDBRANCH  28  29
ENDBRANCH  27  28
ENDBRANCH   7  25
BRANCH   5   4
ATOM      4  C   UNL     1      -2.352   3.374  24.746  0.00  0.00    +0.022 C 
BRANCH   4   2
ATOM      1  C   UNL     1      -1.907   3.885  26.005  0.00  0.00    +0.000 C 
ATOM      2  C   UNL     1      -1.841   3.854  25.183  0.00  0.00    +0.002 C 
ATOM      3  C   UNL     1      -1.267   4.303  24.797  0.00  0.00    +0.000 C 
ENDBRANCH   4   2
ENDBRANCH   5   4
BRANCH  11  12
ATOM     12  C   UNL     1      -4.208  -0.488  24.927  0.00  0.00    +0.133 C 
BRANCH  12  13
ATOM     13  C   UNL     1      -4.025  -1.266  24.721  0.00  0.00    +0.003 A 
ATOM     14  C   UNL     1      -3.649  -1.759  25.265  0.00  0.00    +0.018 A 
ATOM     15  C   UNL     1      -3.466  -2.537  25.059  0.00  0.00    +0.099 A 
ATOM     16  N   UNL     1      -3.659  -2.821  24.309  0.00  0.00    -0.242 NA
ATOM     17  C   UNL     1      -4.035  -2.327  23.765  0.00  0.00    +0.099 A 
ATOM     18  C   UNL     1      -4.218  -1.549  23.971  0.00  0.00    +0.018 A 
ENDBRANCH  12  13
ENDBRANCH  11  12
TORSDOF 8
ENDMDL
MODEL 2
REMARK VINA RESULT:     -10.4      1.096      3.708
REMARK  Name = 
REMARK  8 active torsions:
REMARK  status: ('A' for Active; 'I' for Inactive)
REMARK    1  A    between atoms: C_2  and  C_4
REMARK    2  A    between atoms: C_4  and  C_5
REMARK    3  A    between atoms: C_7  and  C_25
REMARK    4  A    between atoms: N_11  and  C_12
REMARK    5  A    between atoms: C_12  and  C_13
REMARK    6  A    between atoms: N_27  and  C_28
REMARK    7  A    between atoms: C_28  and  C_29
REMARK    8  A    between atoms: C_29  and  N_30
REMARK                            x       y       z     vdW  Elec       q    Type
REMARK                         _______ _______ _______ _____ _____    ______ ____
ROOT
ATOM      5  C   UNL     1      -3.012  -0.659  24.505  0.00  0.00    +0.095 C 
ATOM      6  N   UNL     1      -2.190  -0.653  24.441  0.00  0.00    -0.207 NA
ATOM      7  C   UNL     1      -1.675  -0.009  24.486  0.00  0.00    +0.155 C 
ATOM      8  C   UNL     1      -1.857   0.787  24.606  0.00  0.00    +0.055 C 
ATOM      9  C   UNL     1      -2.597   1.136  24.711  0.00  0.00    -0.002 A 
ATOM     10  C   UNL     1      -2.707   1.945  24.827  0.00  0.00    +0.072 A 
ATOM     11  N   UNL     1      -3.516   2.084  24.910  0.00  0.00    -0.322 N 
ATOM     19  C   UNL     1      -3.907   1.361  24.844  0.00  0.00    +0.060 A 
ATOM     20  C   UNL     1      -3.339   0.774  24.721  0.00  0.00    +0.011 A 
ATOM     21  C   UNL     1      -3.523  -0.025  24.630  0.00  0.00    -0.005 A 
ATOM     22  C   UNL     1      -4.370  -0.213  24.672  0.00  0.00    -0.003 A 
ATOM     23  C   UNL     1      -4.938   0.372  24.795  0.00  0.00    +0.001 A 
ATOM     24  C   UNL     1      -4.706   1.160  24.881  0.00  0.00    +0.017 A 
ENDROOT
BRANCH   7  25
ATOM     25  C   UNL     1      -0.874  -0.184  24.399  0.00  0.00    +0.258 C 
ATOM     26  O   UNL     1      -0.462  -0.549  25.015  0.00  0.00    -0.272 OA
ATOM     27  N   UNL     1      -0.484   0.005  23.697  0.00  0.00    -0.203 NA
BRANCH  27  28
ATOM     28  C   UNL     1       0.318  -0.171  23.611  0.00  0.00    +0.132 C 
BRANCH  28  29
ATOM     29  C   UNL     1       0.687  -0.068  22.880  0.00  0.00    +0.096 C 
BRANCH  29  30
ATOM     30  N   UNL     1       1.488   0.126  22.846  0.00  0.00    -0.267 NA
ATOM     31  C   UNL     1       1.760   0.817  23.204  0.00  0.00    +0.105 C 
ATOM     32  C   UNL     1       2.562   1.011  23.169  0.00  0.00    +0.159 C 
ATOM     33  O   UNL     1       3.090   0.514  22.776  0.00  0.00    -0.351 OA
ATOM     34  C   UNL     1       2.816  -0.177  22.418  0.00  0.00    +0.159 C 
ATOM     35  C   UNL     1       2.015  -0.372  22.452  0.00  0.00    +0.105 C 
ENDBRANCH  29  30
ENDBRANCH  28  29
ENDBRANCH  27  28
ENDBRANCH   7  25
BRANCH   5   4
ATOM      4  C   UNL     1      -3.370  -1.399  24.435  0.00  0.00    +0.022 C 
BRANCH   4   2
ATOM      1  C   UNL     1      -3.134  -2.154  25.625  0.00  0.00    +0.000 C 
ATOM      2  C   UNL     1      -3.038  -2.055  24.812  0.00  0.00    +0.002 C 
ATOM      3  C   UNL     1      -2.612  -2.610  24.375  0.00  0.00    +0.000 C 
ENDBRANCH   4   2
ENDBRANCH   5   4
BRANCH  11  12
ATOM     12  C   UNL     1      -3.872   2.817  25.035  0.00  0.00    +0.133 C 
BRANCH  12  13
ATOM     13  C   UNL     1      -3.419   3.458  25.291  0.00  0.00    +0.003 A 
ATOM     14  C   UNL     1      -3.021   3.926  24.741  0.00  0.00    +0.018 A 
ATOM     15  C   UNL     1      -2.568   4.568  24.997  0.00  0.00    +0.099 A 
ATOM     16  N   UNL     1      -2.515   4.739  25.803  0.00  0.00    -0.242 NA
ATOM     17  C   UNL     1      -2.913   4.270  26.352  0.00  0.00    +0.099 A 
ATOM     18  C   UNL     1      -3.366   3.629  26.096  0.00  0.00    +0.018 A 
ENDBRANCH  12  13
ENDBRANCH  11  12
TORSDOF 8
ENDMDL
MODEL 3
REMARK VINA RESULT:      -9.6      2.145      4.795
REMARK  Name = 
REMARK  8 active torsions:
REMARK  status: ('A' for Active; 'I' for Inactive)
REMARK    1  A    between atoms: C_2  and  C_4
REMARK    2  A    between atoms: C_4  and  C_5
REMARK    3  A    between atoms: C_7  and  C_25
REMARK    4  A    between atoms: N_11  and  C_12
REMARK    5  A    between atoms: C_12  and  C_13
REMARK    6  A    between atoms: N_27  and  C_28
REMARK    7  A    between atoms: C_28  and  C_29
REMARK    8  A    between atoms: C_29  and  N_30
REMARK                            x       y       z     vdW  Elec       q    Type
REMARK                         _______ _______ _______ _____ _____    ______ ____
ROOT
ATOM      5  C   UNL     1      -4.835   2.371  25.120  0.00  0.00    +0.095 C 
ATOM      6  N   UNL     1      -4.773   1.577  24.909  0.00  0.00    -0.207 NA
ATOM      7  C   UNL     1      -4.093   1.142  24.735  0.00  0.00    +0.155 C 
ATOM      8  C   UNL     1      -3.308   1.395  24.730  0.00  0.00    +0.055 C 
ATOM      9  C   UNL     1      -3.008   2.145  24.897  0.00  0.00    -0.002 A 
ATOM     10  C   UNL     1      -2.205   2.330  24.873  0.00  0.00    +0.072 A 
ATOM     11  N   UNL     1      -2.119   3.126  25.072  0.00  0.00    -0.322 N 
ATOM     19  C   UNL     1      -2.871   3.434  25.219  0.00  0.00    +0.060 A 
ATOM     20  C   UNL     1      -3.420   2.828  25.111  0.00  0.00    +0.011 A 
ATOM     21  C   UNL     1      -4.234   2.928  25.210  0.00  0.00    -0.005 A 
ATOM     22  C   UNL     1      -4.479   3.729  25.440  0.00  0.00    -0.003 A 
ATOM     23  C   UNL     1      -3.930   4.335  25.547  0.00  0.00    +0.001 A 
ATOM     24  C   UNL     1      -3.126   4.187  25.437  0.00  0.00    +0.017 A 
ENDROOT
BRANCH   7  25
ATOM     25  C   UNL     1      -4.215   0.349  24.541  0.00  0.00    +0.258 C 
ATOM     26  O   UNL     1      -4.640   0.152  23.860  0.00  0.00    -0.272 OA
ATOM     27  N   UNL     1      -3.913  -0.245  25.026  0.00  0.00    -0.203 NA
BRANCH  27  28
ATOM     28  C   UNL     1      -4.036  -1.038  24.831  0.00  0.00    +0.132 C 
BRANCH  28  29
ATOM     29  C   UNL     1      -3.659  -1.632  25.262  0.00  0.00    +0.096 C 
BRANCH  29  30
ATOM     30  N   UNL     1      -3.198  -2.195  24.873  0.00  0.00    -0.267 NA
ATOM     31  C   UNL     1      -3.559  -2.831  24.491  0.00  0.00    +0.105 C 
ATOM     32  C   UNL     1      -3.097  -3.394  24.103  0.00  0.00    +0.159 C 
ATOM     33  O   UNL     1      -2.275  -3.321  24.096  0.00  0.00    -0.351 OA
ATOM     34  C   UNL     1      -1.915  -2.685  24.478  0.00  0.00    +0.159 C 
ATOM     35  C   UNL     1      -2.376  -2.121  24.867  0.00  0.00    +0.105 C 
ENDBRANCH  29  30
ENDBRANCH  28  29
ENDBRANCH  27  28
ENDBRANCH   7  25
BRANCH   5   4
ATOM      4  C   UNL     1      -5.600   2.645  25.260  0.00  0.00    +0.022 C 
BRANCH   4   2
ATOM      1  C   UNL     1      -6.201   1.950  26.355  0.00  0.00    +0.000 C 
ATOM      2  C   UNL     1      -6.176   2.129  25.550  0.00  0.00    +0.002 C 
ATOM      3  C   UNL     1      -6.727   1.794  25.034  0.00  0.00    +0.000 C 
ENDBRANCH   4   2
ENDBRANCH   5   4
BRANCH  11  12
ATOM     12  C   UNL     1      -1.409   3.542  25.115  0.00  0.00    +0.133 C 
BRANCH  12  13
ATOM     13  C   UNL     1      -0.701   3.139  25.242  0.00  0.00    +0.003 A 
ATOM     14  C   UNL     1      -0.250   2.886  24.600  0.00  0.00    +0.018 A 
ATOM     15  C   UNL     1       0.459   2.482  24.727  0.00  0.00    +0.099 A 
ATOM     16  N   UNL     1       0.715   2.331  25.496  0.00  0.00    -0.242 NA
ATOM     17  C   UNL     1       0.263   2.583  26.139  0.00  0.00    +0.099 A 
ATOM     18  C   UNL     1      -0.445   2.987  26.012  0.00  0.00    +0.018 A 
ENDBRANCH  12  13
ENDBRANCH  11  12
TORSDOF 8
ENDMDL
MODEL 4
REMARK VINA RESULT:      -9.5      1.963      3.952
REMARK  Name = 
REMARK  8 active torsions:
REMARK  status: ('A' for Active; 'I' for Inactive)
REMARK    1  A    between atoms: C_2  and  C_4
REMARK    2  A    between atoms: C_4  and  C_5
REMARK    3  A    between atoms: C_7  and  C_25
REMARK    4  A    between atoms: N_11  and  C_12
REMARK    5  A    between atoms: C_12  and  C_13
REMARK    6  A    between atoms: N_27  and  C_28
REMARK    7  A    between atoms: C_28  and  C_29
REMARK    8  A    between atoms: C_29  and  N_30
REMARK                            x       y       z     vdW  Elec       q    Type
REMARK                         _______ _______ _______ _____ _____    ______ ____
ROOT
ATOM      5  C   UNL     1      -1.208   2.667  25.211  0.00  0.00    +0.095 C 
ATOM      6  N   UNL     1      -1.141   1.891  24.939  0.00  0.00    -0.207 NA
ATOM      7  C   UNL     1      -1.740   1.377  24.698  0.00  0.00    +0.155 C 
ATOM      8  C   UNL     1      -2.553   1.513  24.668  0.00  0.00    +0.055 C 
ATOM      9  C   UNL     1      -2.968   2.196  24.873  0.00  0.00    -0.002 A 
ATOM     10  C   UNL     1      -3.789   2.263  24.818  0.00  0.00    +0.072 A 
ATOM     11  N   UNL     1      -4.001   3.020  25.069  0.00  0.00    -0.322 N 
ATOM     19  C   UNL     1      -3.311   3.421  25.279  0.00  0.00    +0.060 A 
ATOM     20  C   UNL     1      -2.673   2.912  25.158  0.00  0.00    +0.011 A 
ATOM     21  C   UNL     1      -1.889   3.121  25.308  0.00  0.00    -0.005 A 
ATOM     22  C   UNL     1      -1.776   3.928  25.608  0.00  0.00    -0.003 A 
ATOM     23  C   UNL     1      -2.413   4.438  25.729  0.00  0.00    +0.001 A 
ATOM     24  C   UNL     1      -3.181   4.183  25.565  0.00  0.00    +0.017 A 
ENDROOT
BRANCH   7  25
ATOM     25  C   UNL     1      -1.492   0.629  24.453  0.00  0.00    +0.258 C 
ATOM     26  O   UNL     1      -1.032   0.548  23.773  0.00  0.00    -0.272 OA
ATOM     27  N   UNL     1      -1.706  -0.038  24.889  0.00  0.00    -0.203 NA
BRANCH  27  28
ATOM     28  C   UNL     1      -1.458  -0.787  24.644  0.00  0.00    +0.132 C 
BRANCH  28  29
ATOM     29  C   UNL     1      -1.605  -1.446  25.118  0.00  0.00    +0.096 C 
BRANCH  29  30
ATOM     30  N   UNL     1      -2.148  -2.017  24.873  0.00  0.00    -0.267 NA
ATOM     31  C   UNL     1      -1.933  -2.571  24.301  0.00  0.00    +0.105 C 
ATOM     32  C   UNL     1      -2.476  -3.143  24.057  0.00  0.00    +0.159 C 
ATOM     33  O   UNL     1      -3.233  -3.160  24.385  0.00  0.00    -0.351 OA
ATOM     34  C   UNL     1      -3.447  -2.606  24.958  0.00  0.00    +0.159 C 
ATOM     35  C   UNL     1      -2.904  -2.034  25.202  0.00  0.00    +0.105 C 
ENDBRANCH  29  30
ENDBRANCH  28  29
ENDBRANCH  27  28
ENDBRANCH   7  25
BRANCH   5   4
ATOM      4  C   UNL     1      -0.498   3.037  25.412  0.00  0.00    +0.022 C 
BRANCH   4   2
ATOM      1  C   UNL     1       0.729   2.319  25.275  0.00  0.00    +0.000 C 
ATOM      2  C   UNL     1       0.115   2.599  25.749  0.00  0.00    +0.002 C 
ATOM      3  C   UNL     1       0.112   2.442  26.559  0.00  0.00    +0.000 C 
ENDBRANCH   4   2
ENDBRANCH   5   4
BRANCH  11  12
ATOM     12  C   UNL     1      -4.767   3.323  25.104  0.00  0.00    +0.133 C 
BRANCH  12  13
ATOM     13  C   UNL     1      -5.398   2.828  25.296  0.00  0.00    +0.003 A 
ATOM     14  C   UNL     1      -5.791   2.413  24.702  0.00  0.00    +0.018 A 
ATOM     15  C   UNL     1      -6.424   1.918  24.895  0.00  0.00    +0.099 A 
ATOM     16  N   UNL     1      -6.661   1.839  25.681  0.00  0.00    -0.242 NA
ATOM     17  C   UNL     1      -6.268   2.256  26.275  0.00  0.00    +0.099 A 
ATOM     18  C   UNL     1      -5.636   2.750  26.082  0.00  0.00    +0.018 A 
ENDBRANCH  12  13
ENDBRANCH  11  12
TORSDOF 8
ENDMDL
MODEL 5
REMARK VINA RESULT:      -8.5      2.336      5.972
REMARK  Name = 
REMARK  8 active torsions:
REMARK  status: ('A' for Active; 'I' for Inactive)
REMARK    1  A    between atoms: C_2  and  C_4
REMARK    2  A    between atoms: C_4  and  C_5
REMARK    3  A    between atoms: C_7  and  C_25
REMARK    4  A    between atoms: N_11  and  C_12
REMARK    5  A    between atoms: C_12  and  C_13
REMARK    6  A    between atoms: N_27  and  C_28
REMARK    7  A    between atoms: C_28  and  C_29
REMARK    8  A    between atoms: C_29  and  N_30
REMARK                            x       y       z     vdW  Elec       q    Type
REMARK                         _______ _______ _______ _____ _____    ______ ____
ROOT
ATOM      5  C   UNL     1      -2.440  -1.442  24.643  0.00  0.00    +0.095 C 
ATOM      6  N   UNL     1      -3.132  -1.057  24.872  0.00  0.00    -0.207 NA
ATOM      7  C   UNL     1      -3.236  -0.265  25.079  0.00  0.00    +0.155 C 
ATOM      8  C   UNL     1      -2.673   0.337  25.107  0.00  0.00    +0.055 C 
ATOM      9  C   UNL     1      -1.867   0.296  24.936  0.00  0.00    -0.002 A 
ATOM     10  C   UNL     1      -1.358   0.943  24.986  0.00  0.00    +0.072 A 
ATOM     11  N   UNL     1      -0.601   0.691  24.775  0.00  0.00    -0.322 N 
ATOM     19  C   UNL     1      -0.643  -0.114  24.594  0.00  0.00    +0.060 A 
ATOM     20  C   UNL     1      -1.425  -0.357  24.694  0.00  0.00    +0.011 A 
ATOM     21  C   UNL     1      -1.681  -1.131  24.564  0.00  0.00    -0.005 A 
ATOM     22  C   UNL     1      -1.061  -1.684  24.309  0.00  0.00    -0.003 A 
ATOM     23  C   UNL     1      -0.279  -1.441  24.210  0.00  0.00    +0.001 A 
ATOM     24  C   UNL     1      -0.070  -0.655  24.352  0.00  0.00    +0.017 A 
ENDROOT
BRANCH   7  25
ATOM     25  C   UNL     1      -4.005  -0.047  25.284  0.00  0.00    +0.258 C 
ATOM     26  O   UNL     1      -4.408  -0.461  25.874  0.00  0.00    -0.272 OA
ATOM     27  N   UNL     1      -4.370   0.585  24.901  0.00  0.00    -0.203 NA
BRANCH  27  28
ATOM     28  C   UNL     1      -5.139   0.803  25.107  0.00  0.00    +0.132 C 
BRANCH  28  29
ATOM     29  C   UNL     1      -5.498   1.449  24.739  0.00  0.00    +0.096 C 
BRANCH  29  30
ATOM     30  N   UNL     1      -5.609   2.153  25.156  0.00  0.00    -0.267 NA
ATOM     31  C   UNL     1      -5.192   2.830  24.939  0.00  0.00    +0.105 C 
ATOM     32  C   UNL     1      -5.303   3.533  25.356  0.00  0.00    +0.159 C 
ATOM     33  O   UNL     1      -5.831   3.559  25.989  0.00  0.00    -0.351 OA
ATOM     34  C   UNL     1      -6.248   2.880  26.205  0.00  0.00    +0.159 C 
ATOM     35  C   UNL     1      -6.137   2.177  25.789  0.00  0.00    +0.105 C 
ENDBRANCH  29  30
ENDBRANCH  28  29
ENDBRANCH  27  28
ENDBRANCH   7  25
BRANCH   5   4
ATOM      4  C   UNL     1      -2.518  -2.245  24.470  0.00  0.00    +0.022 C 
BRANCH   4   2
ATOM      1  C   UNL     1      -3.490  -2.975  25.221  0.00  0.00    +0.000 C 
ATOM      2  C   UNL     1      -3.258  -2.608  24.520  0.00  0.00    +0.002 C 
ATOM      3  C   UNL     1      -3.765  -2.602  23.869  0.00  0.00    +0.000 C 
ENDBRANCH   4   2
ENDBRANCH   5   4
BRANCH  11  12
ATOM     12  C   UNL     1       0.077   1.158  24.749  0.00  0.00    +0.133 C 
BRANCH  12  13
ATOM     13  C   UNL     1       0.027   1.968  24.900  0.00  0.00    +0.003 A 
ATOM     14  C   UNL     1       0.101   2.248  25.672  0.00  0.00    +0.018 A 
ATOM     15  C   UNL     1       0.051   3.058  25.823  0.00  0.00    +0.099 A 
ATOM     16  N   UNL     1      -0.073   3.586  25.202  0.00  0.00    -0.242 NA
ATOM     17  C   UNL     1      -0.147   3.305  24.429  0.00  0.00    +0.099 A 
ATOM     18  C   UNL     1      -0.097   2.496  24.278  0.00  0.00    +0.018 A 
ENDBRANCH  12  13
ENDBRANCH  11  12
TORSDOF 8
ENDMDL
MODEL 6
REMARK VINA RESULT:      -8.5      2.251      4.072
REMARK  Name = 
REMARK  8 active torsions:
REMARK  status: ('A' for Active; 'I' for Inactive)
REMARK    1  A    between atoms: C_2  and  C_4
REMARK    2  A    between atoms: C_4  and  C_5
REMARK    3  A    between atoms: C_7  and  C_25
REMARK    4  A    between atoms: N_11  and  C_12
REMARK    5  A    between atoms: C_12  and  C_13
REMARK    6  A    between atoms: N_27  and  C_28
REMARK    7  A    between atoms: C_28  and  C_29
REMARK    8  A    between atoms: C_29  and  N_30
REMARK                            x       y       z     vdW  Elec       q    Type
REMARK                         _______ _______ _______ _____ _____    ______ ____
ROOT
ATOM      5  C   UNL     1      -4.822   0.975  24.663  0.00  0.00    +0.095 C 
ATOM      6  N   UNL     1      -4.463   1.715  24.606  0.00  0.00    -0.207 NA
ATOM      7  C   UNL     1      -3.672   1.892  24.451  0.00  0.00    +0.155 C 
ATOM      8  C   UNL     1      -3.046   1.373  24.316  0.00  0.00    +0.055 C 
ATOM      9  C   UNL     1      -3.055   0.548  24.301  0.00  0.00    -0.002 A 
ATOM     10  C   UNL     1      -2.386   0.088  24.158  0.00  0.00    +0.072 A 
ATOM     11  N   UNL     1      -2.610  -0.706  24.187  0.00  0.00    -0.322 N 
ATOM     19  C   UNL     1      -3.419  -0.736  24.348  0.00  0.00    +0.060 A 
ATOM     20  C   UNL     1      -3.694   0.039  24.419  0.00  0.00    +0.011 A 
ATOM     21  C   UNL     1      -4.481   0.230  24.580  0.00  0.00    -0.005 A 
ATOM     22  C   UNL     1      -5.011  -0.452  24.673  0.00  0.00    -0.003 A 
ATOM     23  C   UNL     1      -4.737  -1.227  24.602  0.00  0.00    +0.001 A 
ATOM     24  C   UNL     1      -3.940  -1.368  24.440  0.00  0.00    +0.017 A 
ENDROOT
BRANCH   7  25
ATOM     25  C   UNL     1      -3.482   2.695  24.429  0.00  0.00    +0.258 C 
ATOM     26  O   UNL     1      -3.745   3.164  23.803  0.00  0.00    -0.272 OA
ATOM     27  N   UNL     1      -3.031   3.029  25.033  0.00  0.00    -0.203 NA
BRANCH  27  28
ATOM     28  C   UNL     1      -2.842   3.832  25.011  0.00  0.00    +0.132 C 
BRANCH  28  29
ATOM     29  C   UNL     1      -2.297   4.143  25.547  0.00  0.00    +0.096 C 
BRANCH  29  30
ATOM     30  N   UNL     1      -1.663   4.596  25.276  0.00  0.00    -0.267 NA
ATOM     31  C   UNL     1      -1.753   5.408  25.168  0.00  0.00    +0.105 C 
ATOM     32  C   UNL     1      -1.118   5.860  24.897  0.00  0.00    +0.159 C 
ATOM     33  O   UNL     1      -0.394   5.500  24.735  0.00  0.00    -0.351 OA
ATOM     34  C   UNL     1      -0.305   4.687  24.843  0.00  0.00    +0.159 C 
ATOM     35  C   UNL     1      -0.939   4.234  25.114  0.00  0.00    +0.105 C 
ENDBRANCH  29  30
ENDBRANCH  28  29
ENDBRANCH  27  28
ENDBRANCH   7  25
BRANCH   5   4
ATOM      4  C   UNL     1      -5.631   0.982  24.825  0.00  0.00    +0.022 C 
BRANCH   4   2
ATOM      1  C   UNL     1      -5.880   1.712  26.029  0.00  0.00    +0.000 C 
ATOM      2  C   UNL     1      -5.968   1.629  25.213  0.00  0.00    +0.002 C 
ATOM      3  C   UNL     1      -6.393   2.191  24.784  0.00  0.00    +0.000 C 
ENDBRANCH   4   2
ENDBRANCH   5   4
BRANCH  11  12
ATOM     12  C   UNL     1      -2.114  -1.355  24.075  0.00  0.00    +0.133 C 
BRANCH  12  13
ATOM     13  C   UNL     1      -1.355  -1.355  24.396  0.00  0.00    +0.003 A 
ATOM     14  C   UNL     1      -0.728  -1.026  23.973  0.00  0.00    +0.018 A 
ATOM     15  C   UNL     1       0.032  -1.026  24.295  0.00  0.00    +0.099 A 
ATOM     16  N   UNL     1       0.165  -1.356  25.039  0.00  0.00    -0.242 NA
ATOM     17  C   UNL     1      -0.463  -1.685  25.462  0.00  0.00    +0.099 A 
ATOM     18  C   UNL     1      -1.222  -1.685  25.141  0.00  0.00    +0.018 A 
ENDBRANCH  12  13
ENDBRANCH  11  12
TORSDOF 8
ENDMDL
MODEL 7
REMARK VINA RESULT:      -8.4      1.920      4.055
REMARK  Name = 
REMARK  8 active torsions:
REMARK  status: ('A' for Active; 'I' for Inactive)
REMARK    1  A    between atoms: C_2  and  C_4
REMARK    2  A    between atoms: C_4  and  C_5
REMARK    3  A    between atoms: C_7  and  C_25
REMARK    4  A    between atoms: N_11  and  C_12
REMARK    5  A    between atoms: C_12  and  C_13
REMARK    6  A    between atoms: N_27  and  C_28
REMARK    7  A    between atoms: C_28  and  C_29
REMARK    8  A    between atoms: C_29  and  N_30
REMARK                            x       y       z     vdW  Elec       q    Type
REMARK                         _______ _______ _______ _____ _____    ______ ____
ROOT
ATOM      5  C   UNL     1      -1.920  -0.601  24.467  0.00  0.00    +0.095 C 
ATOM      6  N   UNL     1      -1.478   0.093  24.395  0.00  0.00    -0.207 NA
ATOM      7  C   UNL     1      -1.744   0.874  24.396  0.00  0.00    +0.155 C 
ATOM      8  C   UNL     1      -2.516   1.154  24.468  0.00  0.00    +0.055 C 
ATOM      9  C   UNL     1      -3.214   0.723  24.558  0.00  0.00    -0.002 A 
ATOM     10  C   UNL     1      -3.958   1.072  24.625  0.00  0.00    +0.072 A 
ATOM     11  N   UNL     1      -4.516   0.469  24.705  0.00  0.00    -0.322 N 
ATOM     19  C   UNL     1      -4.116  -0.252  24.688  0.00  0.00    +0.060 A 
ATOM     20  C   UNL     1      -3.311  -0.095  24.597  0.00  0.00    +0.011 A 
ATOM     21  C   UNL     1      -2.734  -0.684  24.556  0.00  0.00    -0.005 A 
ATOM     22  C   UNL     1      -3.036  -1.497  24.617  0.00  0.00    -0.003 A 
ATOM     23  C   UNL     1      -3.840  -1.654  24.709  0.00  0.00    +0.001 A 
ATOM     24  C   UNL     1      -4.381  -1.031  24.744  0.00  0.00    +0.017 A 
ENDROOT
BRANCH   7  25
ATOM     25  C   UNL     1      -1.159   1.451  24.313  0.00  0.00    +0.258 C 
ATOM     26  O   UNL     1      -0.621   1.406  23.689  0.00  0.00    -0.272 OA
ATOM     27  N   UNL     1      -1.113   2.071  24.854  0.00  0.00    -0.203 NA
BRANCH  27  28
ATOM     28  C   UNL     1      -0.528   2.648  24.771  0.00  0.00    +0.132 C 
BRANCH  28  29
ATOM     29  C   UNL     1      -0.438   3.230  25.348  0.00  0.00    +0.096 C 
BRANCH  29  30
ATOM     30  N   UNL     1      -0.731   3.990  25.218  0.00  0.00    -0.267 NA
ATOM     31  C   UNL     1      -1.444   4.221  25.560  0.00  0.00    +0.105 C 
ATOM     32  C   UNL     1      -1.737   4.982  25.430  0.00  0.00    +0.159 C 
ATOM     33  O   UNL     1      -1.315   5.510  24.957  0.00  0.00    -0.351 OA
ATOM     34  C   UNL     1      -0.601   5.279  24.615  0.00  0.00    +0.159 C 
ATOM     35  C   UNL     1      -0.308   4.518  24.745  0.00  0.00    +0.105 C 
ENDBRANCH  29  30
ENDBRANCH  28  29
ENDBRANCH  27  28
ENDBRANCH   7  25
BRANCH   5   4
ATOM      4  C   UNL     1      -1.487  -1.303  24.446  0.00  0.00    +0.022 C 
BRANCH   4   2
ATOM      1  C   UNL     1      -0.678  -1.402  25.619  0.00  0.00    +0.000 C 
ATOM      2  C   UNL     1      -0.742  -1.340  24.799  0.00  0.00    +0.002 C 
ATOM      3  C   UNL     1      -0.062  -1.314  24.332  0.00  0.00    +0.000 C 
ENDBRANCH   4   2
ENDBRANCH   5   4
BRANCH  11  12
ATOM     12  C   UNL     1      -5.331   0.570  24.789  0.00  0.00    +0.133 C 
BRANCH  12  13
ATOM     13  C   UNL     1      -5.629   1.255  25.138  0.00  0.00    +0.003 A 
ATOM     14  C   UNL     1      -5.815   1.260  25.941  0.00  0.00    +0.018 A 
ATOM     15  C   UNL     1      -6.113   1.946  26.291  0.00  0.00    +0.099 A 
ATOM     16  N   UNL     1      -6.226   2.625  25.836  0.00  0.00    -0.242 NA
ATOM     17  C   UNL     1      -6.040   2.619  25.031  0.00  0.00    +0.099 A 
ATOM     18  C   UNL     1      -5.742   1.934  24.682  0.00  0.00    +0.018 A 
ENDBRANCH  12  13
ENDBRANCH  11  12
TORSDOF 8
ENDMDL
MODEL 8
REMARK VINA RESULT:      -8.3      2.357      3.130
REMARK  Name = 
REMARK  8 active torsions:
REMARK  status: ('A' for Active; 'I' for Inactive)
REMARK    1  A    between atoms: C_2  and  C_4
REMARK    2  A    between atoms: C_4  and  C_5
REMARK    3  A    between atoms: C_7  and  C_25
REMARK    4  A    between atoms: N_11  and  C_12
REMARK    5  A    between atoms: C_12  and  C_13
REMARK    6  A    between atoms: N_27  and  C_28
REMARK    7  A    between atoms: C_28  and  C_29
REMARK    8  A    between atoms: C_29  and  N_30
REMARK                            x       y       z     vdW  Elec       q    Type
REMARK                         _______ _______ _______ _____ _____    ______ ____
ROOT
ATOM      5  C   UNL     1      -1.742   3.187  24.807  0.00  0.00    +0.095 C 
ATOM      6  N   UNL     1      -1.071   3.019  25.257  0.00  0.00    -0.207 NA
ATOM      7  C   UNL     1      -0.805   2.287  25.530  0.00  0.00    +0.155 C 
ATOM      8  C   UNL     1      -1.144   1.543  25.421  0.00  0.00    +0.055 C 
ATOM      9  C   UNL     1      -1.833   1.347  25.012  0.00  0.00    -0.002 A 
ATOM     10  C   UNL     1      -2.117   0.575  24.942  0.00  0.00    +0.072 A 
ATOM     11  N   UNL     1      -2.812   0.598  24.498  0.00  0.00    -0.322 N 
ATOM     19  C   UNL     1      -2.958   1.383  24.293  0.00  0.00    +0.060 A 
ATOM     20  C   UNL     1      -2.353   1.847  24.610  0.00  0.00    +0.011 A 
ATOM     21  C   UNL     1      -2.312   2.666  24.520  0.00  0.00    -0.005 A 
ATOM     22  C   UNL     1      -2.959   3.016  24.059  0.00  0.00    -0.003 A 
ATOM     23  C   UNL     1      -3.564   2.554  23.741  0.00  0.00    +0.001 A 
ATOM     24  C   UNL     1      -3.563   1.737  23.858  0.00  0.00    +0.017 A 
ENDROOT
BRANCH   7  25
ATOM     25  C   UNL     1      -0.107   2.302  25.971  0.00  0.00    +0.258 C 
ATOM     26  O   UNL     1       0.622   2.234  25.590  0.00  0.00    -0.272 OA
ATOM     27  N   UNL     1      -0.140   2.384  26.791  0.00  0.00    -0.203 NA
BRANCH  27  28
ATOM     28  C   UNL     1       0.559   2.399  27.231  0.00  0.00    +0.132 C 
BRANCH  28  29
ATOM     29  C   UNL     1       0.566   2.742  27.981  0.00  0.00    +0.096 C 
BRANCH  29  30
ATOM     30  N   UNL     1       1.216   2.635  28.478  0.00  0.00    -0.267 NA
ATOM     31  C   UNL     1       1.129   2.226  29.188  0.00  0.00    +0.105 C 
ATOM     32  C   UNL     1       1.779   2.120  29.685  0.00  0.00    +0.159 C 
ATOM     33  O   UNL     1       2.516   2.422  29.471  0.00  0.00    -0.351 OA
ATOM     34  C   UNL     1       2.603   2.831  28.760  0.00  0.00    +0.159 C 
ATOM     35  C   UNL     1       1.953   2.938  28.263  0.00  0.00    +0.105 C 
ENDBRANCH  29  30
ENDBRANCH  28  29
ENDBRANCH  27  28
ENDBRANCH   7  25
BRANCH   5   4
ATOM      4  C   UNL     1      -1.857   3.982  24.620  0.00  0.00    +0.022 C 
BRANCH   4   2
ATOM      1  C   UNL     1      -2.139   4.686  25.832  0.00  0.00    +0.000 C 
ATOM      2  C   UNL     1      -1.662   4.567  25.170  0.00  0.00    +0.002 C 
ATOM      3  C   UNL     1      -0.990   5.033  25.055  0.00  0.00    +0.000 C 
ENDBRANCH   4   2
ENDBRANCH   5   4
BRANCH  11  12
ATOM     12  C   UNL     1      -3.278  -0.051  24.294  0.00  0.00    +0.133 C 
BRANCH  12  13
ATOM     13  C   UNL     1      -3.209  -0.758  24.714  0.00  0.00    +0.003 A 
ATOM     14  C   UNL     1      -2.729  -1.363  24.425  0.00  0.00    +0.018 A 
ATOM     15  C   UNL     1      -2.660  -2.070  24.845  0.00  0.00    +0.099 A 
ATOM     16  N   UNL     1      -3.071  -2.171  25.553  0.00  0.00    -0.242 NA
ATOM     17  C   UNL     1      -3.552  -1.566  25.841  0.00  0.00    +0.099 A 
ATOM     18  C   UNL     1      -3.621  -0.859  25.421  0.00  0.00    +0.018 A 
ENDBRANCH  12  13
ENDBRANCH  11  12
TORSDOF 8
ENDMDL
MODEL 9
REMARK VINA RESULT:      -8.2      2.324      4.906
REMARK  Name = 
REMARK  8 active torsions:
REMARK  status: ('A' for Active; 'I' for Inactive)
REMARK    1  A    between atoms: C_2  and  C_4
REMARK    2  A    between atoms: C_4  and  C_5
REMARK    3  A    between atoms: C_7  and  C_25
REMARK    4  A    between atoms: N_11  and  C_12
REMARK    5  A    between atoms: C_12  and  C_13
REMARK    6  A    between atoms: N_27  and  C_28
REMARK    7  A    between atoms: C_28  and  C_29
REMARK    8  A    between atoms: C_29  and  N_30
REMARK                            x       y       z     vdW  Elec       q    Type
REMARK                         _______ _______ _______ _____ _____    ______ ____
ROOT
ATOM      5  C   UNL     1      -1.093   3.086  24.349  0.00  0.00    +0.095 C 
ATOM      6  N   UNL     1      -1.906   3.122  24.212  0.00  0.00    -0.207 NA
ATOM      7  C   UNL     1      -2.427   2.504  24.044  0.00  0.00    +0.155 C 
ATOM      8  C   UNL     1      -2.263   1.699  23.970  0.00  0.00    +0.055 C 
ATOM      9  C   UNL     1      -1.538   1.312  24.047  0.00  0.00    -0.002 A 
ATOM     10  C   UNL     1      -1.446   0.497  23.959  0.00  0.00    +0.072 A 
ATOM     11  N   UNL     1      -0.649   0.316  24.074  0.00  0.00    -0.322 N 
ATOM     19  C   UNL     1      -0.248   1.020  24.233  0.00  0.00    +0.060 A 
ATOM     20  C   UNL     1      -0.798   1.636  24.216  0.00  0.00    +0.011 A 
ATOM     21  C   UNL     1      -0.600   2.426  24.350  0.00  0.00    -0.005 A 
ATOM     22  C   UNL     1       0.240   2.571  24.514  0.00  0.00    -0.003 A 
ATOM     23  C   UNL     1       0.790   1.956  24.532  0.00  0.00    +0.001 A 
ATOM     24  C   UNL     1       0.545   1.180  24.391  0.00  0.00    +0.017 A 
ENDROOT
BRANCH   7  25
ATOM     25  C   UNL     1      -3.215   2.721  23.934  0.00  0.00    +0.258 C 
ATOM     26  O   UNL     1      -3.472   2.985  23.195  0.00  0.00    -0.272 OA
ATOM     27  N   UNL     1      -3.747   2.673  24.563  0.00  0.00    -0.203 NA
BRANCH  27  28
ATOM     28  C   UNL     1      -4.535   2.890  24.453  0.00  0.00    +0.132 C 
BRANCH  28  29
ATOM     29  C   UNL     1      -4.994   3.120  25.099  0.00  0.00    +0.096 C 
BRANCH  29  30
ATOM     30  N   UNL     1      -5.571   2.612  25.398  0.00  0.00    -0.267 NA
ATOM     31  C   UNL     1      -6.031   2.161  24.883  0.00  0.00    +0.105 C 
ATOM     32  C   UNL     1      -6.608   1.653  25.183  0.00  0.00    +0.159 C 
ATOM     33  O   UNL     1      -6.725   1.597  25.997  0.00  0.00    -0.351 OA
ATOM     34  C   UNL     1      -6.265   2.048  26.512  0.00  0.00    +0.159 C 
ATOM     35  C   UNL     1      -5.688   2.556  26.213  0.00  0.00    +0.105 C 
ENDBRANCH  29  30
ENDBRANCH  28  29
ENDBRANCH  27  28
ENDBRANCH   7  25
BRANCH   5   4
ATOM      4  C   UNL     1      -0.725   3.808  24.504  0.00  0.00    +0.022 C 
BRANCH   4   2
ATOM      1  C   UNL     1      -1.254   4.183  25.778  0.00  0.00    +0.000 C 
ATOM      2  C   UNL     1      -1.096   4.364  24.988  0.00  0.00    +0.002 C 
ATOM      3  C   UNL     1      -1.309   5.101  24.683  0.00  0.00    +0.000 C 
ENDBRANCH   4   2
ENDBRANCH   5   4
BRANCH  11  12
ATOM     12  C   UNL     1      -0.311  -0.435  24.038  0.00  0.00    +0.133 C 
BRANCH  12  13
ATOM     13  C   UNL     1      -0.700  -1.079  24.375  0.00  0.00    +0.003 A 
ATOM     14  C   UNL     1      -1.206  -1.542  23.916  0.00  0.00    +0.018 A 
ATOM     15  C   UNL     1      -1.595  -2.187  24.254  0.00  0.00    +0.099 A 
ATOM     16  N   UNL     1      -1.477  -2.368  25.050  0.00  0.00    -0.242 NA
ATOM     17  C   UNL     1      -0.971  -1.905  25.509  0.00  0.00    +0.099 A 
ATOM     18  C   UNL     1      -0.582  -1.261  25.171  0.00  0.00    +0.018 A 
ENDBRANCH  12  13
ENDBRANCH  11  12
TORSDOF 8
ENDMDL
MODEL 10
REMARK VINA RESULT:      -6.5     14.801     17.563
REMARK  Name = 
REMARK  8 active torsions:
REMARK  status: ('A' for Active; 'I' for Inactive)
REMARK    1  A    between atoms: C_2  and  C_4
REMARK    2  A    between atoms: C_4  and  C_5
REMARK    3  A    between atoms: C_7  and  C_25
REMARK    4  A    between atoms: N_11  and  C_12
REMARK    5  A    between atoms: C_12  and  C_13
REMARK    6  A    between atoms: N_27  and  C_28
REMARK    7  A    between atoms: C_28  and  C_29
REMARK    8  A    between atoms: C_29  and  N_30
REMARK                            x       y       z     vdW  Elec       q    Type
REMARK                         _______ _______ _______ _____ _____    ______ ____
ROOT
ATOM      5  C   UNL     1      13.103   8.865  17.473  0.00  0.00    +0.095 C 
ATOM      6  N   UNL     1      13.818   8.730  17.863  0.00  0.00    -0.207 NA
ATOM      7  C   UNL     1      13.945   8.562  18.661  0.00  0.00    +0.155 C 
ATOM      8  C   UNL     1      13.389   8.489  19.265  0.00  0.00    +0.055 C 
ATOM      9  C   UNL     1      12.568   8.566  19.222  0.00  0.00    -0.002 A 
ATOM     10  C   UNL     1      12.068   8.479  19.873  0.00  0.00    +0.072 A 
ATOM     11  N   UNL     1      11.293   8.594  19.616  0.00  0.00    -0.322 N 
ATOM     19  C   UNL     1      11.313   8.752  18.807  0.00  0.00    +0.060 A 
ATOM     20  C   UNL     1      12.101   8.734  18.563  0.00  0.00    +0.011 A 
ATOM     21  C   UNL     1      12.340   8.867  17.784  0.00  0.00    -0.005 A 
ATOM     22  C   UNL     1      11.695   9.030  17.226  0.00  0.00    -0.003 A 
ATOM     23  C   UNL     1      10.907   9.048  17.469  0.00  0.00    +0.001 A 
ATOM     24  C   UNL     1      10.716   8.908  18.260  0.00  0.00    +0.017 A 
ENDROOT
BRANCH   7  25
ATOM     25  C   UNL     1      14.732   8.453  18.883  0.00  0.00    +0.258 C 
ATOM     26  O   UNL     1      15.256   9.091  18.869  0.00  0.00    -0.272 OA
ATOM     27  N   UNL     1      14.995   7.708  19.118  0.00  0.00    -0.203 NA
BRANCH  27  28
ATOM     28  C   UNL     1      15.782   7.600  19.340  0.00  0.00    +0.132 C 
BRANCH  28  29
ATOM     29  C   UNL     1      16.073   6.839  19.470  0.00  0.00    +0.096 C 
BRANCH  29  30
ATOM     30  N   UNL     1      16.358   6.628  20.216  0.00  0.00    -0.267 NA
ATOM     31  C   UNL     1      15.880   6.199  20.733  0.00  0.00    +0.105 C 
ATOM     32  C   UNL     1      16.165   5.988  21.478  0.00  0.00    +0.159 C 
ATOM     33  O   UNL     1      16.927   6.206  21.705  0.00  0.00    -0.351 OA
ATOM     34  C   UNL     1      17.405   6.635  21.187  0.00  0.00    +0.159 C 
ATOM     35  C   UNL     1      17.121   6.846  20.442  0.00  0.00    +0.105 C 
ENDBRANCH  29  30
ENDBRANCH  28  29
ENDBRANCH  27  28
ENDBRANCH   7  25
BRANCH   5   4
ATOM      4  C   UNL     1      13.161   9.019  16.665  0.00  0.00    +0.022 C 
BRANCH   4   2
ATOM      1  C   UNL     1      14.269   9.005  15.763  0.00  0.00    +0.000 C 
ATOM      2  C   UNL     1      13.701   8.600  16.202  0.00  0.00    +0.002 C 
ATOM      3  C   UNL     1      13.672   7.775  16.181  0.00  0.00    +0.000 C 
ENDBRANCH   4   2
ENDBRANCH   5   4
BRANCH  11  12
ATOM     12  C   UNL     1      10.616   8.558  20.086  0.00  0.00    +0.133 C 
BRANCH  12  13
ATOM     13  C   UNL     1      10.671   8.314  20.872  0.00  0.00    +0.003 A 
ATOM     14  C   UNL     1      10.746   7.513  21.050  0.00  0.00    +0.018 A 
ATOM     15  C   UNL     1      10.801   7.269  21.837  0.00  0.00    +0.099 A 
ATOM     16  N   UNL     1      10.780   7.827  22.444  0.00  0.00    -0.242 NA
ATOM     17  C   UNL     1      10.705   8.629  22.265  0.00  0.00    +0.099 A 
ATOM     18  C   UNL     1      10.650   8.873  21.479  0.00  0.00    +0.018 A 
ENDBRANCH  12  13
ENDBRANCH  11  12
TORSDOF 8
ENDMDL
