REMARK  Name = 
REMARK  3 active torsions:
REMARK  status: ('A' for Active; 'I' for Inactive)
REMARK    1  A    between atoms: C_2  and  C_3
REMARK    2  A    between atoms: N_15  and  C_16
REMARK    3  A    between atoms: C_16  and  C_17
REMARK                            x       y       z     vdW  Elec       q    Type
REMARK                         _______ _______ _______ _____ _____    ______ ____
ROOT
ATOM      1  O   UNL     1       4.067   3.173   0.000  0.00  0.00    -0.275 OA
ATOM      2  C   UNL     1       4.067   2.348   0.000  0.00  0.00    +0.225 C 
ATOM      9  N   UNL     1       3.352   1.935   0.000  0.00  0.00    -0.276 N 
ATOM     10  C   UNL     1       3.352   1.110   0.000  0.00  0.00    +0.115 C 
ATOM     11  C   UNL     1       2.638   0.698   0.000  0.00  0.00    +0.116 C 
ATOM     12  N   UNL     1       1.923   1.110   0.000  0.00  0.00    -0.261 N 
ATOM     13  C   UNL     1       1.923   1.935   0.000  0.00  0.00    +0.116 C 
ATOM     14  C   UNL     1       1.139   2.190   0.000  0.00  0.00    +0.117 C 
ATOM     15  N   UNL     1       0.654   1.523   0.000  0.00  0.00    -0.258 N 
ATOM     23  C   UNL     1       1.139   0.856   0.000  0.00  0.00    +0.308 C 
ATOM     24  O   UNL     1       0.884   0.071   0.000  0.00  0.00    -0.252 OA
ATOM     25  C   UNL     1       2.638   2.348   0.000  0.00  0.00    +0.115 C 
ENDROOT
BRANCH   2   3
ATOM      3  C   UNL     1       4.781   1.935   0.000  0.00  0.00    +0.082 C 
ATOM      4  C   UNL     1       5.496   2.348   0.000  0.00  0.00    +0.041 C 
ATOM      5  C   UNL     1       6.210   1.935   0.000  0.00  0.00    +0.143 C 
ATOM      6  O   UNL     1       6.210   1.110   0.000  0.00  0.00    -0.354 OA
ATOM      7  C   UNL     1       5.496   0.698   0.000  0.00  0.00    +0.143 C 
ATOM      8  C   UNL     1       4.781   1.110   0.000  0.00  0.00    +0.041 C 
ENDBRANCH   2   3
BRANCH  15  16
ATOM     16  C   UNL     1      -0.171   1.523   0.000  0.00  0.00    +0.122 C 
BRANCH  16  17
ATOM     17  C   UNL     1      -0.584   2.237   0.000  0.00  0.00    -0.002 A 
ATOM     18  C   UNL     1      -1.409   2.237   0.000  0.00  0.00    -0.003 A 
ATOM     19  C   UNL     1      -1.821   2.952   0.000  0.00  0.00    -0.000 A 
ATOM     20  C   UNL     1      -1.409   3.666   0.000  0.00  0.00    -0.000 A 
ATOM     21  C   UNL     1      -0.584   3.666   0.000  0.00  0.00    -0.000 A 
ATOM     22  C   UNL     1      -0.171   2.952   0.000  0.00  0.00    -0.003 A 
ENDBRANCH  16  17
ENDBRANCH  15  16
TORSDOF 3
