REMARK  Name = 
REMARK  7 active torsions:
REMARK  status: ('A' for Active; 'I' for Inactive)
REMARK    1  A    between atoms: O_2  and  C_3
REMARK    2  A    between atoms: C_8  and  N_9
REMARK    3  A    between atoms: C_15  and  C_17
REMARK    4  A    between atoms: C_17  and  C_18
REMARK    5  A    between atoms: C_20  and  C_21
REMARK    6  A    between atoms: C_21  and  N_22
REMARK    7  A    between atoms: N_25  and  C_26
REMARK                            x       y       z     vdW  Elec       q    Type
REMARK                         _______ _______ _______ _____ _____    ______ ____
ROOT
ATOM     18  C   UNL     1       2.143  -3.712   0.000  0.00  0.00    +0.157 C 
ATOM     19  O   UNL     1       2.811  -4.197   0.000  0.00  0.00    -0.351 OA
ATOM     20  C   UNL     1       2.556  -4.982   0.000  0.00  0.00    +0.170 C 
ATOM     33  C   UNL     1       1.731  -4.982   0.000  0.00  0.00    +0.213 C 
ATOM     34  O   UNL     1       1.246  -5.649   0.000  0.00  0.00    -0.218 OA
ATOM     35  C   UNL     1       1.476  -4.197   0.000  0.00  0.00    +0.212 C 
ATOM     36  O   UNL     1       0.691  -3.942   0.000  0.00  0.00    -0.218 OA
ENDROOT
BRANCH  18  17
ATOM     17  C   UNL     1       2.143  -2.888   0.000  0.00  0.00    +0.117 C 
BRANCH  17  15
ATOM      9  N   UNL     1       1.429   0.000   0.000  0.00  0.00    -0.302 N 
ATOM     10  C   UNL     1       2.143  -0.412   0.000  0.00  0.00    +0.112 C 
ATOM     11  C   UNL     1       2.143  -1.238   0.000  0.00  0.00    +0.115 C 
ATOM     12  N   UNL     1       1.429  -1.650   0.000  0.00  0.00    -0.276 N 
ATOM     13  C   UNL     1       0.715  -1.238   0.000  0.00  0.00    +0.115 C 
ATOM     14  C   UNL     1       0.715  -0.412   0.000  0.00  0.00    +0.112 C 
ATOM     15  C   UNL     1       1.429  -2.475   0.000  0.00  0.00    +0.228 C 
ATOM     16  O   UNL     1       0.715  -2.888   0.000  0.00  0.00    -0.275 OA
BRANCH   9   8
ATOM      3  C   UNL     1       0.715   1.238   0.000  0.00  0.00    +0.152 A 
ATOM      4  C   UNL     1       0.715   2.062   0.000  0.00  0.00    +0.038 A 
ATOM      5  C   UNL     1       1.429   2.475   0.000  0.00  0.00    +0.003 A 
ATOM      6  C   UNL     1       2.143   2.062   0.000  0.00  0.00    +0.001 A 
ATOM      7  C   UNL     1       2.143   1.238   0.000  0.00  0.00    +0.018 A 
ATOM      8  C   UNL     1       1.429   0.825   0.000  0.00  0.00    +0.082 A 
BRANCH   3   2
ATOM      1  C   UNL     1      -0.715   1.238   0.000  0.00  0.00    +0.253 C 
ATOM      2  O   UNL     1       0.000   0.825   0.000  0.00  0.00    -0.470 OA
ENDBRANCH   3   2
ENDBRANCH   9   8
ENDBRANCH  17  15
ENDBRANCH  18  17
BRANCH  20  21
ATOM     21  C   UNL     1       3.041  -5.649   0.000  0.00  0.00    +0.149 C 
BRANCH  21  22
ATOM     22  N   UNL     1       3.861  -5.563   0.000  0.00  0.00    -0.184 NA
ATOM     23  C   UNL     1       4.346  -6.231   0.000  0.00  0.00    +0.344 C 
ATOM     24  O   UNL     1       4.011  -6.984   0.000  0.00  0.00    -0.249 OA
ATOM     25  N   UNL     1       5.167  -6.144   0.000  0.00  0.00    -0.161 NA
BRANCH  25  26
ATOM     26  C   UNL     1       5.652  -6.812   0.000  0.00  0.00    +0.077 A 
ATOM     27  C   UNL     1       6.472  -6.726   0.000  0.00  0.00    +0.017 A 
ATOM     28  C   UNL     1       6.957  -7.393   0.000  0.00  0.00    +0.004 A 
ATOM     29  C   UNL     1       6.622  -8.147   0.000  0.00  0.00    +0.030 A 
ATOM     30  C   UNL     1       5.801  -8.233   0.000  0.00  0.00    +0.141 A 
ATOM     31  F   UNL     1       5.465  -8.987   0.000  0.00  0.00    -0.204 F 
ATOM     32  C   UNL     1       5.316  -7.566   0.000  0.00  0.00    +0.046 A 
ENDBRANCH  25  26
ENDBRANCH  21  22
ENDBRANCH  20  21
TORSDOF 7
