MODEL 1
REMARK VINA RESULT:     -11.3      0.000      0.000
REMARK  Name = 
REMARK  3 active torsions:
REMARK  status: ('A' for Active; 'I' for Inactive)
REMARK    1  A    between atoms: C_1  and  N_2
REMARK    2  A    between atoms: C_1  and  C_16
REMARK    3  A    between atoms: C_5  and  C_7
REMARK                            x       y       z     vdW  Elec       q    Type
REMARK                         _______ _______ _______ _____ _____    ______ ____
ROOT
ATOM      2  N   UNL     1      -4.244   2.259  24.638  0.00  0.00    -0.268 NA
ATOM      3  C   UNL     1      -4.976   2.091  24.978  0.00  0.00    +0.073 C 
ATOM      4  C   UNL     1      -5.043   1.271  25.048  0.00  0.00    +0.028 C 
ATOM      5  C   UNL     1      -4.351   0.933  24.752  0.00  0.00    +0.094 C 
ATOM      6  C   UNL     1      -3.857   1.543  24.498  0.00  0.00    +0.082 C 
ENDROOT
BRANCH   5   7
ATOM      7  C   UNL     1      -4.182   0.126  24.715  0.00  0.00    +0.207 A 
ATOM      8  N   UNL     1      -3.771  -0.310  25.282  0.00  0.00    -0.212 NA
ATOM      9  C   UNL     1      -3.731  -1.091  25.023  0.00  0.00    +0.119 A 
ATOM     10  C   UNL     1      -4.117  -1.139  24.295  0.00  0.00    +0.164 A 
ATOM     11  O   UNL     1      -4.396  -0.387  24.105  0.00  0.00    -0.438 OA
ATOM     12  C   UNL     1      -4.164  -1.862  23.901  0.00  0.00    +0.039 A 
ATOM     13  C   UNL     1      -3.825  -2.537  24.233  0.00  0.00    +0.003 A 
ATOM     14  C   UNL     1      -3.439  -2.489  24.960  0.00  0.00    +0.002 A 
ATOM     15  C   UNL     1      -3.391  -1.767  25.356  0.00  0.00    +0.022 A 
ENDBRANCH   5   7
BRANCH   2   1
ATOM      1  C   UNL     1      -3.949   3.010  24.467  0.00  0.00    +0.106 C 
BRANCH   1  16
ATOM     16  C   UNL     1      -3.452   3.390  25.005  0.00  0.00    +0.023 A 
ATOM     17  C   UNL     1      -3.687   3.776  25.695  0.00  0.00    +0.004 A 
ATOM     18  C   UNL     1      -3.012   4.075  26.063  0.00  0.00    +0.007 A 
ATOM     19  C   UNL     1      -2.360   3.875  25.600  0.00  0.00    +0.035 A 
ATOM     20  S   UNL     1      -2.631   3.451  24.946  0.00  0.00    -0.089 S 
ENDBRANCH   1  16
ENDBRANCH   2   1
TORSDOF 3
ENDMDL
MODEL 2
REMARK VINA RESULT:     -10.1      1.747      4.742
REMARK  Name = 
REMARK  3 active torsions:
REMARK  status: ('A' for Active; 'I' for Inactive)
REMARK    1  A    between atoms: C_1  and  N_2
REMARK    2  A    between atoms: C_1  and  C_16
REMARK    3  A    between atoms: C_5  and  C_7
REMARK                            x       y       z     vdW  Elec       q    Type
REMARK                         _______ _______ _______ _____ _____    ______ ____
ROOT
ATOM      2  N   UNL     1      -3.771   0.628  24.411  0.00  0.00    -0.268 NA
ATOM      3  C   UNL     1      -3.520   0.702  23.629  0.00  0.00    +0.073 C 
ATOM      4  C   UNL     1      -3.047   1.376  23.575  0.00  0.00    +0.028 C 
ATOM      5  C   UNL     1      -3.004   1.718  24.325  0.00  0.00    +0.094 C 
ATOM      6  C   UNL     1      -3.451   1.256  24.841  0.00  0.00    +0.082 C 
ENDROOT
BRANCH   5   7
ATOM      7  C   UNL     1      -2.588   2.402  24.522  0.00  0.00    +0.207 A 
ATOM      8  N   UNL     1      -1.772   2.509  24.459  0.00  0.00    -0.212 NA
ATOM      9  C   UNL     1      -1.594   3.272  24.716  0.00  0.00    +0.119 A 
ATOM     10  C   UNL     1      -2.300   3.637  24.938  0.00  0.00    +0.164 A 
ATOM     11  O   UNL     1      -2.914   3.100  24.818  0.00  0.00    -0.438 OA
ATOM     12  C   UNL     1      -2.291   4.413  25.220  0.00  0.00    +0.039 A 
ATOM     13  C   UNL     1      -1.578   4.822  25.280  0.00  0.00    +0.003 A 
ATOM     14  C   UNL     1      -0.872   4.457  25.058  0.00  0.00    +0.002 A 
ATOM     15  C   UNL     1      -0.880   3.681  24.776  0.00  0.00    +0.022 A 
ENDBRANCH   5   7
BRANCH   2   1
ATOM      1  C   UNL     1      -4.255   0.032  24.712  0.00  0.00    +0.106 C 
BRANCH   1  16
ATOM     16  C   UNL     1      -3.970  -0.741  24.769  0.00  0.00    +0.023 A 
ATOM     17  C   UNL     1      -4.051  -1.332  24.199  0.00  0.00    +0.004 A 
ATOM     18  C   UNL     1      -3.686  -2.014  24.485  0.00  0.00    +0.007 A 
ATOM     19  C   UNL     1      -3.380  -1.845  25.231  0.00  0.00    +0.035 A 
ATOM     20  S   UNL     1      -3.555  -1.058  25.407  0.00  0.00    -0.089 S 
ENDBRANCH   1  16
ENDBRANCH   2   1
TORSDOF 3
ENDMDL
