MODEL 1
REMARK VINA RESULT:     -11.7      0.000      0.000
REMARK  Name = 
REMARK  3 active torsions:
REMARK  status: ('A' for Active; 'I' for Inactive)
REMARK    1  A    between atoms: O_2  and  C_3
REMARK    2  A    between atoms: C_3  and  C_4
REMARK    3  A    between atoms: N_6  and  C_7
REMARK                            x       y       z     vdW  Elec       q    Type
REMARK                         _______ _______ _______ _____ _____    ______ ____
ROOT
ATOM      7  C   UNL     1      -2.731   1.635  24.684  0.00  0.00    +0.095 C 
ATOM      8  C   UNL     1      -3.532   1.831  24.673  0.00  0.00    +0.022 C 
ATOM      9  C   UNL     1      -4.101   1.235  24.664  0.00  0.00    +0.002 C 
ATOM     10  C   UNL     1      -3.871   0.443  24.666  0.00  0.00    +0.003 C 
ATOM     11  C   UNL     1      -4.672   0.638  24.656  0.00  0.00    +0.000 C 
ATOM     12  C   UNL     1      -4.440  -0.153  24.658  0.00  0.00    +0.000 C 
ATOM     13  C   UNL     1      -4.210  -0.945  24.660  0.00  0.00    +0.004 C 
ATOM     14  C   UNL     1      -3.408  -1.141  24.670  0.00  0.00    +0.051 C 
ATOM     15  C   UNL     1      -3.017  -1.868  24.675  0.00  0.00    +0.103 C 
ATOM     16  C   UNL     1      -3.375  -2.611  24.669  0.00  0.00    +0.012 C 
ATOM     17  C   UNL     1      -2.205  -1.720  24.686  0.00  0.00    +0.316 C 
ATOM     18  O   UNL     1      -1.610  -2.290  24.693  0.00  0.00    -0.250 OA
ATOM     19  O   UNL     1      -2.094  -0.903  24.688  0.00  0.00    -0.452 OA
ATOM     20  C   UNL     1      -2.837  -0.544  24.679  0.00  0.00    +0.169 C 
ATOM     21  C   UNL     1      -3.069   0.247  24.677  0.00  0.00    +0.042 C 
ATOM     22  C   UNL     1      -2.499   0.844  24.686  0.00  0.00    +0.023 C 
ATOM     23  C   UNL     1      -1.698   0.648  24.696  0.00  0.00    +0.002 C 
ENDROOT
BRANCH   7   6
ATOM      4  C   UNL     1      -2.315   2.945  25.077  0.00  0.00    +0.272 C 
ATOM      5  O   UNL     1      -3.040   3.062  25.453  0.00  0.00    -0.271 OA
ATOM      6  N   UNL     1      -2.160   2.232  24.692  0.00  0.00    -0.205 NA
BRANCH   4   3
ATOM      3  C   UNL     1      -1.744   3.541  25.086  0.00  0.00    +0.229 C 
BRANCH   3   2
ATOM      1  C   UNL     1      -1.413   4.929  25.178  0.00  0.00    +0.175 C 
ATOM      2  O   UNL     1      -1.963   4.318  25.259  0.00  0.00    -0.342 OA
ENDBRANCH   3   2
ENDBRANCH   4   3
ENDBRANCH   7   6
TORSDOF 3
ENDMDL
MODEL 2
REMARK VINA RESULT:     -11.7      1.652      2.136
REMARK  Name = 
REMARK  3 active torsions:
REMARK  status: ('A' for Active; 'I' for Inactive)
REMARK    1  A    between atoms: O_2  and  C_3
REMARK    2  A    between atoms: C_3  and  C_4
REMARK    3  A    between atoms: N_6  and  C_7
REMARK                            x       y       z     vdW  Elec       q    Type
REMARK                         _______ _______ _______ _____ _____    ______ ____
ROOT
ATOM      7  C   UNL     1      -3.903   0.517  24.447  0.00  0.00    +0.095 C 
ATOM      8  C   UNL     1      -4.546   0.043  24.241  0.00  0.00    +0.022 C 
ATOM      9  C   UNL     1      -4.454  -0.774  24.180  0.00  0.00    +0.002 C 
ATOM     10  C   UNL     1      -3.718  -1.118  24.326  0.00  0.00    +0.003 C 
ATOM     11  C   UNL     1      -4.361  -1.592  24.119  0.00  0.00    +0.000 C 
ATOM     12  C   UNL     1      -3.625  -1.935  24.265  0.00  0.00    +0.000 C 
ATOM     13  C   UNL     1      -2.890  -2.279  24.411  0.00  0.00    +0.004 C 
ATOM     14  C   UNL     1      -2.247  -1.806  24.617  0.00  0.00    +0.051 C 
ATOM     15  C   UNL     1      -1.461  -1.987  24.792  0.00  0.00    +0.103 C 
ATOM     16  C   UNL     1      -1.127  -2.741  24.797  0.00  0.00    +0.012 C 
ATOM     17  C   UNL     1      -1.068  -1.281  24.961  0.00  0.00    +0.316 C 
ATOM     18  O   UNL     1      -0.272  -1.206  25.164  0.00  0.00    -0.250 OA
ATOM     19  O   UNL     1      -1.611  -0.664  24.890  0.00  0.00    -0.452 OA
ATOM     20  C   UNL     1      -2.339  -0.987  24.678  0.00  0.00    +0.169 C 
ATOM     21  C   UNL     1      -3.075  -0.644  24.532  0.00  0.00    +0.042 C 
ATOM     22  C   UNL     1      -3.168   0.174  24.593  0.00  0.00    +0.023 C 
ATOM     23  C   UNL     1      -2.525   0.647  24.799  0.00  0.00    +0.002 C 
ENDROOT
BRANCH   7   6
ATOM      4  C   UNL     1      -4.670   1.648  24.867  0.00  0.00    +0.272 C 
ATOM      5  O   UNL     1      -5.250   1.143  25.165  0.00  0.00    -0.271 OA
ATOM      6  N   UNL     1      -3.996   1.335  24.508  0.00  0.00    -0.205 NA
BRANCH   4   3
ATOM      3  C   UNL     1      -4.762   2.466  24.928  0.00  0.00    +0.229 C 
BRANCH   3   2
ATOM      1  C   UNL     1      -5.291   3.600  25.619  0.00  0.00    +0.175 C 
ATOM      2  O   UNL     1      -5.256   2.782  25.508  0.00  0.00    -0.342 OA
ENDBRANCH   3   2
ENDBRANCH   4   3
ENDBRANCH   7   6
TORSDOF 3
ENDMDL
MODEL 3
REMARK VINA RESULT:     -11.6      1.259      4.311
REMARK  Name = 
REMARK  3 active torsions:
REMARK  status: ('A' for Active; 'I' for Inactive)
REMARK    1  A    between atoms: O_2  and  C_3
REMARK    2  A    between atoms: C_3  and  C_4
REMARK    3  A    between atoms: N_6  and  C_7
REMARK                            x       y       z     vdW  Elec       q    Type
REMARK                         _______ _______ _______ _____ _____    ______ ____
ROOT
ATOM      7  C   UNL     1      -3.869   1.126  24.391  0.00  0.00    +0.095 C 
ATOM      8  C   UNL     1      -4.597   1.367  24.696  0.00  0.00    +0.022 C 
ATOM      9  C   UNL     1      -4.674   2.114  25.036  0.00  0.00    +0.002 C 
ATOM     10  C   UNL     1      -4.025   2.622  25.070  0.00  0.00    +0.003 C 
ATOM     11  C   UNL     1      -4.752   2.863  25.376  0.00  0.00    +0.000 C 
ATOM     12  C   UNL     1      -4.102   3.369  25.410  0.00  0.00    +0.000 C 
ATOM     13  C   UNL     1      -3.452   3.877  25.444  0.00  0.00    +0.004 C 
ATOM     14  C   UNL     1      -2.725   3.636  25.139  0.00  0.00    +0.051 C 
ATOM     15  C   UNL     1      -1.992   4.013  25.095  0.00  0.00    +0.103 C 
ATOM     16  C   UNL     1      -1.820   4.772  25.369  0.00  0.00    +0.012 C 
ATOM     17  C   UNL     1      -1.462   3.498  24.727  0.00  0.00    +0.316 C 
ATOM     18  O   UNL     1      -0.667   3.652  24.571  0.00  0.00    -0.250 OA
ATOM     19  O   UNL     1      -1.866   2.803  24.545  0.00  0.00    -0.452 OA
ATOM     20  C   UNL     1      -2.647   2.888  24.799  0.00  0.00    +0.169 C 
ATOM     21  C   UNL     1      -3.297   2.381  24.765  0.00  0.00    +0.042 C 
ATOM     22  C   UNL     1      -3.219   1.633  24.425  0.00  0.00    +0.023 C 
ATOM     23  C   UNL     1      -2.493   1.392  24.119  0.00  0.00    +0.002 C 
ENDROOT
BRANCH   7   6
ATOM      4  C   UNL     1      -4.062  -0.288  24.455  0.00  0.00    +0.272 C 
ATOM      5  O   UNL     1      -4.409  -0.207  25.199  0.00  0.00    -0.271 OA
ATOM      6  N   UNL     1      -3.792   0.378  24.051  0.00  0.00    -0.205 NA
BRANCH   4   3
ATOM      3  C   UNL     1      -3.984  -1.037  24.115  0.00  0.00    +0.229 C 
BRANCH   3   2
ATOM      1  C   UNL     1      -3.793  -2.444  24.274  0.00  0.00    +0.175 C 
ATOM      2  O   UNL     1      -3.993  -1.709  24.593  0.00  0.00    -0.342 OA
ENDBRANCH   3   2
ENDBRANCH   4   3
ENDBRANCH   7   6
TORSDOF 3
ENDMDL
MODEL 4
REMARK VINA RESULT:     -11.3      1.720      4.529
REMARK  Name = 
REMARK  3 active torsions:
REMARK  status: ('A' for Active; 'I' for Inactive)
REMARK    1  A    between atoms: O_2  and  C_3
REMARK    2  A    between atoms: C_3  and  C_4
REMARK    3  A    between atoms: N_6  and  C_7
REMARK                            x       y       z     vdW  Elec       q    Type
REMARK                         _______ _______ _______ _____ _____    ______ ____
ROOT
ATOM      7  C   UNL     1      -3.959   0.206  24.162  0.00  0.00    +0.095 C 
ATOM      8  C   UNL     1      -3.386   0.435  23.614  0.00  0.00    +0.022 C 
ATOM      9  C   UNL     1      -3.208   1.233  23.514  0.00  0.00    +0.002 C 
ATOM     10  C   UNL     1      -3.601   1.804  23.961  0.00  0.00    +0.003 C 
ATOM     11  C   UNL     1      -3.029   2.033  23.413  0.00  0.00    +0.000 C 
ATOM     12  C   UNL     1      -3.423   2.603  23.861  0.00  0.00    +0.000 C 
ATOM     13  C   UNL     1      -3.816   3.174  24.308  0.00  0.00    +0.004 C 
ATOM     14  C   UNL     1      -4.389   2.945  24.856  0.00  0.00    +0.051 C 
ATOM     15  C   UNL     1      -4.864   3.379  25.372  0.00  0.00    +0.103 C 
ATOM     16  C   UNL     1      -4.867   4.200  25.454  0.00  0.00    +0.012 C 
ATOM     17  C   UNL     1      -5.337   2.848  25.791  0.00  0.00    +0.316 C 
ATOM     18  O   UNL     1      -5.895   3.046  26.366  0.00  0.00    -0.250 OA
ATOM     19  O   UNL     1      -5.154   2.086  25.535  0.00  0.00    -0.452 OA
ATOM     20  C   UNL     1      -4.568   2.145  24.957  0.00  0.00    +0.169 C 
ATOM     21  C   UNL     1      -4.174   1.575  24.509  0.00  0.00    +0.042 C 
ATOM     22  C   UNL     1      -4.353   0.776  24.610  0.00  0.00    +0.023 C 
ATOM     23  C   UNL     1      -4.925   0.547  25.157  0.00  0.00    +0.002 C 
ENDROOT
BRANCH   7   6
ATOM      4  C   UNL     1      -3.529  -1.144  24.351  0.00  0.00    +0.272 C 
ATOM      5  O   UNL     1      -2.743  -0.895  24.338  0.00  0.00    -0.271 OA
ATOM      6  N   UNL     1      -4.138  -0.594  24.263  0.00  0.00    -0.205 NA
BRANCH   4   3
ATOM      3  C   UNL     1      -3.708  -1.944  24.451  0.00  0.00    +0.229 C 
BRANCH   3   2
ATOM      1  C   UNL     1      -3.281  -3.285  24.694  0.00  0.00    +0.175 C 
ATOM      2  O   UNL     1      -3.108  -2.481  24.627  0.00  0.00    -0.342 OA
ENDBRANCH   3   2
ENDBRANCH   4   3
ENDBRANCH   7   6
TORSDOF 3
ENDMDL
MODEL 5
REMARK VINA RESULT:     -11.1      1.431      3.585
REMARK  Name = 
REMARK  3 active torsions:
REMARK  status: ('A' for Active; 'I' for Inactive)
REMARK    1  A    between atoms: O_2  and  C_3
REMARK    2  A    between atoms: C_3  and  C_4
REMARK    3  A    between atoms: N_6  and  C_7
REMARK                            x       y       z     vdW  Elec       q    Type
REMARK                         _______ _______ _______ _____ _____    ______ ____
ROOT
ATOM      7  C   UNL     1      -2.332   0.771  24.130  0.00  0.00    +0.095 C 
ATOM      8  C   UNL     1      -2.640   0.007  24.176  0.00  0.00    +0.022 C 
ATOM      9  C   UNL     1      -3.411  -0.112  24.444  0.00  0.00    +0.002 C 
ATOM     10  C   UNL     1      -3.875   0.533  24.667  0.00  0.00    +0.003 C 
ATOM     11  C   UNL     1      -4.182  -0.231  24.712  0.00  0.00    +0.000 C 
ATOM     12  C   UNL     1      -4.645   0.415  24.935  0.00  0.00    +0.000 C 
ATOM     13  C   UNL     1      -5.109   1.060  25.157  0.00  0.00    +0.004 C 
ATOM     14  C   UNL     1      -4.801   1.824  25.112  0.00  0.00    +0.051 C 
ATOM     15  C   UNL     1      -5.125   2.561  25.292  0.00  0.00    +0.103 C 
ATOM     16  C   UNL     1      -5.886   2.700  25.578  0.00  0.00    +0.012 C 
ATOM     17  C   UNL     1      -4.553   3.136  25.135  0.00  0.00    +0.316 C 
ATOM     18  O   UNL     1      -4.644   3.949  25.237  0.00  0.00    -0.250 OA
ATOM     19  O   UNL     1      -3.877   2.754  24.858  0.00  0.00    -0.452 OA
ATOM     20  C   UNL     1      -4.030   1.943  24.843  0.00  0.00    +0.169 C 
ATOM     21  C   UNL     1      -3.567   1.297  24.621  0.00  0.00    +0.042 C 
ATOM     22  C   UNL     1      -2.795   1.416  24.353  0.00  0.00    +0.023 C 
ATOM     23  C   UNL     1      -2.488   2.179  24.307  0.00  0.00    +0.002 C 
ENDROOT
BRANCH   7   6
ATOM      4  C   UNL     1      -0.963   0.365  24.080  0.00  0.00    +0.272 C 
ATOM      5  O   UNL     1      -1.136  -0.279  24.567  0.00  0.00    -0.271 OA
ATOM      6  N   UNL     1      -1.561   0.890  23.862  0.00  0.00    -0.205 NA
BRANCH   4   3
ATOM      3  C   UNL     1      -0.191   0.484  23.812  0.00  0.00    +0.229 C 
BRANCH   3   2
ATOM      1  C   UNL     1       0.957  -0.029  23.134  0.00  0.00    +0.175 C 
ATOM      2  O   UNL     1       0.258  -0.158  23.554  0.00  0.00    -0.342 OA
ENDBRANCH   3   2
ENDBRANCH   4   3
ENDBRANCH   7   6
TORSDOF 3
ENDMDL
MODEL 6
REMARK VINA RESULT:     -10.9      2.268      3.957
REMARK  Name = 
REMARK  3 active torsions:
REMARK  status: ('A' for Active; 'I' for Inactive)
REMARK    1  A    between atoms: O_2  and  C_3
REMARK    2  A    between atoms: C_3  and  C_4
REMARK    3  A    between atoms: N_6  and  C_7
REMARK                            x       y       z     vdW  Elec       q    Type
REMARK                         _______ _______ _______ _____ _____    ______ ____
ROOT
ATOM      7  C   UNL     1      -1.834   2.265  24.267  0.00  0.00    +0.095 C 
ATOM      8  C   UNL     1      -1.435   2.861  24.674  0.00  0.00    +0.022 C 
ATOM      9  C   UNL     1      -1.853   3.384  25.154  0.00  0.00    +0.002 C 
ATOM     10  C   UNL     1      -2.672   3.312  25.229  0.00  0.00    +0.003 C 
ATOM     11  C   UNL     1      -2.272   3.908  25.636  0.00  0.00    +0.000 C 
ATOM     12  C   UNL     1      -3.091   3.835  25.710  0.00  0.00    +0.000 C 
ATOM     13  C   UNL     1      -3.909   3.762  25.785  0.00  0.00    +0.004 C 
ATOM     14  C   UNL     1      -4.309   3.166  25.378  0.00  0.00    +0.051 C 
ATOM     15  C   UNL     1      -5.107   2.960  25.345  0.00  0.00    +0.103 C 
ATOM     16  C   UNL     1      -5.723   3.338  25.743  0.00  0.00    +0.012 C 
ATOM     17  C   UNL     1      -5.181   2.309  24.843  0.00  0.00    +0.316 C 
ATOM     18  O   UNL     1      -5.885   1.923  24.651  0.00  0.00    -0.250 OA
ATOM     19  O   UNL     1      -4.430   2.113  24.566  0.00  0.00    -0.452 OA
ATOM     20  C   UNL     1      -3.890   2.642  24.897  0.00  0.00    +0.169 C 
ATOM     21  C   UNL     1      -3.072   2.715  24.823  0.00  0.00    +0.042 C 
ATOM     22  C   UNL     1      -2.653   2.192  24.341  0.00  0.00    +0.023 C 
ATOM     23  C   UNL     1      -3.052   1.596  23.935  0.00  0.00    +0.002 C 
ENDROOT
BRANCH   7   6
ATOM      4  C   UNL     1      -0.738   1.370  24.074  0.00  0.00    +0.272 C 
ATOM      5  O   UNL     1      -0.478   1.521  24.842  0.00  0.00    -0.271 OA
ATOM      6  N   UNL     1      -1.416   1.741  23.786  0.00  0.00    -0.205 NA
BRANCH   4   3
ATOM      3  C   UNL     1      -0.319   0.846  23.592  0.00  0.00    +0.229 C 
BRANCH   3   2
ATOM      1  C   UNL     1       0.535  -0.291  23.454  0.00  0.00    +0.175 C 
ATOM      2  O   UNL     1       0.155   0.263  23.933  0.00  0.00    -0.342 OA
ENDBRANCH   3   2
ENDBRANCH   4   3
ENDBRANCH   7   6
TORSDOF 3
ENDMDL
