MODEL 1
REMARK VINA RESULT:     -10.7      0.000      0.000
REMARK  Name = 
REMARK  6 active torsions:
REMARK  status: ('A' for Active; 'I' for Inactive)
REMARK    1  A    between atoms: C_3  and  C_4
REMARK    2  A    between atoms: C_4  and  N_5
REMARK    3  A    between atoms: C_6  and  C_8
REMARK    4  A    between atoms: C_16  and  N_17
REMARK    5  A    between atoms: N_17  and  C_18
REMARK    6  A    between atoms: C_18  and  C_19
REMARK                            x       y       z     vdW  Elec       q    Type
REMARK                         _______ _______ _______ _____ _____    ______ ____
ROOT
ATOM      1  O   UNL     1      -4.112   1.142  25.454  0.00  0.00    -0.219 OA
ATOM      2  C   UNL     1      -3.765   1.239  24.711  0.00  0.00    +0.199 C 
ATOM      3  C   UNL     1      -3.464   1.943  24.404  0.00  0.00    +0.169 C 
ATOM     14  O   UNL     1      -3.172   1.787  23.649  0.00  0.00    -0.350 OA
ATOM     15  C   UNL     1      -3.292   0.987  23.489  0.00  0.00    +0.162 C 
ATOM     16  C   UNL     1      -3.659   0.648  24.145  0.00  0.00    +0.135 C 
ENDROOT
BRANCH   3   4
ATOM      4  C   UNL     1      -3.457   2.674  24.786  0.00  0.00    +0.148 C 
BRANCH   4   5
ATOM      5  N   UNL     1      -2.800   3.169  24.718  0.00  0.00    -0.199 NA
ATOM      6  C   UNL     1      -2.728   3.829  25.208  0.00  0.00    +0.265 C 
ATOM      7  O   UNL     1      -3.312   3.994  25.766  0.00  0.00    -0.268 OA
BRANCH   6   8
ATOM      8  C   UNL     1      -2.071   4.323  25.139  0.00  0.00    +0.055 A 
ATOM      9  C   UNL     1      -2.171   5.141  25.123  0.00  0.00    +0.005 A 
ATOM     10  C   UNL     1      -1.514   5.637  25.055  0.00  0.00    +0.000 A 
ATOM     11  C   UNL     1      -0.757   5.312  25.003  0.00  0.00    +0.000 A 
ATOM     12  C   UNL     1      -0.657   4.493  25.019  0.00  0.00    +0.000 A 
ATOM     13  C   UNL     1      -1.314   3.999  25.087  0.00  0.00    +0.005 A 
ENDBRANCH   6   8
ENDBRANCH   4   5
ENDBRANCH   3   4
BRANCH  16  17
ATOM     17  N   UNL     1      -3.880  -0.143  24.222  0.00  0.00    -0.209 NA
BRANCH  17  18
ATOM     18  C   UNL     1      -3.304  -0.733  24.233  0.00  0.00    +0.118 C 
BRANCH  18  19
ATOM     19  C   UNL     1      -3.527  -1.528  24.235  0.00  0.00    +0.034 A 
ATOM     20  C   UNL     1      -3.047  -2.090  24.600  0.00  0.00    +0.193 A 
ATOM     21  O   UNL     1      -2.343  -1.858  24.963  0.00  0.00    -0.287 OA
ATOM     22  C   UNL     1      -3.270  -2.885  24.602  0.00  0.00    +0.042 A 
ATOM     23  C   UNL     1      -3.974  -3.116  24.239  0.00  0.00    +0.003 A 
ATOM     24  C   UNL     1      -4.454  -2.553  23.874  0.00  0.00    -0.000 A 
ATOM     25  C   UNL     1      -4.231  -1.759  23.872  0.00  0.00    +0.000 A 
ENDBRANCH  18  19
ENDBRANCH  17  18
ENDBRANCH  16  17
TORSDOF 6
ENDMDL
MODEL 2
REMARK VINA RESULT:     -10.6      1.539      6.052
REMARK  Name = 
REMARK  6 active torsions:
REMARK  status: ('A' for Active; 'I' for Inactive)
REMARK    1  A    between atoms: C_3  and  C_4
REMARK    2  A    between atoms: C_4  and  N_5
REMARK    3  A    between atoms: C_6  and  C_8
REMARK    4  A    between atoms: C_16  and  N_17
REMARK    5  A    between atoms: N_17  and  C_18
REMARK    6  A    between atoms: C_18  and  C_19
REMARK                            x       y       z     vdW  Elec       q    Type
REMARK                         _______ _______ _______ _____ _____    ______ ____
ROOT
ATOM      1  O   UNL     1      -1.087   1.250  23.798  0.00  0.00    -0.219 OA
ATOM      2  C   UNL     1      -1.046   1.129  24.613  0.00  0.00    +0.199 C 
ATOM      3  C   UNL     1      -1.081   0.401  24.998  0.00  0.00    +0.169 C 
ATOM     14  O   UNL     1      -1.019   0.538  25.808  0.00  0.00    -0.350 OA
ATOM     15  C   UNL     1      -0.945   1.351  25.925  0.00  0.00    +0.162 C 
ATOM     16  C   UNL     1      -0.962   1.717  25.186  0.00  0.00    +0.135 C 
ENDROOT
BRANCH   3   4
ATOM      4  C   UNL     1      -1.164  -0.336  24.635  0.00  0.00    +0.148 C 
BRANCH   4   5
ATOM      5  N   UNL     1      -1.901  -0.705  24.615  0.00  0.00    -0.199 NA
ATOM      6  C   UNL     1      -1.961  -1.496  24.386  0.00  0.00    +0.265 C 
ATOM      7  O   UNL     1      -1.283  -1.916  24.176  0.00  0.00    -0.268 OA
BRANCH   6   8
ATOM      8  C   UNL     1      -2.698  -1.865  24.366  0.00  0.00    +0.055 A 
ATOM      9  C   UNL     1      -3.327  -1.507  23.971  0.00  0.00    +0.005 A 
ATOM     10  C   UNL     1      -4.066  -1.876  23.950  0.00  0.00    +0.000 A 
ATOM     11  C   UNL     1      -4.173  -2.603  24.326  0.00  0.00    +0.000 A 
ATOM     12  C   UNL     1      -3.543  -2.961  24.721  0.00  0.00    +0.000 A 
ATOM     13  C   UNL     1      -2.805  -2.592  24.741  0.00  0.00    +0.005 A 
ENDBRANCH   6   8
ENDBRANCH   4   5
ENDBRANCH   3   4
BRANCH  16  17
ATOM     17  N   UNL     1      -0.905   2.527  25.045  0.00  0.00    -0.209 NA
BRANCH  17  18
ATOM     18  C   UNL     1      -1.323   3.059  25.517  0.00  0.00    +0.118 C 
BRANCH  18  19
ATOM     19  C   UNL     1      -1.321   3.864  25.334  0.00  0.00    +0.034 A 
ATOM     20  C   UNL     1      -1.976   4.330  25.519  0.00  0.00    +0.193 A 
ATOM     21  O   UNL     1      -2.632   3.992  25.887  0.00  0.00    -0.287 OA
ATOM     22  C   UNL     1      -1.974   5.135  25.336  0.00  0.00    +0.042 A 
ATOM     23  C   UNL     1      -1.317   5.472  24.968  0.00  0.00    +0.003 A 
ATOM     24  C   UNL     1      -0.663   5.006  24.783  0.00  0.00    -0.000 A 
ATOM     25  C   UNL     1      -0.664   4.201  24.966  0.00  0.00    +0.000 A 
ENDBRANCH  18  19
ENDBRANCH  17  18
ENDBRANCH  16  17
TORSDOF 6
ENDMDL
MODEL 3
REMARK VINA RESULT:     -10.5      1.689      1.971
REMARK  Name = 
REMARK  6 active torsions:
REMARK  status: ('A' for Active; 'I' for Inactive)
REMARK    1  A    between atoms: C_3  and  C_4
REMARK    2  A    between atoms: C_4  and  N_5
REMARK    3  A    between atoms: C_6  and  C_8
REMARK    4  A    between atoms: C_16  and  N_17
REMARK    5  A    between atoms: N_17  and  C_18
REMARK    6  A    between atoms: C_18  and  C_19
REMARK                            x       y       z     vdW  Elec       q    Type
REMARK                         _______ _______ _______ _____ _____    ______ ____
ROOT
ATOM      1  O   UNL     1      -1.671   0.269  26.054  0.00  0.00    -0.219 OA
ATOM      2  C   UNL     1      -1.416   0.348  25.274  0.00  0.00    +0.199 C 
ATOM      3  C   UNL     1      -0.969   0.971  24.969  0.00  0.00    +0.169 C 
ATOM     14  O   UNL     1      -0.840   0.825  24.168  0.00  0.00    -0.350 OA
ATOM     15  C   UNL     1      -1.206   0.110  23.977  0.00  0.00    +0.162 C 
ATOM     16  C   UNL     1      -1.562  -0.185  24.660  0.00  0.00    +0.135 C 
ENDROOT
BRANCH   3   4
ATOM      4  C   UNL     1      -0.700   1.626  25.393  0.00  0.00    +0.148 C 
BRANCH   4   5
ATOM      5  N   UNL     1      -0.995   2.377  25.222  0.00  0.00    -0.199 NA
ATOM      6  C   UNL     1      -0.664   3.042  25.581  0.00  0.00    +0.265 C 
ATOM      7  O   UNL     1      -0.038   2.956  26.111  0.00  0.00    -0.268 OA
BRANCH   6   8
ATOM      8  C   UNL     1      -0.959   3.794  25.411  0.00  0.00    +0.055 A 
ATOM      9  C   UNL     1      -0.509   4.322  24.967  0.00  0.00    +0.005 A 
ATOM     10  C   UNL     1      -0.804   5.074  24.796  0.00  0.00    +0.000 A 
ATOM     11  C   UNL     1      -1.550   5.296  25.070  0.00  0.00    +0.000 A 
ATOM     12  C   UNL     1      -2.001   4.766  25.514  0.00  0.00    +0.000 A 
ATOM     13  C   UNL     1      -1.706   4.015  25.685  0.00  0.00    +0.005 A 
ENDBRANCH   6   8
ENDBRANCH   4   5
ENDBRANCH   3   4
BRANCH  16  17
ATOM     17  N   UNL     1      -1.989  -0.888  24.719  0.00  0.00    -0.209 NA
BRANCH  17  18
ATOM     18  C   UNL     1      -2.700  -0.974  24.310  0.00  0.00    +0.118 C 
BRANCH  18  19
ATOM     19  C   UNL     1      -3.096  -1.698  24.319  0.00  0.00    +0.034 A 
ATOM     20  C   UNL     1      -3.866  -1.750  24.028  0.00  0.00    +0.193 A 
ATOM     21  O   UNL     1      -4.240  -1.079  23.727  0.00  0.00    -0.287 OA
ATOM     22  C   UNL     1      -4.262  -2.474  24.037  0.00  0.00    +0.042 A 
ATOM     23  C   UNL     1      -3.888  -3.145  24.338  0.00  0.00    +0.003 A 
ATOM     24  C   UNL     1      -3.118  -3.092  24.629  0.00  0.00    -0.000 A 
ATOM     25  C   UNL     1      -2.722  -2.368  24.620  0.00  0.00    +0.000 A 
ENDBRANCH  18  19
ENDBRANCH  17  18
ENDBRANCH  16  17
TORSDOF 6
ENDMDL
MODEL 4
REMARK VINA RESULT:     -10.5      1.104      5.941
REMARK  Name = 
REMARK  6 active torsions:
REMARK  status: ('A' for Active; 'I' for Inactive)
REMARK    1  A    between atoms: C_3  and  C_4
REMARK    2  A    between atoms: C_4  and  N_5
REMARK    3  A    between atoms: C_6  and  C_8
REMARK    4  A    between atoms: C_16  and  N_17
REMARK    5  A    between atoms: N_17  and  C_18
REMARK    6  A    between atoms: C_18  and  C_19
REMARK                            x       y       z     vdW  Elec       q    Type
REMARK                         _______ _______ _______ _____ _____    ______ ____
ROOT
ATOM      1  O   UNL     1      -3.947   2.267  24.544  0.00  0.00    -0.219 OA
ATOM      2  C   UNL     1      -3.251   1.866  24.735  0.00  0.00    +0.199 C 
ATOM      3  C   UNL     1      -3.152   1.048  24.750  0.00  0.00    +0.169 C 
ATOM     14  O   UNL     1      -2.373   0.890  24.967  0.00  0.00    -0.350 OA
ATOM     15  C   UNL     1      -1.990   1.610  25.087  0.00  0.00    +0.162 C 
ATOM     16  C   UNL     1      -2.532   2.214  24.943  0.00  0.00    +0.135 C 
ENDROOT
BRANCH   3   4
ATOM      4  C   UNL     1      -3.731   0.486  24.577  0.00  0.00    +0.148 C 
BRANCH   4   5
ATOM      5  N   UNL     1      -3.541  -0.317  24.578  0.00  0.00    -0.199 NA
ATOM      6  C   UNL     1      -4.127  -0.881  24.438  0.00  0.00    +0.265 C 
ATOM      7  O   UNL     1      -4.904  -0.641  24.299  0.00  0.00    -0.268 OA
BRANCH   6   8
ATOM      8  C   UNL     1      -3.936  -1.683  24.439  0.00  0.00    +0.055 A 
ATOM      9  C   UNL     1      -4.147  -2.157  23.798  0.00  0.00    +0.005 A 
ATOM     10  C   UNL     1      -3.957  -2.960  23.798  0.00  0.00    +0.000 A 
ATOM     11  C   UNL     1      -3.555  -3.288  24.439  0.00  0.00    +0.000 A 
ATOM     12  C   UNL     1      -3.344  -2.814  25.081  0.00  0.00    +0.000 A 
ATOM     13  C   UNL     1      -3.535  -2.011  25.081  0.00  0.00    +0.005 A 
ENDBRANCH   6   8
ENDBRANCH   4   5
ENDBRANCH   3   4
BRANCH  16  17
ATOM     17  N   UNL     1      -2.383   3.023  24.998  0.00  0.00    -0.209 NA
BRANCH  17  18
ATOM     18  C   UNL     1      -1.608   3.296  25.063  0.00  0.00    +0.118 C 
BRANCH  18  19
ATOM     19  C   UNL     1      -1.451   4.106  25.028  0.00  0.00    +0.034 A 
ATOM     20  C   UNL     1      -0.744   4.375  24.698  0.00  0.00    +0.193 A 
ATOM     21  O   UNL     1      -0.195   3.834  24.402  0.00  0.00    -0.287 OA
ATOM     22  C   UNL     1      -0.587   5.184  24.663  0.00  0.00    +0.042 A 
ATOM     23  C   UNL     1      -1.137   5.724  24.958  0.00  0.00    +0.003 A 
ATOM     24  C   UNL     1      -1.843   5.455  25.289  0.00  0.00    -0.000 A 
ATOM     25  C   UNL     1      -2.000   4.645  25.324  0.00  0.00    +0.000 A 
ENDBRANCH  18  19
ENDBRANCH  17  18
ENDBRANCH  16  17
TORSDOF 6
ENDMDL
