MODEL 1
REMARK VINA RESULT:     -11.4      0.000      0.000
REMARK  Name = 
REMARK  6 active torsions:
REMARK  status: ('A' for Active; 'I' for Inactive)
REMARK    1  A    between atoms: N_2  and  C_3
REMARK    2  A    between atoms: C_6  and  C_9
REMARK    3  A    between atoms: C_12  and  C_14
REMARK    4  A    between atoms: N_18  and  C_19
REMARK    5  A    between atoms: C_19  and  C_20
REMARK    6  A    between atoms: C_24  and  C_26
REMARK                            x       y       z     vdW  Elec       q    Type
REMARK                         _______ _______ _______ _____ _____    ______ ____
ROOT
ATOM     14  C   UNL     1      -4.053   2.440  24.253  0.00  0.00    +0.138 C 
ATOM     15  C   UNL     1      -4.353   2.733  23.542  0.00  0.00    +0.027 C 
ATOM     16  C   UNL     1      -4.029   3.482  23.419  0.00  0.00    +0.019 C 
ATOM     17  C   UNL     1      -3.530   3.651  24.053  0.00  0.00    +0.073 C 
ATOM     18  N   UNL     1      -3.545   3.007  24.569  0.00  0.00    -0.263 NA
ENDROOT
BRANCH  14  12
ATOM      9  C   UNL     1      -4.229   0.399  24.855  0.00  0.00    +0.205 A 
ATOM     10  N   UNL     1      -4.781   0.760  25.352  0.00  0.00    -0.056 NA
ATOM     11  O   UNL     1      -4.783   1.569  25.186  0.00  0.00    -0.336 OA
ATOM     12  C   UNL     1      -4.231   1.707  24.588  0.00  0.00    +0.251 A 
ATOM     13  N   UNL     1      -3.890   0.984  24.384  0.00  0.00    -0.190 NA
BRANCH   9   6
ATOM      3  C   UNL     1      -3.688  -2.015  24.795  0.00  0.00    +0.148 A 
ATOM      4  C   UNL     1      -4.070  -1.661  24.154  0.00  0.00    +0.036 A 
ATOM      5  C   UNL     1      -4.251  -0.856  24.174  0.00  0.00    +0.008 A 
ATOM      6  C   UNL     1      -4.049  -0.405  24.835  0.00  0.00    +0.058 A 
ATOM      7  C   UNL     1      -3.667  -0.758  25.475  0.00  0.00    +0.103 A 
ATOM      8  N   UNL     1      -3.487  -1.563  25.455  0.00  0.00    -0.228 NA
BRANCH   3   2
ATOM      1  C   UNL     1      -2.784  -3.072  24.472  0.00  0.00    +0.137 C 
ATOM      2  N   UNL     1      -3.508  -2.820  24.775  0.00  0.00    -0.218 NA
ENDBRANCH   3   2
ENDBRANCH   9   6
ENDBRANCH  14  12
BRANCH  18  19
ATOM     19  C   UNL     1      -3.125   2.942  25.275  0.00  0.00    +0.099 C 
BRANCH  19  20
ATOM     20  C   UNL     1      -2.397   3.321  25.359  0.00  0.00    -0.005 A 
ATOM     21  C   UNL     1      -2.365   4.143  25.421  0.00  0.00    -0.003 A 
ATOM     22  C   UNL     1      -1.637   4.522  25.505  0.00  0.00    +0.000 A 
ATOM     23  C   UNL     1      -0.942   4.080  25.528  0.00  0.00    +0.010 A 
ATOM     24  C   UNL     1      -0.973   3.258  25.467  0.00  0.00    +0.068 A 
ATOM     25  C   UNL     1      -1.702   2.878  25.382  0.00  0.00    +0.007 A 
BRANCH  24  26
ATOM     26  C   UNL     1      -0.277   2.814  25.489  0.00  0.00    +0.100 C 
ATOM     27  N   UNL     1       0.418   2.371  25.513  0.00  0.00    -0.191 NA
ENDBRANCH  24  26
ENDBRANCH  19  20
ENDBRANCH  18  19
TORSDOF 6
ENDMDL
MODEL 2
REMARK VINA RESULT:     -10.6      1.577      2.803
REMARK  Name = 
REMARK  6 active torsions:
REMARK  status: ('A' for Active; 'I' for Inactive)
REMARK    1  A    between atoms: N_2  and  C_3
REMARK    2  A    between atoms: C_6  and  C_9
REMARK    3  A    between atoms: C_12  and  C_14
REMARK    4  A    between atoms: N_18  and  C_19
REMARK    5  A    between atoms: C_19  and  C_20
REMARK    6  A    between atoms: C_24  and  C_26
REMARK                            x       y       z     vdW  Elec       q    Type
REMARK                         _______ _______ _______ _____ _____    ______ ____
ROOT
ATOM     14  C   UNL     1      -0.474   1.239  24.833  0.00  0.00    +0.138 C 
ATOM     15  C   UNL     1       0.167   1.256  24.314  0.00  0.00    +0.027 C 
ATOM     16  C   UNL     1       0.362   2.046  24.176  0.00  0.00    +0.019 C 
ATOM     17  C   UNL     1      -0.159   2.516  24.609  0.00  0.00    +0.073 C 
ATOM     18  N   UNL     1      -0.675   2.017  25.016  0.00  0.00    -0.263 NA
ENDROOT
BRANCH  14  12
ATOM      9  C   UNL     1      -1.624  -0.522  25.201  0.00  0.00    +0.205 A 
ATOM     10  N   UNL     1      -1.223  -0.441  25.918  0.00  0.00    -0.056 NA
ATOM     11  O   UNL     1      -0.743   0.228  25.867  0.00  0.00    -0.336 OA
ATOM     12  C   UNL     1      -0.848   0.561  25.120  0.00  0.00    +0.251 A 
ATOM     13  N   UNL     1      -1.392   0.097  24.708  0.00  0.00    -0.190 NA
BRANCH   9   6
ATOM      3  C   UNL     1      -3.239  -2.309  24.632  0.00  0.00    +0.148 A 
ATOM      4  C   UNL     1      -3.505  -1.604  24.970  0.00  0.00    +0.036 A 
ATOM      5  C   UNL     1      -2.967  -1.008  25.160  0.00  0.00    +0.008 A 
ATOM      6  C   UNL     1      -2.163  -1.118  25.011  0.00  0.00    +0.058 A 
ATOM      7  C   UNL     1      -1.897  -1.821  24.674  0.00  0.00    +0.103 A 
ATOM      8  N   UNL     1      -2.435  -2.417  24.484  0.00  0.00    -0.228 NA
BRANCH   3   2
ATOM      1  C   UNL     1      -4.329  -2.786  23.841  0.00  0.00    +0.137 C 
ATOM      2  N   UNL     1      -3.778  -2.904  24.442  0.00  0.00    -0.218 NA
ENDBRANCH   3   2
ENDBRANCH   9   6
ENDBRANCH  14  12
BRANCH  18  19
ATOM     19  C   UNL     1      -1.286   2.256  25.517  0.00  0.00    +0.099 C 
BRANCH  19  20
ATOM     20  C   UNL     1      -1.648   2.988  25.406  0.00  0.00    -0.005 A 
ATOM     21  C   UNL     1      -1.274   3.678  25.662  0.00  0.00    -0.003 A 
ATOM     22  C   UNL     1      -1.636   4.410  25.551  0.00  0.00    +0.000 A 
ATOM     23  C   UNL     1      -2.373   4.454  25.183  0.00  0.00    +0.010 A 
ATOM     24  C   UNL     1      -2.748   3.765  24.926  0.00  0.00    +0.068 A 
ATOM     25  C   UNL     1      -2.385   3.032  25.038  0.00  0.00    +0.007 A 
BRANCH  24  26
ATOM     26  C   UNL     1      -3.486   3.809  24.558  0.00  0.00    +0.100 C 
ATOM     27  N   UNL     1      -4.223   3.853  24.191  0.00  0.00    -0.191 NA
ENDBRANCH  24  26
ENDBRANCH  19  20
ENDBRANCH  18  19
TORSDOF 6
ENDMDL
MODEL 3
REMARK VINA RESULT:     -10.4      1.158      5.047
REMARK  Name = 
REMARK  6 active torsions:
REMARK  status: ('A' for Active; 'I' for Inactive)
REMARK    1  A    between atoms: N_2  and  C_3
REMARK    2  A    between atoms: C_6  and  C_9
REMARK    3  A    between atoms: C_12  and  C_14
REMARK    4  A    between atoms: N_18  and  C_19
REMARK    5  A    between atoms: C_19  and  C_20
REMARK    6  A    between atoms: C_24  and  C_26
REMARK                            x       y       z     vdW  Elec       q    Type
REMARK                         _______ _______ _______ _____ _____    ______ ____
ROOT
ATOM     14  C   UNL     1      -4.836   1.727  24.974  0.00  0.00    +0.138 C 
ATOM     15  C   UNL     1      -5.553   1.873  25.355  0.00  0.00    +0.027 C 
ATOM     16  C   UNL     1      -5.880   1.146  25.570  0.00  0.00    +0.019 C 
ATOM     17  C   UNL     1      -5.365   0.551  25.322  0.00  0.00    +0.073 C 
ATOM     18  N   UNL     1      -4.719   0.910  24.953  0.00  0.00    -0.263 NA
ENDROOT
BRANCH  14  12
ATOM      9  C   UNL     1      -3.320   3.168  24.548  0.00  0.00    +0.205 A 
ATOM     10  N   UNL     1      -3.756   3.184  23.847  0.00  0.00    -0.056 NA
ATOM     11  O   UNL     1      -4.378   2.645  23.922  0.00  0.00    -0.336 OA
ATOM     12  C   UNL     1      -4.325   2.297  24.668  0.00  0.00    +0.251 A 
ATOM     13  N   UNL     1      -3.671   2.620  25.055  0.00  0.00    -0.190 NA
BRANCH   9   6
ATOM      3  C   UNL     1      -1.310   4.526  25.040  0.00  0.00    +0.148 A 
ATOM      4  C   UNL     1      -2.052   4.777  25.300  0.00  0.00    +0.036 A 
ATOM      5  C   UNL     1      -2.722   4.325  25.136  0.00  0.00    +0.008 A 
ATOM      6  C   UNL     1      -2.650   3.620  24.712  0.00  0.00    +0.058 A 
ATOM      7  C   UNL     1      -1.909   3.369  24.452  0.00  0.00    +0.103 A 
ATOM      8  N   UNL     1      -1.239   3.822  24.616  0.00  0.00    -0.228 NA
BRANCH   3   2
ATOM      1  C   UNL     1      -0.286   5.423  24.606  0.00  0.00    +0.137 C 
ATOM      2  N   UNL     1      -0.640   4.978  25.204  0.00  0.00    -0.218 NA
ENDBRANCH   3   2
ENDBRANCH   9   6
ENDBRANCH  14  12
BRANCH  18  19
ATOM     19  C   UNL     1      -4.072   0.521  24.623  0.00  0.00    +0.099 C 
BRANCH  19  20
ATOM     20  C   UNL     1      -3.914  -0.262  24.826  0.00  0.00    -0.005 A 
ATOM     21  C   UNL     1      -3.569  -0.438  25.556  0.00  0.00    -0.003 A 
ATOM     22  C   UNL     1      -3.411  -1.221  25.759  0.00  0.00    +0.000 A 
ATOM     23  C   UNL     1      -3.596  -1.829  25.234  0.00  0.00    +0.010 A 
ATOM     24  C   UNL     1      -3.940  -1.655  24.505  0.00  0.00    +0.068 A 
ATOM     25  C   UNL     1      -4.099  -0.871  24.301  0.00  0.00    +0.007 A 
BRANCH  24  26
ATOM     26  C   UNL     1      -4.126  -2.264  23.979  0.00  0.00    +0.100 C 
ATOM     27  N   UNL     1      -4.312  -2.872  23.454  0.00  0.00    -0.191 NA
ENDBRANCH  24  26
ENDBRANCH  19  20
ENDBRANCH  18  19
TORSDOF 6
ENDMDL
MODEL 4
REMARK VINA RESULT:     -10.3      1.692      2.921
REMARK  Name = 
REMARK  6 active torsions:
REMARK  status: ('A' for Active; 'I' for Inactive)
REMARK    1  A    between atoms: N_2  and  C_3
REMARK    2  A    between atoms: C_6  and  C_9
REMARK    3  A    between atoms: C_12  and  C_14
REMARK    4  A    between atoms: N_18  and  C_19
REMARK    5  A    between atoms: C_19  and  C_20
REMARK    6  A    between atoms: C_24  and  C_26
REMARK                            x       y       z     vdW  Elec       q    Type
REMARK                         _______ _______ _______ _____ _____    ______ ____
ROOT
ATOM     14  C   UNL     1      -0.552   1.724  25.550  0.00  0.00    +0.138 C 
ATOM     15  C   UNL     1       0.015   1.715  26.150  0.00  0.00    +0.027 C 
ATOM     16  C   UNL     1       0.100   2.486  26.431  0.00  0.00    +0.019 C 
ATOM     17  C   UNL     1      -0.414   2.971  26.005  0.00  0.00    +0.073 C 
ATOM     18  N   UNL     1      -0.817   2.500  25.461  0.00  0.00    -0.263 NA
ENDROOT
BRANCH  14  12
ATOM      9  C   UNL     1      -1.449  -0.045  24.760  0.00  0.00    +0.205 A 
ATOM     10  N   UNL     1      -0.956   0.176  24.136  0.00  0.00    -0.056 NA
ATOM     11  O   UNL     1      -0.560   0.865  24.356  0.00  0.00    -0.336 OA
ATOM     12  C   UNL     1      -0.808   1.071  25.116  0.00  0.00    +0.251 A 
ATOM     13  N   UNL     1      -1.358   0.508  25.365  0.00  0.00    -0.190 NA
BRANCH   9   6
ATOM      3  C   UNL     1      -2.941  -2.019  24.807  0.00  0.00    +0.148 A 
ATOM      4  C   UNL     1      -3.261  -1.259  24.846  0.00  0.00    +0.036 A 
ATOM      5  C   UNL     1      -2.764  -0.601  24.831  0.00  0.00    +0.008 A 
ATOM      6  C   UNL     1      -1.947  -0.703  24.776  0.00  0.00    +0.058 A 
ATOM      7  C   UNL     1      -1.627  -1.462  24.736  0.00  0.00    +0.103 A 
ATOM      8  N   UNL     1      -2.125  -2.120  24.751  0.00  0.00    -0.228 NA
BRANCH   3   2
ATOM      1  C   UNL     1      -3.908  -2.855  24.168  0.00  0.00    +0.137 C 
ATOM      2  N   UNL     1      -3.439  -2.677  24.822  0.00  0.00    -0.218 NA
ENDBRANCH   3   2
ENDBRANCH   9   6
ENDBRANCH  14  12
BRANCH  18  19
ATOM     19  C   UNL     1      -1.385   2.759  24.922  0.00  0.00    +0.099 C 
BRANCH  19  20
ATOM     20  C   UNL     1      -1.871   3.398  25.110  0.00  0.00    -0.005 A 
ATOM     21  C   UNL     1      -1.562   4.164  25.118  0.00  0.00    -0.003 A 
ATOM     22  C   UNL     1      -2.048   4.803  25.306  0.00  0.00    +0.000 A 
ATOM     23  C   UNL     1      -2.843   4.677  25.488  0.00  0.00    +0.010 A 
ATOM     24  C   UNL     1      -3.152   3.912  25.481  0.00  0.00    +0.068 A 
ATOM     25  C   UNL     1      -2.665   3.273  25.292  0.00  0.00    +0.007 A 
BRANCH  24  26
ATOM     26  C   UNL     1      -3.947   3.786  25.663  0.00  0.00    +0.100 C 
ATOM     27  N   UNL     1      -4.742   3.660  25.845  0.00  0.00    -0.191 NA
ENDBRANCH  24  26
ENDBRANCH  19  20
ENDBRANCH  18  19
TORSDOF 6
ENDMDL
MODEL 5
REMARK VINA RESULT:      -9.9      2.043      4.475
REMARK  Name = 
REMARK  6 active torsions:
REMARK  status: ('A' for Active; 'I' for Inactive)
REMARK    1  A    between atoms: N_2  and  C_3
REMARK    2  A    between atoms: C_6  and  C_9
REMARK    3  A    between atoms: C_12  and  C_14
REMARK    4  A    between atoms: N_18  and  C_19
REMARK    5  A    between atoms: C_19  and  C_20
REMARK    6  A    between atoms: C_24  and  C_26
REMARK                            x       y       z     vdW  Elec       q    Type
REMARK                         _______ _______ _______ _____ _____    ______ ____
ROOT
ATOM     14  C   UNL     1      -3.677  -0.774  24.315  0.00  0.00    +0.138 C 
ATOM     15  C   UNL     1      -4.139  -1.405  24.052  0.00  0.00    +0.027 C 
ATOM     16  C   UNL     1      -3.749  -2.106  24.247  0.00  0.00    +0.019 C 
ATOM     17  C   UNL     1      -3.046  -1.908  24.630  0.00  0.00    +0.073 C 
ATOM     18  N   UNL     1      -3.001  -1.085  24.672  0.00  0.00    -0.263 NA
ENDROOT
BRANCH  14  12
ATOM      9  C   UNL     1      -4.325   1.253  24.479  0.00  0.00    +0.205 A 
ATOM     10  N   UNL     1      -3.952   1.264  23.743  0.00  0.00    -0.056 NA
ATOM     11  O   UNL     1      -3.664   0.506  23.592  0.00  0.00    -0.336 OA
ATOM     12  C   UNL     1      -3.858   0.026  24.234  0.00  0.00    +0.251 A 
ATOM     13  N   UNL     1      -4.267   0.488  24.783  0.00  0.00    -0.190 NA
BRANCH   9   6
ATOM      3  C   UNL     1      -5.423   3.177  25.582  0.00  0.00    +0.148 A 
ATOM      4  C   UNL     1      -5.857   2.495  25.414  0.00  0.00    +0.036 A 
ATOM      5  C   UNL     1      -5.491   1.853  25.046  0.00  0.00    +0.008 A 
ATOM      6  C   UNL     1      -4.691   1.894  24.847  0.00  0.00    +0.058 A 
ATOM      7  C   UNL     1      -4.258   2.575  25.015  0.00  0.00    +0.103 A 
ATOM      8  N   UNL     1      -4.624   3.216  25.383  0.00  0.00    -0.228 NA
BRANCH   3   2
ATOM      1  C   UNL     1      -5.854   4.539  25.554  0.00  0.00    +0.137 C 
ATOM      2  N   UNL     1      -5.790   3.818  25.950  0.00  0.00    -0.218 NA
ENDBRANCH   3   2
ENDBRANCH   9   6
ENDBRANCH  14  12
BRANCH  18  19
ATOM     19  C   UNL     1      -2.389  -0.650  25.012  0.00  0.00    +0.099 C 
BRANCH  19  20
ATOM     20  C   UNL     1      -1.610  -0.915  24.950  0.00  0.00    -0.005 A 
ATOM     21  C   UNL     1      -1.335  -1.509  25.453  0.00  0.00    -0.003 A 
ATOM     22  C   UNL     1      -0.556  -1.773  25.390  0.00  0.00    +0.000 A 
ATOM     23  C   UNL     1      -0.053  -1.445  24.825  0.00  0.00    +0.010 A 
ATOM     24  C   UNL     1      -0.327  -0.852  24.322  0.00  0.00    +0.068 A 
ATOM     25  C   UNL     1      -1.107  -0.587  24.385  0.00  0.00    +0.007 A 
BRANCH  24  26
ATOM     26  C   UNL     1       0.176  -0.523  23.757  0.00  0.00    +0.100 C 
ATOM     27  N   UNL     1       0.680  -0.196  23.192  0.00  0.00    -0.191 NA
ENDBRANCH  24  26
ENDBRANCH  19  20
ENDBRANCH  18  19
TORSDOF 6
ENDMDL
MODEL 6
REMARK VINA RESULT:      -9.9      1.999      5.051
REMARK  Name = 
REMARK  6 active torsions:
REMARK  status: ('A' for Active; 'I' for Inactive)
REMARK    1  A    between atoms: N_2  and  C_3
REMARK    2  A    between atoms: C_6  and  C_9
REMARK    3  A    between atoms: C_12  and  C_14
REMARK    4  A    between atoms: N_18  and  C_19
REMARK    5  A    between atoms: C_19  and  C_20
REMARK    6  A    between atoms: C_24  and  C_26
REMARK                            x       y       z     vdW  Elec       q    Type
REMARK                         _______ _______ _______ _____ _____    ______ ____
ROOT
ATOM     14  C   UNL     1      -0.657   0.778  24.429  0.00  0.00    +0.138 C 
ATOM     15  C   UNL     1      -0.092   0.886  23.837  0.00  0.00    +0.027 C 
ATOM     16  C   UNL     1       0.157   0.141  23.583  0.00  0.00    +0.019 C 
ATOM     17  C   UNL     1      -0.254  -0.427  24.018  0.00  0.00    +0.073 C 
ATOM     18  N   UNL     1      -0.757  -0.034  24.541  0.00  0.00    -0.263 NA
ENDROOT
BRANCH  14  12
ATOM      9  C   UNL     1      -1.975   2.269  25.200  0.00  0.00    +0.205 A 
ATOM     10  N   UNL     1      -1.345   2.324  25.730  0.00  0.00    -0.056 NA
ATOM     11  O   UNL     1      -0.775   1.771  25.506  0.00  0.00    -0.336 OA
ATOM     12  C   UNL     1      -1.052   1.376  24.837  0.00  0.00    +0.251 A 
ATOM     13  N   UNL     1      -1.794   1.683  24.648  0.00  0.00    -0.190 NA
BRANCH   9   6
ATOM      3  C   UNL     1      -4.045   3.624  25.256  0.00  0.00    +0.148 A 
ATOM      4  C   UNL     1      -4.051   2.877  24.906  0.00  0.00    +0.036 A 
ATOM      5  C   UNL     1      -3.361   2.425  24.887  0.00  0.00    +0.008 A 
ATOM      6  C   UNL     1      -2.665   2.721  25.218  0.00  0.00    +0.058 A 
ATOM      7  C   UNL     1      -2.660   3.467  25.568  0.00  0.00    +0.103 A 
ATOM      8  N   UNL     1      -3.350   3.919  25.586  0.00  0.00    -0.228 NA
BRANCH   3   2
ATOM      1  C   UNL     1      -5.435   3.749  25.562  0.00  0.00    +0.137 C 
ATOM      2  N   UNL     1      -4.735   4.076  25.274  0.00  0.00    -0.218 NA
ENDBRANCH   3   2
ENDBRANCH   9   6
ENDBRANCH  14  12
BRANCH  18  19
ATOM     19  C   UNL     1      -1.269  -0.390  25.080  0.00  0.00    +0.099 C 
BRANCH  19  20
ATOM     20  C   UNL     1      -1.617  -1.115  24.902  0.00  0.00    -0.005 A 
ATOM     21  C   UNL     1      -1.183  -1.813  24.984  0.00  0.00    -0.003 A 
ATOM     22  C   UNL     1      -1.532  -2.538  24.805  0.00  0.00    +0.000 A 
ATOM     23  C   UNL     1      -2.314  -2.568  24.545  0.00  0.00    +0.010 A 
ATOM     24  C   UNL     1      -2.748  -1.872  24.463  0.00  0.00    +0.068 A 
ATOM     25  C   UNL     1      -2.399  -1.145  24.641  0.00  0.00    +0.007 A 
BRANCH  24  26
ATOM     26  C   UNL     1      -3.531  -1.901  24.202  0.00  0.00    +0.100 C 
ATOM     27  N   UNL     1      -4.313  -1.930  23.941  0.00  0.00    -0.191 NA
ENDBRANCH  24  26
ENDBRANCH  19  20
ENDBRANCH  18  19
TORSDOF 6
ENDMDL
MODEL 7
REMARK VINA RESULT:      -9.7      2.074      4.151
REMARK  Name = 
REMARK  6 active torsions:
REMARK  status: ('A' for Active; 'I' for Inactive)
REMARK    1  A    between atoms: N_2  and  C_3
REMARK    2  A    between atoms: C_6  and  C_9
REMARK    3  A    between atoms: C_12  and  C_14
REMARK    4  A    between atoms: N_18  and  C_19
REMARK    5  A    between atoms: C_19  and  C_20
REMARK    6  A    between atoms: C_24  and  C_26
REMARK                            x       y       z     vdW  Elec       q    Type
REMARK                         _______ _______ _______ _____ _____    ______ ____
ROOT
ATOM     14  C   UNL     1      -0.996   2.667  25.311  0.00  0.00    +0.138 C 
ATOM     15  C   UNL     1      -0.543   2.951  25.940  0.00  0.00    +0.027 C 
ATOM     16  C   UNL     1       0.167   2.531  25.953  0.00  0.00    +0.019 C 
ATOM     17  C   UNL     1       0.154   1.988  25.332  0.00  0.00    +0.073 C 
ATOM     18  N   UNL     1      -0.565   2.073  24.934  0.00  0.00    -0.263 NA
ENDROOT
BRANCH  14  12
ATOM      9  C   UNL     1      -3.073   3.033  24.983  0.00  0.00    +0.205 A 
ATOM     10  N   UNL     1      -2.732   3.647  24.547  0.00  0.00    -0.056 NA
ATOM     11  O   UNL     1      -1.912   3.584  24.618  0.00  0.00    -0.336 OA
ATOM     12  C   UNL     1      -1.746   2.932  25.096  0.00  0.00    +0.251 A 
ATOM     13  N   UNL     1      -2.464   2.592  25.321  0.00  0.00    -0.190 NA
BRANCH   9   6
ATOM      3  C   UNL     1      -5.496   2.596  25.228  0.00  0.00    +0.148 A 
ATOM      4  C   UNL     1      -5.046   2.142  24.706  0.00  0.00    +0.036 A 
ATOM      5  C   UNL     1      -4.238   2.288  24.624  0.00  0.00    +0.008 A 
ATOM      6  C   UNL     1      -3.881   2.887  25.064  0.00  0.00    +0.058 A 
ATOM      7  C   UNL     1      -4.331   3.341  25.585  0.00  0.00    +0.103 A 
ATOM      8  N   UNL     1      -5.138   3.195  25.667  0.00  0.00    -0.228 NA
BRANCH   3   2
ATOM      1  C   UNL     1      -6.608   1.704  25.131  0.00  0.00    +0.137 C 
ATOM      2  N   UNL     1      -6.304   2.450  25.309  0.00  0.00    -0.218 NA
ENDBRANCH   3   2
ENDBRANCH   9   6
ENDBRANCH  14  12
BRANCH  18  19
ATOM     19  C   UNL     1      -0.809   1.638  24.277  0.00  0.00    +0.099 C 
BRANCH  19  20
ATOM     20  C   UNL     1      -0.478   0.899  24.125  0.00  0.00    -0.005 A 
ATOM     21  C   UNL     1       0.183   0.836  23.634  0.00  0.00    -0.003 A 
ATOM     22  C   UNL     1       0.514   0.097  23.481  0.00  0.00    +0.000 A 
ATOM     23  C   UNL     1       0.186  -0.580  23.819  0.00  0.00    +0.010 A 
ATOM     24  C   UNL     1      -0.474  -0.518  24.309  0.00  0.00    +0.068 A 
ATOM     25  C   UNL     1      -0.806   0.222  24.462  0.00  0.00    +0.007 A 
BRANCH  24  26
ATOM     26  C   UNL     1      -0.803  -1.196  24.648  0.00  0.00    +0.100 C 
ATOM     27  N   UNL     1      -1.131  -1.872  24.986  0.00  0.00    -0.191 NA
ENDBRANCH  24  26
ENDBRANCH  19  20
ENDBRANCH  18  19
TORSDOF 6
ENDMDL
