MODEL 1
REMARK VINA RESULT:     -12.1      0.000      0.000
REMARK  Name = 
REMARK  5 active torsions:
REMARK  status: ('A' for Active; 'I' for Inactive)
REMARK    1  A    between atoms: C_3  and  C_4
REMARK    2  A    between atoms: C_4  and  N_5
REMARK    3  A    between atoms: C_6  and  C_8
REMARK    4  A    between atoms: C_15  and  N_16
REMARK    5  A    between atoms: N_16  and  C_17
REMARK                            x       y       z     vdW  Elec       q    Type
REMARK                         _______ _______ _______ _____ _____    ______ ____
ROOT
ATOM      1  O   UNL     1      -4.881   1.397  25.415  0.00  0.00    -0.219 OA
ATOM      2  C   UNL     1      -4.226   1.230  24.942  0.00  0.00    +0.199 C 
ATOM      3  C   UNL     1      -3.612   1.750  24.763  0.00  0.00    +0.169 C 
ATOM     13  O   UNL     1      -3.076   1.354  24.275  0.00  0.00    -0.350 OA
ATOM     14  C   UNL     1      -3.360   0.589  24.152  0.00  0.00    +0.162 C 
ATOM     15  C   UNL     1      -4.071   0.512  24.565  0.00  0.00    +0.135 C 
ENDROOT
BRANCH   3   4
ATOM      4  C   UNL     1      -3.544   2.529  25.026  0.00  0.00    +0.147 C 
BRANCH   4   5
ATOM      5  N   UNL     1      -2.831   2.934  24.937  0.00  0.00    -0.203 NA
ATOM      6  C   UNL     1      -2.724   3.665  25.302  0.00  0.00    +0.241 C 
ATOM      7  O   UNL     1      -3.330   3.993  25.757  0.00  0.00    -0.273 OA
BRANCH   6   8
ATOM      8  C   UNL     1      -2.010   4.071  25.213  0.00  0.00    +0.078 C 
ATOM      9  C   UNL     1      -1.925   4.880  25.074  0.00  0.00    +0.009 C 
ATOM     10  C   UNL     1      -1.120   5.047  25.023  0.00  0.00    +0.001 C 
ATOM     11  C   UNL     1      -0.706   4.341  25.130  0.00  0.00    +0.001 C 
ATOM     12  C   UNL     1      -1.256   3.737  25.248  0.00  0.00    +0.009 C 
ENDBRANCH   6   8
ENDBRANCH   4   5
ENDBRANCH   3   4
BRANCH  15  16
ATOM     16  N   UNL     1      -4.543  -0.163  24.594  0.00  0.00    -0.216 NA
BRANCH  16  17
ATOM     17  C   UNL     1      -4.194  -0.911  24.614  0.00  0.00    +0.073 C 
ATOM     18  C   UNL     1      -3.817  -1.172  25.299  0.00  0.00    +0.023 C 
ATOM     19  C   UNL     1      -3.468  -1.920  25.318  0.00  0.00    +0.068 C 
ATOM     20  C   UNL     1      -3.497  -2.406  24.653  0.00  0.00    +0.264 C 
ATOM     21  F   UNL     1      -3.079  -2.895  25.169  0.00  0.00    -0.204 F 
ATOM     22  F   UNL     1      -3.381  -3.061  24.166  0.00  0.00    -0.204 F 
ATOM     23  C   UNL     1      -3.875  -2.144  23.967  0.00  0.00    +0.068 C 
ATOM     24  C   UNL     1      -4.223  -1.397  23.948  0.00  0.00    +0.023 C 
ENDBRANCH  16  17
ENDBRANCH  15  16
TORSDOF 5
ENDMDL
MODEL 2
REMARK VINA RESULT:     -11.4      2.890      5.786
REMARK  Name = 
REMARK  5 active torsions:
REMARK  status: ('A' for Active; 'I' for Inactive)
REMARK    1  A    between atoms: C_3  and  C_4
REMARK    2  A    between atoms: C_4  and  N_5
REMARK    3  A    between atoms: C_6  and  C_8
REMARK    4  A    between atoms: C_15  and  N_16
REMARK    5  A    between atoms: N_16  and  C_17
REMARK                            x       y       z     vdW  Elec       q    Type
REMARK                         _______ _______ _______ _____ _____    ______ ____
ROOT
ATOM      1  O   UNL     1      -0.635   0.859  25.848  0.00  0.00    -0.219 OA
ATOM      2  C   UNL     1      -1.275   1.171  25.431  0.00  0.00    +0.199 C 
ATOM      3  C   UNL     1      -1.771   0.754  24.921  0.00  0.00    +0.169 C 
ATOM     13  O   UNL     1      -2.334   1.281  24.626  0.00  0.00    -0.350 OA
ATOM     14  C   UNL     1      -2.186   2.023  24.955  0.00  0.00    +0.162 C 
ATOM     15  C   UNL     1      -1.531   1.955  25.452  0.00  0.00    +0.135 C 
ENDROOT
BRANCH   3   4
ATOM      4  C   UNL     1      -1.714  -0.049  24.738  0.00  0.00    +0.147 C 
BRANCH   4   5
ATOM      5  N   UNL     1      -2.399  -0.495  24.626  0.00  0.00    -0.203 NA
ATOM      6  C   UNL     1      -2.342  -1.302  24.466  0.00  0.00    +0.241 C 
ATOM      7  O   UNL     1      -1.602  -1.663  24.418  0.00  0.00    -0.273 OA
BRANCH   6   8
ATOM      8  C   UNL     1      -3.027  -1.750  24.354  0.00  0.00    +0.078 C 
ATOM      9  C   UNL     1      -3.709  -1.505  23.960  0.00  0.00    +0.009 C 
ATOM     10  C   UNL     1      -4.252  -2.125  23.979  0.00  0.00    +0.001 C 
ATOM     11  C   UNL     1      -3.905  -2.754  24.385  0.00  0.00    +0.001 C 
ATOM     12  C   UNL     1      -3.148  -2.523  24.617  0.00  0.00    +0.009 C 
ENDBRANCH   6   8
ENDBRANCH   4   5
ENDBRANCH   3   4
BRANCH  15  16
ATOM     16  N   UNL     1      -1.192   2.564  25.893  0.00  0.00    -0.216 NA
BRANCH  16  17
ATOM     17  C   UNL     1      -1.242   3.344  25.627  0.00  0.00    +0.073 C 
ATOM     18  C   UNL     1      -1.892   3.808  25.829  0.00  0.00    +0.023 C 
ATOM     19  C   UNL     1      -1.942   4.588  25.563  0.00  0.00    +0.068 C 
ATOM     20  C   UNL     1      -1.340   4.902  25.094  0.00  0.00    +0.264 C 
ATOM     21  F   UNL     1      -1.842   5.555  25.139  0.00  0.00    -0.204 F 
ATOM     22  F   UNL     1      -0.913   5.443  24.642  0.00  0.00    -0.204 F 
ATOM     23  C   UNL     1      -0.689   4.437  24.892  0.00  0.00    +0.068 C 
ATOM     24  C   UNL     1      -0.640   3.658  25.159  0.00  0.00    +0.023 C 
ENDBRANCH  16  17
ENDBRANCH  15  16
TORSDOF 5
ENDMDL
MODEL 3
REMARK VINA RESULT:     -11.2      1.761      2.095
REMARK  Name = 
REMARK  5 active torsions:
REMARK  status: ('A' for Active; 'I' for Inactive)
REMARK    1  A    between atoms: C_3  and  C_4
REMARK    2  A    between atoms: C_4  and  N_5
REMARK    3  A    between atoms: C_6  and  C_8
REMARK    4  A    between atoms: C_15  and  N_16
REMARK    5  A    between atoms: N_16  and  C_17
REMARK                            x       y       z     vdW  Elec       q    Type
REMARK                         _______ _______ _______ _____ _____    ______ ____
ROOT
ATOM      1  O   UNL     1      -1.095   0.016  26.322  0.00  0.00    -0.219 OA
ATOM      2  C   UNL     1      -1.302   0.138  25.533  0.00  0.00    +0.199 C 
ATOM      3  C   UNL     1      -1.132   0.810  25.085  0.00  0.00    +0.169 C 
ATOM     13  O   UNL     1      -1.441   0.697  24.328  0.00  0.00    -0.350 OA
ATOM     14  C   UNL     1      -1.802  -0.045  24.308  0.00  0.00    +0.162 C 
ATOM     15  C   UNL     1      -1.717  -0.390  25.053  0.00  0.00    +0.135 C 
ENDROOT
BRANCH   3   4
ATOM      4  C   UNL     1      -0.725   1.478  25.348  0.00  0.00    +0.147 C 
BRANCH   4   5
ATOM      5  N   UNL     1      -1.039   2.230  25.220  0.00  0.00    -0.203 NA
ATOM      6  C   UNL     1      -0.625   2.897  25.469  0.00  0.00    +0.241 C 
ATOM      7  O   UNL     1       0.104   2.814  25.846  0.00  0.00    -0.273 OA
BRANCH   6   8
ATOM      8  C   UNL     1      -0.939   3.650  25.342  0.00  0.00    +0.078 C 
ATOM      9  C   UNL     1      -1.680   3.916  25.590  0.00  0.00    +0.009 C 
ATOM     10  C   UNL     1      -1.765   4.698  25.345  0.00  0.00    +0.001 C 
ATOM     11  C   UNL     1      -1.077   4.917  24.946  0.00  0.00    +0.001 C 
ATOM     12  C   UNL     1      -0.566   4.270  24.944  0.00  0.00    +0.009 C 
ENDBRANCH   6   8
ENDBRANCH   4   5
ENDBRANCH   3   4
BRANCH  15  16
ATOM     16  N   UNL     1      -1.995  -1.133  25.278  0.00  0.00    -0.216 NA
BRANCH  16  17
ATOM     17  C   UNL     1      -2.659  -1.455  24.907  0.00  0.00    +0.073 C 
ATOM     18  C   UNL     1      -3.387  -1.073  24.961  0.00  0.00    +0.023 C 
ATOM     19  C   UNL     1      -4.051  -1.395  24.590  0.00  0.00    +0.068 C 
ATOM     20  C   UNL     1      -3.985  -2.099  24.166  0.00  0.00    +0.264 C 
ATOM     21  F   UNL     1      -4.788  -1.943  24.059  0.00  0.00    -0.204 F 
ATOM     22  F   UNL     1      -4.197  -2.749  23.705  0.00  0.00    -0.204 F 
ATOM     23  C   UNL     1      -3.255  -2.481  24.112  0.00  0.00    +0.068 C 
ATOM     24  C   UNL     1      -2.593  -2.159  24.483  0.00  0.00    +0.023 C 
ENDBRANCH  16  17
ENDBRANCH  15  16
TORSDOF 5
ENDMDL
