REMARK  Name = 
REMARK  7 active torsions:
REMARK  status: ('A' for Active; 'I' for Inactive)
REMARK    1  A    between atoms: O_2  and  C_3
REMARK    2  A    between atoms: C_3  and  C_4
REMARK    3  A    between atoms: C_4  and  N_5
REMARK    4  A    between atoms: C_6  and  C_8
REMARK    5  A    between atoms: C_8  and  C_10
REMARK    6  A    between atoms: C_21  and  C_23
REMARK    7  A    between atoms: C_23  and  N_24
REMARK                            x       y       z     vdW  Elec       q    Type
REMARK                         _______ _______ _______ _____ _____    ______ ____
ROOT
ATOM     10  C   UNL     1       7.859  -3.712   0.000  0.00  0.00    +0.039 C 
ATOM     11  C   UNL     1       7.859  -2.888   0.000  0.00  0.00    +0.003 C 
ATOM     12  C   UNL     1       8.574  -2.475   0.000  0.00  0.00    +0.001 C 
ATOM     13  C   UNL     1       9.288  -2.888   0.000  0.00  0.00    +0.007 C 
ATOM     14  C   UNL     1       9.288  -2.062   0.000  0.00  0.00    +0.000 C 
ATOM     15  C   UNL     1      10.003  -2.475   0.000  0.00  0.00    +0.034 C 
ATOM     16  C   UNL     1      10.717  -2.888   0.000  0.00  0.00    +0.023 A 
ATOM     17  C   UNL     1      10.717  -3.712   0.000  0.00  0.00    +0.063 A 
ATOM     18  N   UNL     1      11.502  -3.967   0.000  0.00  0.00    -0.227 NA
ATOM     19  C   UNL     1      11.987  -3.300   0.000  0.00  0.00    +0.185 A 
ATOM     20  N   UNL     1      12.812  -3.300   0.000  0.00  0.00    -0.153 NA
ATOM     21  C   UNL     1      13.224  -4.014   0.000  0.00  0.00    +0.264 C 
ATOM     22  O   UNL     1      12.812  -4.729   0.000  0.00  0.00    -0.271 OA
ATOM     27  S   UNL     1      11.502  -2.633   0.000  0.00  0.00    -0.054 S 
ATOM     28  C   UNL     1      10.003  -4.125   0.000  0.00  0.00    +0.043 C 
ATOM     29  C   UNL     1      10.003  -4.950   0.000  0.00  0.00    +0.006 C 
ATOM     30  C   UNL     1       9.288  -3.712   0.000  0.00  0.00    +0.036 C 
ATOM     31  C   UNL     1       8.574  -4.125   0.000  0.00  0.00    +0.153 C 
ATOM     32  O   UNL     1       8.574  -4.950   0.000  0.00  0.00    -0.223 OA
ENDROOT
BRANCH  10   8
ATOM      8  C   UNL     1       7.145  -4.125   0.000  0.00  0.00    +0.081 C 
ATOM      9  C   UNL     1       7.145  -4.950   0.000  0.00  0.00    +0.010 C 
BRANCH   8   6
ATOM      5  N   UNL     1       5.716  -4.125   0.000  0.00  0.00    -0.203 NA
ATOM      6  C   UNL     1       6.430  -3.712   0.000  0.00  0.00    +0.241 C 
ATOM      7  O   UNL     1       6.430  -2.888   0.000  0.00  0.00    -0.273 OA
BRANCH   5   4
ATOM      4  C   UNL     1       5.001  -3.712   0.000  0.00  0.00    +0.147 C 
BRANCH   4   3
ATOM      3  C   UNL     1       4.287  -4.125   0.000  0.00  0.00    +0.166 C 
BRANCH   3   2
ATOM      1  C   UNL     1       2.858  -4.125   0.000  0.00  0.00    +0.174 C 
ATOM      2  O   UNL     1       3.572  -3.712   0.000  0.00  0.00    -0.349 OA
ENDBRANCH   3   2
ENDBRANCH   4   3
ENDBRANCH   5   4
ENDBRANCH   8   6
ENDBRANCH  10   8
BRANCH  21  23
ATOM     23  C   UNL     1      14.049  -4.014   0.000  0.00  0.00    +0.161 C 
BRANCH  23  24
ATOM     24  N   UNL     1      14.462  -4.729   0.000  0.00  0.00    -0.263 NA
ATOM     25  C   UNL     1      15.287  -4.729   0.000  0.00  0.00    +0.090 C 
ATOM     26  C   UNL     1      14.049  -5.443   0.000  0.00  0.00    +0.090 C 
ENDBRANCH  23  24
ENDBRANCH  21  23
TORSDOF 7
