MODEL 1
REMARK VINA RESULT:      -9.2      0.000      0.000
REMARK  Name = 
REMARK  7 active torsions:
REMARK  status: ('A' for Active; 'I' for Inactive)
REMARK    1  A    between atoms: O_2  and  C_3
REMARK    2  A    between atoms: C_3  and  C_4
REMARK    3  A    between atoms: C_6  and  C_7
REMARK    4  A    between atoms: C_7  and  C_8
REMARK    5  A    between atoms: C_8  and  N_12
REMARK    6  A    between atoms: N_12  and  C_13
REMARK    7  A    between atoms: C_13  and  C_14
REMARK                            x       y       z     vdW  Elec       q    Type
REMARK                         _______ _______ _______ _____ _____    ______ ____
ROOT
ATOM      8  C   UNL     1      -4.683   1.765  24.792  0.00  0.00    +0.119 C 
ATOM      9  C   UNL     1      -5.345   1.458  25.180  0.00  0.00    +0.161 C 
ATOM     10  O   UNL     1      -5.754   2.161  25.035  0.00  0.00    -0.351 OA
ATOM     11  C   UNL     1      -5.093   2.466  24.648  0.00  0.00    +0.161 C 
ENDROOT
BRANCH   8   7
ATOM      7  C   UNL     1      -4.023   2.070  24.405  0.00  0.00    +0.070 C 
BRANCH   7   6
ATOM      4  C   UNL     1      -2.503   3.408  25.083  0.00  0.00    +0.184 A 
ATOM      5  C   UNL     1      -2.787   2.856  24.540  0.00  0.00    +0.056 A 
ATOM      6  C   UNL     1      -3.537   2.617  24.787  0.00  0.00    +0.102 A 
ATOM     20  N   UNL     1      -3.717   3.022  25.483  0.00  0.00    -0.082 NA
ATOM     21  O   UNL     1      -3.078   3.510  25.666  0.00  0.00    -0.356 OA
BRANCH   4   3
ATOM      3  C   UNL     1      -1.773   3.791  25.050  0.00  0.00    +0.209 C 
BRANCH   3   2
ATOM      1  C   UNL     1      -1.020   5.003  24.989  0.00  0.00    +0.175 C 
ATOM      2  O   UNL     1      -1.734   4.611  25.122  0.00  0.00    -0.343 OA
ENDBRANCH   3   2
ENDBRANCH   4   3
ENDBRANCH   7   6
ENDBRANCH   8   7
BRANCH   8  12
ATOM     12  N   UNL     1      -4.275   1.062  24.936  0.00  0.00    -0.215 NA
BRANCH  12  13
ATOM     13  C   UNL     1      -4.637   0.337  24.785  0.00  0.00    +0.089 C 
BRANCH  13  14
ATOM     14  C   UNL     1      -4.201  -0.361  24.842  0.00  0.00    +0.017 C 
ATOM     15  C   UNL     1      -4.115  -0.849  24.182  0.00  0.00    +0.001 C 
ATOM     16  C   UNL     1      -3.679  -1.547  24.238  0.00  0.00    +0.000 C 
ATOM     17  C   UNL     1      -3.329  -1.757  24.955  0.00  0.00    +0.000 C 
ATOM     18  C   UNL     1      -3.415  -1.270  25.615  0.00  0.00    +0.000 C 
ATOM     19  C   UNL     1      -3.851  -0.572  25.558  0.00  0.00    +0.001 C 
ENDBRANCH  13  14
ENDBRANCH  12  13
ENDBRANCH   8  12
TORSDOF 7
ENDMDL
MODEL 2
REMARK VINA RESULT:      -9.2      0.920      1.163
REMARK  Name = 
REMARK  7 active torsions:
REMARK  status: ('A' for Active; 'I' for Inactive)
REMARK    1  A    between atoms: O_2  and  C_3
REMARK    2  A    between atoms: C_3  and  C_4
REMARK    3  A    between atoms: C_6  and  C_7
REMARK    4  A    between atoms: C_7  and  C_8
REMARK    5  A    between atoms: C_8  and  N_12
REMARK    6  A    between atoms: N_12  and  C_13
REMARK    7  A    between atoms: C_13  and  C_14
REMARK                            x       y       z     vdW  Elec       q    Type
REMARK                         _______ _______ _______ _____ _____    ______ ____
ROOT
ATOM      8  C   UNL     1      -4.337   1.572  24.698  0.00  0.00    +0.119 C 
ATOM      9  C   UNL     1      -5.030   1.339  25.081  0.00  0.00    +0.161 C 
ATOM     10  O   UNL     1      -5.355   2.086  24.947  0.00  0.00    -0.351 OA
ATOM     11  C   UNL     1      -4.663   2.319  24.564  0.00  0.00    +0.161 C 
ENDROOT
BRANCH   8   7
ATOM      7  C   UNL     1      -3.645   1.805  24.315  0.00  0.00    +0.070 C 
BRANCH   7   6
ATOM      4  C   UNL     1      -1.924   2.732  25.175  0.00  0.00    +0.184 A 
ATOM      5  C   UNL     1      -2.269   2.152  24.700  0.00  0.00    +0.056 A 
ATOM      6  C   UNL     1      -3.086   2.263  24.714  0.00  0.00    +0.102 A 
ATOM     20  N   UNL     1      -3.247   2.911  25.198  0.00  0.00    -0.082 NA
ATOM     21  O   UNL     1      -2.529   3.201  25.483  0.00  0.00    -0.356 OA
BRANCH   4   3
ATOM      3  C   UNL     1      -1.118   2.827  25.317  0.00  0.00    +0.209 C 
BRANCH   3   2
ATOM      1  C   UNL     1       0.037   2.544  26.109  0.00  0.00    +0.175 C 
ATOM      2  O   UNL     1      -0.781   2.520  26.005  0.00  0.00    -0.343 OA
ENDBRANCH   3   2
ENDBRANCH   4   3
ENDBRANCH   7   6
ENDBRANCH   8   7
BRANCH   8  12
ATOM     12  N   UNL     1      -4.012   0.826  24.833  0.00  0.00    -0.215 NA
BRANCH  12  13
ATOM     13  C   UNL     1      -4.483   0.152  24.757  0.00  0.00    +0.089 C 
BRANCH  13  14
ATOM     14  C   UNL     1      -4.137  -0.597  24.786  0.00  0.00    +0.017 C 
ATOM     15  C   UNL     1      -3.789  -0.862  25.486  0.00  0.00    +0.001 C 
ATOM     16  C   UNL     1      -3.443  -1.611  25.516  0.00  0.00    +0.000 C 
ATOM     17  C   UNL     1      -3.447  -2.093  24.847  0.00  0.00    +0.000 C 
ATOM     18  C   UNL     1      -3.795  -1.828  24.148  0.00  0.00    +0.000 C 
ATOM     19  C   UNL     1      -4.141  -1.079  24.118  0.00  0.00    +0.001 C 
ENDBRANCH  13  14
ENDBRANCH  12  13
ENDBRANCH   8  12
TORSDOF 7
ENDMDL
MODEL 3
REMARK VINA RESULT:      -8.7      1.295      4.205
REMARK  Name = 
REMARK  7 active torsions:
REMARK  status: ('A' for Active; 'I' for Inactive)
REMARK    1  A    between atoms: O_2  and  C_3
REMARK    2  A    between atoms: C_3  and  C_4
REMARK    3  A    between atoms: C_6  and  C_7
REMARK    4  A    between atoms: C_7  and  C_8
REMARK    5  A    between atoms: C_8  and  N_12
REMARK    6  A    between atoms: N_12  and  C_13
REMARK    7  A    between atoms: C_13  and  C_14
REMARK                            x       y       z     vdW  Elec       q    Type
REMARK                         _______ _______ _______ _____ _____    ______ ____
ROOT
ATOM      8  C   UNL     1      -4.372   2.913  25.195  0.00  0.00    +0.119 C 
ATOM      9  C   UNL     1      -4.479   3.437  25.824  0.00  0.00    +0.161 C 
ATOM     10  O   UNL     1      -5.297   3.359  25.749  0.00  0.00    -0.351 OA
ATOM     11  C   UNL     1      -5.190   2.836  25.121  0.00  0.00    +0.161 C 
ENDROOT
BRANCH   8   7
ATOM      7  C   UNL     1      -4.264   2.390  24.567  0.00  0.00    +0.070 C 
BRANCH   7   6
ATOM      4  C   UNL     1      -4.153   0.258  24.569  0.00  0.00    +0.184 A 
ATOM      5  C   UNL     1      -3.944   0.990  24.251  0.00  0.00    +0.056 A 
ATOM      6  C   UNL     1      -4.320   1.576  24.693  0.00  0.00    +0.102 A 
ATOM     20  N   UNL     1      -4.761   1.207  25.284  0.00  0.00    -0.082 NA
ATOM     21  O   UNL     1      -4.658   0.392  25.208  0.00  0.00    -0.356 OA
BRANCH   4   3
ATOM      3  C   UNL     1      -3.902  -0.479  24.297  0.00  0.00    +0.209 C 
BRANCH   3   2
ATOM      1  C   UNL     1      -4.197  -1.822  23.911  0.00  0.00    +0.175 C 
ATOM      2  O   UNL     1      -4.452  -1.078  24.160  0.00  0.00    -0.343 OA
ENDBRANCH   3   2
ENDBRANCH   4   3
ENDBRANCH   7   6
ENDBRANCH   8   7
BRANCH   8  12
ATOM     12  N   UNL     1      -3.554   2.991  25.270  0.00  0.00    -0.215 NA
BRANCH  12  13
ATOM     13  C   UNL     1      -3.228   3.718  25.487  0.00  0.00    +0.089 C 
BRANCH  13  14
ATOM     14  C   UNL     1      -2.413   3.837  25.433  0.00  0.00    +0.017 C 
ATOM     15  C   UNL     1      -2.119   4.493  25.030  0.00  0.00    +0.001 C 
ATOM     16  C   UNL     1      -1.304   4.613  24.974  0.00  0.00    +0.000 C 
ATOM     17  C   UNL     1      -0.784   4.075  25.323  0.00  0.00    +0.000 C 
ATOM     18  C   UNL     1      -1.079   3.418  25.727  0.00  0.00    +0.000 C 
ATOM     19  C   UNL     1      -1.894   3.300  25.781  0.00  0.00    +0.001 C 
ENDBRANCH  13  14
ENDBRANCH  12  13
ENDBRANCH   8  12
TORSDOF 7
ENDMDL
MODEL 4
REMARK VINA RESULT:      -8.6      2.521      2.744
REMARK  Name = 
REMARK  7 active torsions:
REMARK  status: ('A' for Active; 'I' for Inactive)
REMARK    1  A    between atoms: O_2  and  C_3
REMARK    2  A    between atoms: C_3  and  C_4
REMARK    3  A    between atoms: C_6  and  C_7
REMARK    4  A    between atoms: C_7  and  C_8
REMARK    5  A    between atoms: C_8  and  N_12
REMARK    6  A    between atoms: N_12  and  C_13
REMARK    7  A    between atoms: C_13  and  C_14
REMARK                            x       y       z     vdW  Elec       q    Type
REMARK                         _______ _______ _______ _____ _____    ______ ____
ROOT
ATOM      8  C   UNL     1      -3.152   0.872  24.687  0.00  0.00    +0.119 C 
ATOM      9  C   UNL     1      -3.932   0.967  24.433  0.00  0.00    +0.161 C 
ATOM     10  O   UNL     1      -3.894   1.771  24.617  0.00  0.00    -0.351 OA
ATOM     11  C   UNL     1      -3.115   1.676  24.872  0.00  0.00    +0.161 C 
ENDROOT
BRANCH   8   7
ATOM      7  C   UNL     1      -2.373   0.778  24.942  0.00  0.00    +0.070 C 
BRANCH   7   6
ATOM      4  C   UNL     1      -0.543   0.887  23.849  0.00  0.00    +0.184 A 
ATOM      5  C   UNL     1      -0.984   0.613  24.490  0.00  0.00    +0.056 A 
ATOM      6  C   UNL     1      -1.749   0.913  24.420  0.00  0.00    +0.102 A 
ATOM     20  N   UNL     1      -1.781   1.372  23.736  0.00  0.00    -0.082 NA
ATOM     21  O   UNL     1      -1.036   1.356  23.383  0.00  0.00    -0.356 OA
BRANCH   4   3
ATOM      3  C   UNL     1       0.251   0.721  23.700  0.00  0.00    +0.209 C 
BRANCH   3   2
ATOM      1  C   UNL     1       1.250  -0.003  22.980  0.00  0.00    +0.175 C 
ATOM      2  O   UNL     1       0.456   0.151  23.140  0.00  0.00    -0.343 OA
ENDBRANCH   3   2
ENDBRANCH   4   3
ENDBRANCH   7   6
ENDBRANCH   8   7
BRANCH   8  12
ATOM     12  N   UNL     1      -3.190   0.069  24.503  0.00  0.00    -0.215 NA
BRANCH  12  13
ATOM     13  C   UNL     1      -3.805  -0.393  24.802  0.00  0.00    +0.089 C 
BRANCH  13  14
ATOM     14  C   UNL     1      -3.813  -1.207  24.663  0.00  0.00    +0.017 C 
ATOM     15  C   UNL     1      -4.138  -1.502  23.964  0.00  0.00    +0.001 C 
ATOM     16  C   UNL     1      -4.147  -2.315  23.824  0.00  0.00    +0.000 C 
ATOM     17  C   UNL     1      -3.831  -2.833  24.384  0.00  0.00    +0.000 C 
ATOM     18  C   UNL     1      -3.506  -2.538  25.083  0.00  0.00    +0.000 C 
ATOM     19  C   UNL     1      -3.498  -1.724  25.222  0.00  0.00    +0.001 C 
ENDBRANCH  13  14
ENDBRANCH  12  13
ENDBRANCH   8  12
TORSDOF 7
ENDMDL
MODEL 5
REMARK VINA RESULT:      -8.1      1.631      2.590
REMARK  Name = 
REMARK  7 active torsions:
REMARK  status: ('A' for Active; 'I' for Inactive)
REMARK    1  A    between atoms: O_2  and  C_3
REMARK    2  A    between atoms: C_3  and  C_4
REMARK    3  A    between atoms: C_6  and  C_7
REMARK    4  A    between atoms: C_7  and  C_8
REMARK    5  A    between atoms: C_8  and  N_12
REMARK    6  A    between atoms: N_12  and  C_13
REMARK    7  A    between atoms: C_13  and  C_14
REMARK                            x       y       z     vdW  Elec       q    Type
REMARK                         _______ _______ _______ _____ _____    ______ ____
ROOT
ATOM      8  C   UNL     1      -1.867   0.967  24.048  0.00  0.00    +0.119 C 
ATOM      9  C   UNL     1      -1.191   0.599  24.348  0.00  0.00    +0.161 C 
ATOM     10  O   UNL     1      -0.719   1.156  23.965  0.00  0.00    -0.351 OA
ATOM     11  C   UNL     1      -1.393   1.524  23.666  0.00  0.00    +0.161 C 
ENDROOT
BRANCH   8   7
ATOM      7  C   UNL     1      -2.542   1.334  23.749  0.00  0.00    +0.070 C 
BRANCH   7   6
ATOM      4  C   UNL     1      -3.705   2.920  24.581  0.00  0.00    +0.184 A 
ATOM      5  C   UNL     1      -3.645   2.222  24.144  0.00  0.00    +0.056 A 
ATOM      6  C   UNL     1      -2.851   2.000  24.126  0.00  0.00    +0.102 A 
ATOM     20  N   UNL     1      -2.420   2.560  24.551  0.00  0.00    -0.082 NA
ATOM     21  O   UNL     1      -2.947   3.128  24.832  0.00  0.00    -0.356 OA
BRANCH   4   3
ATOM      3  C   UNL     1      -4.399   3.335  24.738  0.00  0.00    +0.209 C 
BRANCH   3   2
ATOM      1  C   UNL     1      -5.500   3.612  25.606  0.00  0.00    +0.175 C 
ATOM      2  O   UNL     1      -4.758   3.275  25.479  0.00  0.00    -0.343 OA
ENDBRANCH   3   2
ENDBRANCH   4   3
ENDBRANCH   7   6
ENDBRANCH   8   7
BRANCH   8  12
ATOM     12  N   UNL     1      -2.340   0.409  24.432  0.00  0.00    -0.215 NA
BRANCH  12  13
ATOM     13  C   UNL     1      -2.110  -0.383  24.449  0.00  0.00    +0.089 C 
BRANCH  13  14
ATOM     14  C   UNL     1      -2.631  -0.956  24.734  0.00  0.00    +0.017 C 
ATOM     15  C   UNL     1      -3.007  -1.468  24.207  0.00  0.00    +0.001 C 
ATOM     16  C   UNL     1      -3.528  -2.042  24.489  0.00  0.00    +0.000 C 
ATOM     17  C   UNL     1      -3.672  -2.104  25.300  0.00  0.00    +0.000 C 
ATOM     18  C   UNL     1      -3.296  -1.592  25.827  0.00  0.00    +0.000 C 
ATOM     19  C   UNL     1      -2.775  -1.019  25.542  0.00  0.00    +0.001 C 
ENDBRANCH  13  14
ENDBRANCH  12  13
ENDBRANCH   8  12
TORSDOF 7
ENDMDL
