MODEL 1
REMARK VINA RESULT:     -12.4      0.000      0.000
REMARK  Name = 
REMARK  5 active torsions:
REMARK  status: ('A' for Active; 'I' for Inactive)
REMARK    1  A    between atoms: C_5  and  O_6
REMARK    2  A    between atoms: O_6  and  C_7
REMARK    3  A    between atoms: C_7  and  C_8
REMARK    4  A    between atoms: C_11  and  C_13
REMARK    5  A    between atoms: C_22  and  C_24
REMARK                            x       y       z     vdW  Elec       q    Type
REMARK                         _______ _______ _______ _____ _____    ______ ____
ROOT
ATOM     13  C   UNL     1      -4.025   2.831  25.050  0.00  0.00    +0.100 C 
ATOM     14  C   UNL     1      -4.347   3.587  25.124  0.00  0.00    +0.033 C 
ATOM     15  C   UNL     1      -3.726   4.129  25.137  0.00  0.00    +0.094 C 
ATOM     16  N   UNL     1      -3.019   3.708  25.071  0.00  0.00    -0.278 N 
ATOM     17  C   UNL     1      -3.204   2.906  25.017  0.00  0.00    +0.103 C 
ATOM     18  C   UNL     1      -2.260   4.032  25.060  0.00  0.00    +0.220 A 
ATOM     19  N   UNL     1      -2.160   4.849  25.119  0.00  0.00    -0.212 NA
ATOM     20  C   UNL     1      -1.401   5.173  25.108  0.00  0.00    +0.103 A 
ATOM     21  C   UNL     1      -0.743   4.681  25.039  0.00  0.00    +0.044 A 
ATOM     22  C   UNL     1      -0.844   3.864  24.980  0.00  0.00    +0.157 A 
ATOM     23  N   UNL     1      -1.602   3.540  24.991  0.00  0.00    -0.210 NA
ENDROOT
BRANCH  13  11
ATOM      8  C   UNL     1      -4.749   0.826  24.944  0.00  0.00    +0.270 A 
ATOM      9  N   UNL     1      -5.457   1.249  24.978  0.00  0.00    -0.108 NA
ATOM     10  N   UNL     1      -5.271   2.052  25.022  0.00  0.00    -0.112 NA
ATOM     11  C   UNL     1      -4.450   2.125  25.015  0.00  0.00    +0.228 A 
ATOM     12  O   UNL     1      -4.127   1.367  24.966  0.00  0.00    -0.420 OA
BRANCH   8   7
ATOM      7  C   UNL     1      -4.676   0.006  24.895  0.00  0.00    +0.291 C 
BRANCH   7   6
ATOM      6  O   UNL     1      -4.086  -0.329  24.426  0.00  0.00    -0.465 OA
BRANCH   6   5
ATOM      1  F   UNL     1      -3.617  -3.596  24.445  0.00  0.00    -0.204 F 
ATOM      2  C   UNL     1      -3.734  -2.779  24.440  0.00  0.00    +0.140 A 
ATOM      3  C   UNL     1      -4.162  -2.428  23.829  0.00  0.00    +0.033 A 
ATOM      4  C   UNL     1      -4.279  -1.610  23.824  0.00  0.00    +0.039 A 
ATOM      5  C   UNL     1      -3.969  -1.146  24.430  0.00  0.00    +0.139 A 
ATOM     28  C   UNL     1      -3.541  -1.497  25.042  0.00  0.00    +0.039 A 
ATOM     29  C   UNL     1      -3.424  -2.315  25.047  0.00  0.00    +0.033 A 
ENDBRANCH   6   5
ENDBRANCH   7   6
ENDBRANCH   8   7
ENDBRANCH  13  11
BRANCH  22  24
ATOM     24  C   UNL     1      -0.186   3.371  24.911  0.00  0.00    +0.435 C 
ATOM     25  F   UNL     1       0.472   2.878  24.842  0.00  0.00    -0.164 F 
ATOM     26  F   UNL     1      -0.225   3.435  24.089  0.00  0.00    -0.164 F 
ATOM     27  F   UNL     1      -0.147   3.307  25.732  0.00  0.00    -0.164 F 
ENDBRANCH  22  24
TORSDOF 5
ENDMDL
MODEL 2
REMARK VINA RESULT:     -12.1      2.570      6.358
REMARK  Name = 
REMARK  5 active torsions:
REMARK  status: ('A' for Active; 'I' for Inactive)
REMARK    1  A    between atoms: C_5  and  O_6
REMARK    2  A    between atoms: O_6  and  C_7
REMARK    3  A    between atoms: C_7  and  C_8
REMARK    4  A    between atoms: C_11  and  C_13
REMARK    5  A    between atoms: C_22  and  C_24
REMARK                            x       y       z     vdW  Elec       q    Type
REMARK                         _______ _______ _______ _____ _____    ______ ____
ROOT
ATOM     13  C   UNL     1      -0.689  -0.248  24.462  0.00  0.00    +0.100 C 
ATOM     14  C   UNL     1      -0.256  -0.922  24.659  0.00  0.00    +0.033 C 
ATOM     15  C   UNL     1      -0.778  -1.558  24.700  0.00  0.00    +0.094 C 
ATOM     16  N   UNL     1      -1.535  -1.278  24.528  0.00  0.00    -0.278 N 
ATOM     17  C   UNL     1      -1.480  -0.468  24.381  0.00  0.00    +0.103 C 
ATOM     18  C   UNL     1      -2.226  -1.729  24.507  0.00  0.00    +0.220 A 
ATOM     19  N   UNL     1      -2.196  -2.538  24.667  0.00  0.00    -0.212 NA
ATOM     20  C   UNL     1      -2.887  -2.989  24.646  0.00  0.00    +0.103 A 
ATOM     21  C   UNL     1      -3.607  -2.631  24.465  0.00  0.00    +0.044 A 
ATOM     22  C   UNL     1      -3.637  -1.822  24.305  0.00  0.00    +0.157 A 
ATOM     23  N   UNL     1      -2.947  -1.371  24.326  0.00  0.00    -0.210 NA
ENDROOT
BRANCH  13  11
ATOM      8  C   UNL     1      -0.281   1.842  24.325  0.00  0.00    +0.270 A 
ATOM      9  N   UNL     1       0.445   1.524  24.099  0.00  0.00    -0.108 NA
ATOM     10  N   UNL     1       0.381   0.701  24.123  0.00  0.00    -0.112 NA
ATOM     11  C   UNL     1      -0.385   0.513  24.364  0.00  0.00    +0.228 A 
ATOM     12  O   UNL     1      -0.795   1.219  24.489  0.00  0.00    -0.420 OA
BRANCH   8   7
ATOM      7  C   UNL     1      -0.462   2.645  24.378  0.00  0.00    +0.291 C 
BRANCH   7   6
ATOM      6  O   UNL     1      -0.666   2.976  25.107  0.00  0.00    -0.465 OA
BRANCH   6   5
ATOM      1  F   UNL     1      -1.904   6.031  25.248  0.00  0.00    -0.204 F 
ATOM      2  C   UNL     1      -1.595   5.267  25.213  0.00  0.00    +0.140 A 
ATOM      3  C   UNL     1      -2.025   4.634  25.518  0.00  0.00    +0.033 A 
ATOM      4  C   UNL     1      -1.715   3.869  25.483  0.00  0.00    +0.039 A 
ATOM      5  C   UNL     1      -0.976   3.739  25.142  0.00  0.00    +0.139 A 
ATOM     28  C   UNL     1      -0.545   4.373  24.836  0.00  0.00    +0.039 A 
ATOM     29  C   UNL     1      -0.855   5.138  24.871  0.00  0.00    +0.033 A 
ENDBRANCH   6   5
ENDBRANCH   7   6
ENDBRANCH   8   7
ENDBRANCH  13  11
BRANCH  22  24
ATOM     24  C   UNL     1      -4.358  -1.464  24.125  0.00  0.00    +0.435 C 
ATOM     25  F   UNL     1      -5.079  -1.106  23.944  0.00  0.00    -0.164 F 
ATOM     26  F   UNL     1      -4.307  -1.750  23.353  0.00  0.00    -0.164 F 
ATOM     27  F   UNL     1      -4.409  -1.178  24.896  0.00  0.00    -0.164 F 
ENDBRANCH  22  24
TORSDOF 5
ENDMDL
MODEL 3
REMARK VINA RESULT:     -11.9      1.993      2.929
REMARK  Name = 
REMARK  5 active torsions:
REMARK  status: ('A' for Active; 'I' for Inactive)
REMARK    1  A    between atoms: C_5  and  O_6
REMARK    2  A    between atoms: O_6  and  C_7
REMARK    3  A    between atoms: C_7  and  C_8
REMARK    4  A    between atoms: C_11  and  C_13
REMARK    5  A    between atoms: C_22  and  C_24
REMARK                            x       y       z     vdW  Elec       q    Type
REMARK                         _______ _______ _______ _____ _____    ______ ____
ROOT
ATOM     13  C   UNL     1      -0.510   1.455  24.641  0.00  0.00    +0.100 C 
ATOM     14  C   UNL     1       0.155   1.861  24.367  0.00  0.00    +0.033 C 
ATOM     15  C   UNL     1       0.017   2.668  24.461  0.00  0.00    +0.094 C 
ATOM     16  N   UNL     1      -0.733   2.763  24.792  0.00  0.00    -0.278 N 
ATOM     17  C   UNL     1      -1.058   2.012  24.904  0.00  0.00    +0.103 C 
ATOM     18  C   UNL     1      -1.094   3.481  24.980  0.00  0.00    +0.220 A 
ATOM     19  N   UNL     1      -0.699   4.190  24.837  0.00  0.00    -0.212 NA
ATOM     20  C   UNL     1      -1.060   4.909  25.024  0.00  0.00    +0.103 A 
ATOM     21  C   UNL     1      -1.816   4.916  25.355  0.00  0.00    +0.044 A 
ATOM     22  C   UNL     1      -2.210   4.206  25.498  0.00  0.00    +0.157 A 
ATOM     23  N   UNL     1      -1.850   3.488  25.311  0.00  0.00    -0.210 NA
ENDROOT
BRANCH  13  11
ATOM      8  C   UNL     1      -1.149  -0.578  24.535  0.00  0.00    +0.270 A 
ATOM      9  N   UNL     1      -0.370  -0.670  24.791  0.00  0.00    -0.108 NA
ATOM     10  N   UNL     1      -0.036   0.081  24.862  0.00  0.00    -0.112 NA
ATOM     11  C   UNL     1      -0.608   0.636  24.650  0.00  0.00    +0.228 A 
ATOM     12  O   UNL     1      -1.297   0.228  24.448  0.00  0.00    -0.420 OA
BRANCH   8   7
ATOM      7  C   UNL     1      -1.687  -1.187  24.392  0.00  0.00    +0.291 C 
BRANCH   7   6
ATOM      6  O   UNL     1      -2.396  -1.220  24.814  0.00  0.00    -0.465 OA
BRANCH   6   5
ATOM      1  F   UNL     1      -4.913  -3.025  23.675  0.00  0.00    -0.204 F 
ATOM      2  C   UNL     1      -4.283  -2.574  23.960  0.00  0.00    +0.140 A 
ATOM      3  C   UNL     1      -4.299  -1.753  23.888  0.00  0.00    +0.033 A 
ATOM      4  C   UNL     1      -3.669  -1.301  24.173  0.00  0.00    +0.039 A 
ATOM      5  C   UNL     1      -3.025  -1.671  24.530  0.00  0.00    +0.139 A 
ATOM     28  C   UNL     1      -3.009  -2.493  24.602  0.00  0.00    +0.039 A 
ATOM     29  C   UNL     1      -3.639  -2.945  24.317  0.00  0.00    +0.033 A 
ENDBRANCH   6   5
ENDBRANCH   7   6
ENDBRANCH   8   7
ENDBRANCH  13  11
BRANCH  22  24
ATOM     24  C   UNL     1      -2.966   4.214  25.829  0.00  0.00    +0.435 C 
ATOM     25  F   UNL     1      -3.722   4.221  26.159  0.00  0.00    -0.164 F 
ATOM     26  F   UNL     1      -3.296   4.227  25.073  0.00  0.00    -0.164 F 
ATOM     27  F   UNL     1      -2.635   4.200  26.584  0.00  0.00    -0.164 F 
ENDBRANCH  22  24
TORSDOF 5
ENDMDL
MODEL 4
REMARK VINA RESULT:     -11.8      2.030      5.429
REMARK  Name = 
REMARK  5 active torsions:
REMARK  status: ('A' for Active; 'I' for Inactive)
REMARK    1  A    between atoms: C_5  and  O_6
REMARK    2  A    between atoms: O_6  and  C_7
REMARK    3  A    between atoms: C_7  and  C_8
REMARK    4  A    between atoms: C_11  and  C_13
REMARK    5  A    between atoms: C_22  and  C_24
REMARK                            x       y       z     vdW  Elec       q    Type
REMARK                         _______ _______ _______ _____ _____    ______ ____
ROOT
ATOM     13  C   UNL     1      -4.001   0.575  24.752  0.00  0.00    +0.100 C 
ATOM     14  C   UNL     1      -4.615   0.046  24.595  0.00  0.00    +0.033 C 
ATOM     15  C   UNL     1      -4.291  -0.709  24.526  0.00  0.00    +0.094 C 
ATOM     16  N   UNL     1      -3.476  -0.648  24.641  0.00  0.00    -0.278 N 
ATOM     17  C   UNL     1      -3.297   0.146  24.781  0.00  0.00    +0.103 C 
ATOM     18  C   UNL     1      -2.934  -1.270  24.621  0.00  0.00    +0.220 A 
ATOM     19  N   UNL     1      -3.196  -2.039  24.474  0.00  0.00    -0.212 NA
ATOM     20  C   UNL     1      -2.655  -2.662  24.454  0.00  0.00    +0.103 A 
ATOM     21  C   UNL     1      -1.853  -2.515  24.579  0.00  0.00    +0.044 A 
ATOM     22  C   UNL     1      -1.592  -1.746  24.726  0.00  0.00    +0.157 A 
ATOM     23  N   UNL     1      -2.132  -1.124  24.746  0.00  0.00    -0.210 NA
ENDROOT
BRANCH  13  11
ATOM      8  C   UNL     1      -3.791   2.687  24.968  0.00  0.00    +0.270 A 
ATOM      9  N   UNL     1      -4.602   2.595  25.088  0.00  0.00    -0.108 NA
ATOM     10  N   UNL     1      -4.780   1.792  25.021  0.00  0.00    -0.112 NA
ATOM     11  C   UNL     1      -4.079   1.389  24.861  0.00  0.00    +0.228 A 
ATOM     12  O   UNL     1      -3.467   1.942  24.828  0.00  0.00    -0.420 OA
BRANCH   8   7
ATOM      7  C   UNL     1      -3.377   3.400  24.987  0.00  0.00    +0.291 C 
BRANCH   7   6
ATOM      6  O   UNL     1      -2.750   3.500  25.514  0.00  0.00    -0.465 OA
BRANCH   6   5
ATOM      1  F   UNL     1      -0.326   5.627  24.814  0.00  0.00    -0.204 F 
ATOM      2  C   UNL     1      -0.932   5.095  24.989  0.00  0.00    +0.140 A 
ATOM      3  C   UNL     1      -0.783   4.284  24.984  0.00  0.00    +0.033 A 
ATOM      4  C   UNL     1      -1.389   3.752  25.160  0.00  0.00    +0.039 A 
ATOM      5  C   UNL     1      -2.144   4.032  25.339  0.00  0.00    +0.139 A 
ATOM     28  C   UNL     1      -2.293   4.843  25.344  0.00  0.00    +0.039 A 
ATOM     29  C   UNL     1      -1.687   5.376  25.169  0.00  0.00    +0.033 A 
ENDBRANCH   6   5
ENDBRANCH   7   6
ENDBRANCH   8   7
ENDBRANCH  13  11
BRANCH  22  24
ATOM     24  C   UNL     1      -0.790  -1.600  24.851  0.00  0.00    +0.435 C 
ATOM     25  F   UNL     1       0.012  -1.453  24.977  0.00  0.00    -0.164 F 
ATOM     26  F   UNL     1      -0.889  -1.749  25.657  0.00  0.00    -0.164 F 
ATOM     27  F   UNL     1      -0.691  -1.451  24.046  0.00  0.00    -0.164 F 
ENDBRANCH  22  24
TORSDOF 5
ENDMDL
MODEL 5
REMARK VINA RESULT:     -10.5      2.202      3.159
REMARK  Name = 
REMARK  5 active torsions:
REMARK  status: ('A' for Active; 'I' for Inactive)
REMARK    1  A    between atoms: C_5  and  O_6
REMARK    2  A    between atoms: O_6  and  C_7
REMARK    3  A    between atoms: C_7  and  C_8
REMARK    4  A    between atoms: C_11  and  C_13
REMARK    5  A    between atoms: C_22  and  C_24
REMARK                            x       y       z     vdW  Elec       q    Type
REMARK                         _______ _______ _______ _____ _____    ______ ____
ROOT
ATOM     13  C   UNL     1      -0.855   1.788  25.095  0.00  0.00    +0.100 C 
ATOM     14  C   UNL     1      -0.301   2.343  25.352  0.00  0.00    +0.033 C 
ATOM     15  C   UNL     1      -0.703   3.040  25.531  0.00  0.00    +0.094 C 
ATOM     16  N   UNL     1      -1.506   2.917  25.385  0.00  0.00    -0.278 N 
ATOM     17  C   UNL     1      -1.599   2.142  25.116  0.00  0.00    +0.103 C 
ATOM     18  C   UNL     1      -2.109   3.470  25.491  0.00  0.00    +0.220 A 
ATOM     19  N   UNL     1      -1.930   4.227  25.766  0.00  0.00    -0.212 NA
ATOM     20  C   UNL     1      -2.534   4.780  25.871  0.00  0.00    +0.103 A 
ATOM     21  C   UNL     1      -3.315   4.576  25.701  0.00  0.00    +0.044 A 
ATOM     22  C   UNL     1      -3.492   3.819  25.426  0.00  0.00    +0.157 A 
ATOM     23  N   UNL     1      -2.890   3.266  25.321  0.00  0.00    -0.210 NA
ENDROOT
BRANCH  13  11
ATOM      8  C   UNL     1      -0.835  -0.281  24.571  0.00  0.00    +0.270 A 
ATOM      9  N   UNL     1      -0.051  -0.071  24.420  0.00  0.00    -0.108 NA
ATOM     10  N   UNL     1       0.037   0.730  24.598  0.00  0.00    -0.112 NA
ATOM     11  C   UNL     1      -0.692   1.014  24.859  0.00  0.00    +0.228 A 
ATOM     12  O   UNL     1      -1.231   0.389  24.842  0.00  0.00    -0.420 OA
BRANCH   8   7
ATOM      7  C   UNL     1      -1.164  -1.030  24.469  0.00  0.00    +0.291 C 
BRANCH   7   6
ATOM      6  O   UNL     1      -1.627  -1.363  25.066  0.00  0.00    -0.465 OA
BRANCH   6   5
ATOM      1  F   UNL     1      -4.066  -3.448  24.295  0.00  0.00    -0.204 F 
ATOM      2  C   UNL     1      -3.456  -2.927  24.488  0.00  0.00    +0.140 A 
ATOM      3  C   UNL     1      -2.687  -3.081  24.235  0.00  0.00    +0.033 A 
ATOM      4  C   UNL     1      -2.076  -2.559  24.428  0.00  0.00    +0.039 A 
ATOM      5  C   UNL     1      -2.236  -1.884  24.873  0.00  0.00    +0.139 A 
ATOM     28  C   UNL     1      -3.006  -1.730  25.127  0.00  0.00    +0.039 A 
ATOM     29  C   UNL     1      -3.617  -2.252  24.934  0.00  0.00    +0.033 A 
ENDBRANCH   6   5
ENDBRANCH   7   6
ENDBRANCH   8   7
ENDBRANCH  13  11
BRANCH  22  24
ATOM     24  C   UNL     1      -4.273   3.615  25.256  0.00  0.00    +0.435 C 
ATOM     25  F   UNL     1      -5.054   3.411  25.086  0.00  0.00    -0.164 F 
ATOM     26  F   UNL     1      -4.379   3.369  26.036  0.00  0.00    -0.164 F 
ATOM     27  F   UNL     1      -4.168   3.861  24.476  0.00  0.00    -0.164 F 
ENDBRANCH  22  24
TORSDOF 5
ENDMDL
MODEL 6
REMARK VINA RESULT:     -10.1      2.632      5.846
REMARK  Name = 
REMARK  5 active torsions:
REMARK  status: ('A' for Active; 'I' for Inactive)
REMARK    1  A    between atoms: C_5  and  O_6
REMARK    2  A    between atoms: O_6  and  C_7
REMARK    3  A    between atoms: C_7  and  C_8
REMARK    4  A    between atoms: C_11  and  C_13
REMARK    5  A    between atoms: C_22  and  C_24
REMARK                            x       y       z     vdW  Elec       q    Type
REMARK                         _______ _______ _______ _____ _____    ______ ____
ROOT
ATOM     13  C   UNL     1      -1.024   0.179  25.053  0.00  0.00    +0.100 C 
ATOM     14  C   UNL     1      -0.412  -0.371  25.119  0.00  0.00    +0.033 C 
ATOM     15  C   UNL     1      -0.721  -1.118  24.960  0.00  0.00    +0.094 C 
ATOM     16  N   UNL     1      -1.526  -1.032  24.795  0.00  0.00    -0.278 N 
ATOM     17  C   UNL     1      -1.712  -0.230  24.853  0.00  0.00    +0.103 C 
ATOM     18  C   UNL     1      -2.051  -1.639  24.606  0.00  0.00    +0.220 A 
ATOM     19  N   UNL     1      -1.783  -2.419  24.569  0.00  0.00    -0.212 NA
ATOM     20  C   UNL     1      -2.308  -3.027  24.379  0.00  0.00    +0.103 A 
ATOM     21  C   UNL     1      -3.100  -2.855  24.227  0.00  0.00    +0.044 A 
ATOM     22  C   UNL     1      -3.368  -2.075  24.265  0.00  0.00    +0.157 A 
ATOM     23  N   UNL     1      -2.843  -1.468  24.454  0.00  0.00    -0.210 NA
ENDROOT
BRANCH  13  11
ATOM      8  C   UNL     1      -1.269   2.272  25.384  0.00  0.00    +0.270 A 
ATOM      9  N   UNL     1      -0.449   2.220  25.301  0.00  0.00    -0.108 NA
ATOM     10  N   UNL     1      -0.258   1.428  25.167  0.00  0.00    -0.112 NA
ATOM     11  C   UNL     1      -0.959   0.993  25.167  0.00  0.00    +0.228 A 
ATOM     12  O   UNL     1      -1.584   1.515  25.301  0.00  0.00    -0.420 OA
BRANCH   8   7
ATOM      7  C   UNL     1      -1.697   2.963  25.525  0.00  0.00    +0.291 C 
BRANCH   7   6
ATOM      6  O   UNL     1      -2.155   3.295  24.923  0.00  0.00    -0.465 OA
BRANCH   6   5
ATOM      1  F   UNL     1      -5.248   4.264  25.544  0.00  0.00    -0.204 F 
ATOM      2  C   UNL     1      -4.475   4.021  25.389  0.00  0.00    +0.140 A 
ATOM      3  C   UNL     1      -4.286   3.686  24.659  0.00  0.00    +0.033 A 
ATOM      4  C   UNL     1      -3.512   3.444  24.504  0.00  0.00    +0.039 A 
ATOM      5  C   UNL     1      -2.928   3.537  25.078  0.00  0.00    +0.139 A 
ATOM     28  C   UNL     1      -3.116   3.873  25.809  0.00  0.00    +0.039 A 
ATOM     29  C   UNL     1      -3.890   4.115  25.964  0.00  0.00    +0.033 A 
ENDBRANCH   6   5
ENDBRANCH   7   6
ENDBRANCH   8   7
ENDBRANCH  13  11
BRANCH  22  24
ATOM     24  C   UNL     1      -4.160  -1.903  24.113  0.00  0.00    +0.435 C 
ATOM     25  F   UNL     1      -4.952  -1.731  23.961  0.00  0.00    -0.164 F 
ATOM     26  F   UNL     1      -4.333  -1.992  24.915  0.00  0.00    -0.164 F 
ATOM     27  F   UNL     1      -3.987  -1.815  23.311  0.00  0.00    -0.164 F 
ENDBRANCH  22  24
TORSDOF 5
ENDMDL
MODEL 7
REMARK VINA RESULT:     -10.0      3.124      4.829
REMARK  Name = 
REMARK  5 active torsions:
REMARK  status: ('A' for Active; 'I' for Inactive)
REMARK    1  A    between atoms: C_5  and  O_6
REMARK    2  A    between atoms: O_6  and  C_7
REMARK    3  A    between atoms: C_7  and  C_8
REMARK    4  A    between atoms: C_11  and  C_13
REMARK    5  A    between atoms: C_22  and  C_24
REMARK                            x       y       z     vdW  Elec       q    Type
REMARK                         _______ _______ _______ _____ _____    ______ ____
ROOT
ATOM     13  C   UNL     1      -2.794  -0.187  25.014  0.00  0.00    +0.100 C 
ATOM     14  C   UNL     1      -3.445  -0.687  25.102  0.00  0.00    +0.033 C 
ATOM     15  C   UNL     1      -4.125  -0.221  25.108  0.00  0.00    +0.094 C 
ATOM     16  N   UNL     1      -3.896   0.567  25.023  0.00  0.00    -0.278 N 
ATOM     17  C   UNL     1      -3.073   0.588  24.964  0.00  0.00    +0.103 C 
ATOM     18  C   UNL     1      -4.400   1.220  25.000  0.00  0.00    +0.220 A 
ATOM     19  N   UNL     1      -5.215   1.113  25.065  0.00  0.00    -0.212 NA
ATOM     20  C   UNL     1      -5.720   1.766  25.043  0.00  0.00    +0.103 A 
ATOM     21  C   UNL     1      -5.409   2.525  24.954  0.00  0.00    +0.044 A 
ATOM     22  C   UNL     1      -4.593   2.631  24.889  0.00  0.00    +0.157 A 
ATOM     23  N   UNL     1      -4.089   1.979  24.912  0.00  0.00    -0.210 NA
ENDROOT
BRANCH  13  11
ATOM      8  C   UNL     1      -0.754  -0.610  24.554  0.00  0.00    +0.270 A 
ATOM      9  N   UNL     1      -0.822  -0.954  25.301  0.00  0.00    -0.108 NA
ATOM     10  N   UNL     1      -1.596  -0.837  25.564  0.00  0.00    -0.112 NA
ATOM     11  C   UNL     1      -2.004  -0.421  24.980  0.00  0.00    +0.228 A 
ATOM     12  O   UNL     1      -1.483  -0.281  24.356  0.00  0.00    -0.420 OA
BRANCH   8   7
ATOM      7  C   UNL     1      -0.073  -0.597  24.088  0.00  0.00    +0.291 C 
BRANCH   7   6
ATOM      6  O   UNL     1       0.104   0.070  23.634  0.00  0.00    -0.465 OA
BRANCH   6   5
ATOM      1  F   UNL     1       3.025   0.303  22.116  0.00  0.00    -0.204 F 
ATOM      2  C   UNL     1       2.295   0.245  22.495  0.00  0.00    +0.140 A 
ATOM      3  C   UNL     1       1.724  -0.278  22.212  0.00  0.00    +0.033 A 
ATOM      4  C   UNL     1       0.993  -0.337  22.592  0.00  0.00    +0.039 A 
ATOM      5  C   UNL     1       0.834   0.128  23.255  0.00  0.00    +0.139 A 
ATOM     28  C   UNL     1       1.406   0.652  23.538  0.00  0.00    +0.039 A 
ATOM     29  C   UNL     1       2.137   0.710  23.158  0.00  0.00    +0.033 A 
ENDBRANCH   6   5
ENDBRANCH   7   6
ENDBRANCH   8   7
ENDBRANCH  13  11
BRANCH  22  24
ATOM     24  C   UNL     1      -4.282   3.390  24.801  0.00  0.00    +0.435 C 
ATOM     25  F   UNL     1      -3.971   4.149  24.712  0.00  0.00    -0.164 F 
ATOM     26  F   UNL     1      -4.283   3.485  25.620  0.00  0.00    -0.164 F 
ATOM     27  F   UNL     1      -4.281   3.294  23.981  0.00  0.00    -0.164 F 
ENDBRANCH  22  24
TORSDOF 5
ENDMDL
MODEL 8
REMARK VINA RESULT:      -9.7      3.004      4.771
REMARK  Name = 
REMARK  5 active torsions:
REMARK  status: ('A' for Active; 'I' for Inactive)
REMARK    1  A    between atoms: C_5  and  O_6
REMARK    2  A    between atoms: O_6  and  C_7
REMARK    3  A    between atoms: C_7  and  C_8
REMARK    4  A    between atoms: C_11  and  C_13
REMARK    5  A    between atoms: C_22  and  C_24
REMARK                            x       y       z     vdW  Elec       q    Type
REMARK                         _______ _______ _______ _____ _____    ______ ____
ROOT
ATOM     13  C   UNL     1      -1.834   3.190  25.487  0.00  0.00    +0.100 C 
ATOM     14  C   UNL     1      -1.964   3.975  25.707  0.00  0.00    +0.033 C 
ATOM     15  C   UNL     1      -2.779   4.101  25.732  0.00  0.00    +0.094 C 
ATOM     16  N   UNL     1      -3.153   3.395  25.527  0.00  0.00    -0.278 N 
ATOM     17  C   UNL     1      -2.569   2.831  25.376  0.00  0.00    +0.103 C 
ATOM     18  C   UNL     1      -3.968   3.273  25.482  0.00  0.00    +0.220 A 
ATOM     19  N   UNL     1      -4.487   3.891  25.649  0.00  0.00    -0.212 NA
ATOM     20  C   UNL     1      -5.302   3.769  25.604  0.00  0.00    +0.103 A 
ATOM     21  C   UNL     1      -5.597   3.029  25.391  0.00  0.00    +0.044 A 
ATOM     22  C   UNL     1      -5.077   2.411  25.223  0.00  0.00    +0.157 A 
ATOM     23  N   UNL     1      -4.263   2.532  25.269  0.00  0.00    -0.210 NA
ENDROOT
BRANCH  13  11
ATOM      8  C   UNL     1      -0.042   2.223  24.849  0.00  0.00    +0.270 A 
ATOM      9  N   UNL     1       0.107   2.317  25.655  0.00  0.00    -0.108 NA
ATOM     10  N   UNL     1      -0.547   2.691  25.993  0.00  0.00    -0.112 NA
ATOM     11  C   UNL     1      -1.099   2.828  25.395  0.00  0.00    +0.228 A 
ATOM     12  O   UNL     1      -0.786   2.539  24.688  0.00  0.00    -0.420 OA
BRANCH   8   7
ATOM      7  C   UNL     1       0.466   1.875  24.300  0.00  0.00    +0.291 C 
BRANCH   7   6
ATOM      6  O   UNL     1       0.521   1.053  24.253  0.00  0.00    -0.465 OA
BRANCH   6   5
ATOM      1  F   UNL     1       2.268  -0.346  21.827  0.00  0.00    -0.204 F 
ATOM      2  C   UNL     1       1.831   0.004  22.433  0.00  0.00    +0.140 A 
ATOM      3  C   UNL     1       2.179   0.576  22.914  0.00  0.00    +0.033 A 
ATOM      4  C   UNL     1       1.741   0.927  23.521  0.00  0.00    +0.039 A 
ATOM      5  C   UNL     1       0.958   0.703  23.646  0.00  0.00    +0.139 A 
ATOM     28  C   UNL     1       0.610   0.130  23.166  0.00  0.00    +0.039 A 
ATOM     29  C   UNL     1       1.047  -0.221  22.558  0.00  0.00    +0.033 A 
ENDBRANCH   6   5
ENDBRANCH   7   6
ENDBRANCH   8   7
ENDBRANCH  13  11
BRANCH  22  24
ATOM     24  C   UNL     1      -5.372   1.670  25.010  0.00  0.00    +0.435 C 
ATOM     25  F   UNL     1      -5.667   0.930  24.797  0.00  0.00    -0.164 F 
ATOM     26  F   UNL     1      -5.410   1.456  25.806  0.00  0.00    -0.164 F 
ATOM     27  F   UNL     1      -5.334   1.884  24.214  0.00  0.00    -0.164 F 
ENDBRANCH  22  24
TORSDOF 5
ENDMDL
MODEL 9
REMARK VINA RESULT:      -9.4      2.696      4.457
REMARK  Name = 
REMARK  5 active torsions:
REMARK  status: ('A' for Active; 'I' for Inactive)
REMARK    1  A    between atoms: C_5  and  O_6
REMARK    2  A    between atoms: O_6  and  C_7
REMARK    3  A    between atoms: C_7  and  C_8
REMARK    4  A    between atoms: C_11  and  C_13
REMARK    5  A    between atoms: C_22  and  C_24
REMARK                            x       y       z     vdW  Elec       q    Type
REMARK                         _______ _______ _______ _____ _____    ______ ____
ROOT
ATOM     13  C   UNL     1      -1.013   2.698  24.646  0.00  0.00    +0.100 C 
ATOM     14  C   UNL     1      -0.354   2.978  24.234  0.00  0.00    +0.033 C 
ATOM     15  C   UNL     1       0.079   2.326  23.973  0.00  0.00    +0.094 C 
ATOM     16  N   UNL     1      -0.312   1.643  24.223  0.00  0.00    -0.278 N 
ATOM     17  C   UNL     1      -0.986   1.874  24.639  0.00  0.00    +0.103 C 
ATOM     18  C   UNL     1      -0.070   0.867  24.082  0.00  0.00    +0.220 A 
ATOM     19  N   UNL     1       0.621   0.721  23.655  0.00  0.00    -0.212 NA
ATOM     20  C   UNL     1       0.862  -0.055  23.514  0.00  0.00    +0.103 A 
ATOM     21  C   UNL     1       0.413  -0.685  23.800  0.00  0.00    +0.044 A 
ATOM     22  C   UNL     1      -0.278  -0.539  24.227  0.00  0.00    +0.157 A 
ATOM     23  N   UNL     1      -0.520   0.237  24.368  0.00  0.00    -0.210 NA
ENDROOT
BRANCH  13  11
ATOM      8  C   UNL     1      -2.770   3.581  25.473  0.00  0.00    +0.270 A 
ATOM      9  N   UNL     1      -2.211   4.169  25.624  0.00  0.00    -0.108 NA
ATOM     10  N   UNL     1      -1.484   3.910  25.332  0.00  0.00    -0.112 NA
ATOM     11  C   UNL     1      -1.595   3.162  25.001  0.00  0.00    +0.228 A 
ATOM     12  O   UNL     1      -2.390   2.959  25.089  0.00  0.00    -0.420 OA
BRANCH   8   7
ATOM      7  C   UNL     1      -3.570   3.611  25.672  0.00  0.00    +0.291 C 
BRANCH   7   6
ATOM      6  O   UNL     1      -4.145   3.539  25.084  0.00  0.00    -0.465 OA
BRANCH   6   5
ATOM      1  F   UNL     1      -6.799   1.646  25.596  0.00  0.00    -0.204 F 
ATOM      2  C   UNL     1      -6.136   2.119  25.468  0.00  0.00    +0.140 A 
ATOM      3  C   UNL     1      -5.681   2.016  24.788  0.00  0.00    +0.033 A 
ATOM      4  C   UNL     1      -5.017   2.490  24.660  0.00  0.00    +0.039 A 
ATOM      5  C   UNL     1      -4.809   3.065  25.212  0.00  0.00    +0.139 A 
ATOM     28  C   UNL     1      -5.263   3.169  25.893  0.00  0.00    +0.039 A 
ATOM     29  C   UNL     1      -5.928   2.695  26.021  0.00  0.00    +0.033 A 
ENDBRANCH   6   5
ENDBRANCH   7   6
ENDBRANCH   8   7
ENDBRANCH  13  11
BRANCH  22  24
ATOM     24  C   UNL     1      -0.728  -1.169  24.512  0.00  0.00    +0.435 C 
ATOM     25  F   UNL     1      -1.177  -1.799  24.798  0.00  0.00    -0.164 F 
ATOM     26  F   UNL     1      -1.249  -1.084  23.878  0.00  0.00    -0.164 F 
ATOM     27  F   UNL     1      -0.207  -1.253  25.146  0.00  0.00    -0.164 F 
ENDBRANCH  22  24
TORSDOF 5
ENDMDL
MODEL 10
REMARK VINA RESULT:      -9.3      4.012      6.414
REMARK  Name = 
REMARK  5 active torsions:
REMARK  status: ('A' for Active; 'I' for Inactive)
REMARK    1  A    between atoms: C_5  and  O_6
REMARK    2  A    between atoms: O_6  and  C_7
REMARK    3  A    between atoms: C_7  and  C_8
REMARK    4  A    between atoms: C_11  and  C_13
REMARK    5  A    between atoms: C_22  and  C_24
REMARK                            x       y       z     vdW  Elec       q    Type
REMARK                         _______ _______ _______ _____ _____    ______ ____
ROOT
ATOM     13  C   UNL     1      -0.728   0.626  23.929  0.00  0.00    +0.100 C 
ATOM     14  C   UNL     1      -0.881   1.348  24.298  0.00  0.00    +0.033 C 
ATOM     15  C   UNL     1      -1.664   1.342  24.557  0.00  0.00    +0.094 C 
ATOM     16  N   UNL     1      -1.995   0.615  24.349  0.00  0.00    -0.278 N 
ATOM     17  C   UNL     1      -1.416   0.173  23.961  0.00  0.00    +0.103 C 
ATOM     18  C   UNL     1      -2.769   0.373  24.502  0.00  0.00    +0.220 A 
ATOM     19  N   UNL     1      -3.288   0.878  24.897  0.00  0.00    -0.212 NA
ATOM     20  C   UNL     1      -4.062   0.636  25.050  0.00  0.00    +0.103 A 
ATOM     21  C   UNL     1      -4.317  -0.111  24.807  0.00  0.00    +0.044 A 
ATOM     22  C   UNL     1      -3.797  -0.615  24.411  0.00  0.00    +0.157 A 
ATOM     23  N   UNL     1      -3.024  -0.373  24.259  0.00  0.00    -0.210 NA
ENDROOT
BRANCH  13  11
ATOM      8  C   UNL     1       1.277   0.368  23.245  0.00  0.00    +0.270 A 
ATOM      9  N   UNL     1       0.904  -0.275  22.888  0.00  0.00    -0.108 NA
ATOM     10  N   UNL     1       0.106  -0.257  23.101  0.00  0.00    -0.112 NA
ATOM     11  C   UNL     1      -0.012   0.397  23.589  0.00  0.00    +0.228 A 
ATOM     12  O   UNL     1       0.712   0.784  23.678  0.00  0.00    -0.420 OA
BRANCH   8   7
ATOM      7  C   UNL     1       2.076   0.561  23.180  0.00  0.00    +0.291 C 
BRANCH   7   6
ATOM      6  O   UNL     1       2.608   0.016  22.862  0.00  0.00    -0.465 OA
BRANCH   6   5
ATOM      1  F   UNL     1       5.848   0.377  23.377  0.00  0.00    -0.204 F 
ATOM      2  C   UNL     1       5.038   0.287  23.248  0.00  0.00    +0.140 A 
ATOM      3  C   UNL     1       4.607   0.893  22.893  0.00  0.00    +0.033 A 
ATOM      4  C   UNL     1       3.796   0.803  22.764  0.00  0.00    +0.039 A 
ATOM      5  C   UNL     1       3.418   0.106  22.991  0.00  0.00    +0.139 A 
ATOM     28  C   UNL     1       3.849  -0.501  23.346  0.00  0.00    +0.039 A 
ATOM     29  C   UNL     1       4.660  -0.411  23.475  0.00  0.00    +0.033 A 
ENDBRANCH   6   5
ENDBRANCH   7   6
ENDBRANCH   8   7
ENDBRANCH  13  11
BRANCH  22  24
ATOM     24  C   UNL     1      -4.051  -1.361  24.168  0.00  0.00    +0.435 C 
ATOM     25  F   UNL     1      -4.306  -2.107  23.925  0.00  0.00    -0.164 F 
ATOM     26  F   UNL     1      -3.878  -1.663  24.916  0.00  0.00    -0.164 F 
ATOM     27  F   UNL     1      -4.225  -1.058  23.421  0.00  0.00    -0.164 F 
ENDBRANCH  22  24
TORSDOF 5
ENDMDL
