MODEL 1
REMARK VINA RESULT:     -11.5      0.000      0.000
REMARK  Name = 
REMARK  7 active torsions:
REMARK  status: ('A' for Active; 'I' for Inactive)
REMARK    1  A    between atoms: O_2  and  C_3
REMARK    2  A    between atoms: C_4  and  O_5
REMARK    3  A    between atoms: C_7  and  O_8
REMARK    4  A    between atoms: C_10  and  C_11
REMARK    5  A    between atoms: C_11  and  N_12
REMARK    6  A    between atoms: C_17  and  C_18
REMARK    7  A    between atoms: C_20  and  C_23
REMARK                            x       y       z     vdW  Elec       q    Type
REMARK                         _______ _______ _______ _____ _____    ______ ____
ROOT
ATOM     12  N   UNL     1      -3.590   2.065  24.981  0.00  0.00    -0.260 NA
ATOM     13  C   UNL     1      -3.956   2.685  25.384  0.00  0.00    +0.106 C 
ATOM     14  C   UNL     1      -4.762   2.516  25.434  0.00  0.00    +0.170 C 
ATOM     15  O   UNL     1      -5.335   2.988  25.793  0.00  0.00    -0.222 OA
ATOM     16  C   UNL     1      -4.894   1.792  25.061  0.00  0.00    +0.060 C 
ATOM     17  C   UNL     1      -4.169   1.513  24.781  0.00  0.00    +0.140 C 
ENDROOT
BRANCH  17  18
ATOM     18  C   UNL     1      -4.045   0.807  24.374  0.00  0.00    +0.251 A 
ATOM     19  N   UNL     1      -3.975   0.058  24.713  0.00  0.00    -0.190 NA
ATOM     20  C   UNL     1      -3.857  -0.487  24.105  0.00  0.00    +0.203 A 
ATOM     21  N   UNL     1      -3.854  -0.075  23.391  0.00  0.00    -0.056 NA
ATOM     22  O   UNL     1      -3.971   0.724  23.557  0.00  0.00    -0.336 OA
BRANCH  20  23
ATOM     23  C   UNL     1      -3.758  -1.301  24.195  0.00  0.00    +0.039 A 
ATOM     24  C   UNL     1      -4.350  -1.818  23.944  0.00  0.00    +0.003 A 
ATOM     25  C   UNL     1      -4.251  -2.633  24.034  0.00  0.00    -0.000 A 
ATOM     26  C   UNL     1      -3.561  -2.929  24.376  0.00  0.00    -0.004 A 
ATOM     27  C   UNL     1      -2.970  -2.412  24.627  0.00  0.00    -0.022 A 
ATOM     28  C   UNL     1      -2.280  -2.709  24.969  0.00  0.00    +0.031 C 
ATOM     29  C   UNL     1      -3.068  -1.598  24.537  0.00  0.00    -0.001 A 
ENDBRANCH  20  23
ENDBRANCH  17  18
BRANCH  12  11
ATOM     11  C   UNL     1      -2.786   2.008  24.807  0.00  0.00    +0.103 C 
BRANCH  11  10
ATOM      3  C   UNL     1      -1.294   3.945  25.197  0.00  0.00    +0.175 A 
ATOM      4  C   UNL     1      -1.015   3.178  25.319  0.00  0.00    +0.206 A 
ATOM      7  C   UNL     1      -1.512   2.532  25.190  0.00  0.00    +0.173 A 
ATOM     10  C   UNL     1      -2.288   2.654  24.937  0.00  0.00    +0.031 A 
ATOM     30  C   UNL     1      -2.567   3.421  24.815  0.00  0.00    +0.003 A 
ATOM     31  C   UNL     1      -2.069   4.066  24.945  0.00  0.00    +0.040 A 
BRANCH   3   2
ATOM      1  C   UNL     1      -0.964   5.317  24.973  0.00  0.00    +0.253 C 
ATOM      2  O   UNL     1      -0.797   4.590  25.327  0.00  0.00    -0.468 OA
ENDBRANCH   3   2
BRANCH   4   5
ATOM      5  O   UNL     1      -0.239   3.056  25.571  0.00  0.00    -0.465 OA
ATOM      6  C   UNL     1      -0.080   2.931  26.371  0.00  0.00    +0.253 C 
ENDBRANCH   4   5
BRANCH   7   8
ATOM      8  O   UNL     1      -1.233   1.766  25.312  0.00  0.00    -0.469 OA
ATOM      9  C   UNL     1      -0.724   1.420  24.763  0.00  0.00    +0.253 C 
ENDBRANCH   7   8
ENDBRANCH  11  10
ENDBRANCH  12  11
TORSDOF 7
ENDMDL
MODEL 2
REMARK VINA RESULT:     -11.2      1.457      5.006
REMARK  Name = 
REMARK  7 active torsions:
REMARK  status: ('A' for Active; 'I' for Inactive)
REMARK    1  A    between atoms: O_2  and  C_3
REMARK    2  A    between atoms: C_4  and  O_5
REMARK    3  A    between atoms: C_7  and  O_8
REMARK    4  A    between atoms: C_10  and  C_11
REMARK    5  A    between atoms: C_11  and  N_12
REMARK    6  A    between atoms: C_17  and  C_18
REMARK    7  A    between atoms: C_20  and  C_23
REMARK                            x       y       z     vdW  Elec       q    Type
REMARK                         _______ _______ _______ _____ _____    ______ ____
ROOT
ATOM     12  N   UNL     1      -4.294   1.083  24.895  0.00  0.00    -0.260 NA
ATOM     13  C   UNL     1      -5.044   0.836  25.134  0.00  0.00    +0.106 C 
ATOM     14  C   UNL     1      -5.542   1.495  25.125  0.00  0.00    +0.170 C 
ATOM     15  O   UNL     1      -6.342   1.499  25.326  0.00  0.00    -0.222 OA
ATOM     16  C   UNL     1      -5.099   2.146  24.881  0.00  0.00    +0.060 C 
ATOM     17  C   UNL     1      -4.327   1.891  24.739  0.00  0.00    +0.140 C 
ENDROOT
BRANCH  17  18
ATOM     18  C   UNL     1      -3.700   2.362  24.486  0.00  0.00    +0.251 A 
ATOM     19  N   UNL     1      -3.148   2.738  24.971  0.00  0.00    -0.190 NA
ATOM     20  C   UNL     1      -2.621   3.148  24.488  0.00  0.00    +0.203 A 
ATOM     21  N   UNL     1      -2.847   3.027  23.704  0.00  0.00    -0.056 NA
ATOM     22  O   UNL     1      -3.513   2.542  23.703  0.00  0.00    -0.336 OA
BRANCH  20  23
ATOM     23  C   UNL     1      -1.980   3.601  24.744  0.00  0.00    +0.039 A 
ATOM     24  C   UNL     1      -1.275   3.232  24.959  0.00  0.00    +0.003 A 
ATOM     25  C   UNL     1      -0.634   3.685  25.215  0.00  0.00    -0.000 A 
ATOM     26  C   UNL     1      -0.699   4.506  25.256  0.00  0.00    -0.004 A 
ATOM     27  C   UNL     1      -1.405   4.875  25.040  0.00  0.00    -0.022 A 
ATOM     28  C   UNL     1      -1.470   5.697  25.081  0.00  0.00    +0.031 C 
ATOM     29  C   UNL     1      -2.045   4.423  24.784  0.00  0.00    -0.001 A 
ENDBRANCH  20  23
ENDBRANCH  17  18
BRANCH  12  11
ATOM     11  C   UNL     1      -3.627   0.603  24.824  0.00  0.00    +0.103 C 
BRANCH  11  10
ATOM      3  C   UNL     1      -3.882  -1.805  24.305  0.00  0.00    +0.175 A 
ATOM      4  C   UNL     1      -3.330  -1.560  24.867  0.00  0.00    +0.206 A 
ATOM      7  C   UNL     1      -3.244  -0.758  25.041  0.00  0.00    +0.173 A 
ATOM     10  C   UNL     1      -3.712  -0.200  24.651  0.00  0.00    +0.031 A 
ATOM     30  C   UNL     1      -4.264  -0.445  24.089  0.00  0.00    +0.003 A 
ATOM     31  C   UNL     1      -4.348  -1.247  23.916  0.00  0.00    +0.040 A 
BRANCH   3   2
ATOM      1  C   UNL     1      -4.398  -2.842  23.469  0.00  0.00    +0.253 C 
ATOM      2  O   UNL     1      -3.966  -2.606  24.132  0.00  0.00    -0.468 OA
ENDBRANCH   3   2
BRANCH   4   5
ATOM      5  O   UNL     1      -2.862  -2.117  25.257  0.00  0.00    -0.465 OA
ATOM      6  C   UNL     1      -3.187  -2.582  25.856  0.00  0.00    +0.253 C 
ENDBRANCH   4   5
BRANCH   7   8
ATOM      8  O   UNL     1      -2.692  -0.514  25.603  0.00  0.00    -0.469 OA
ATOM      9  C   UNL     1      -1.890  -0.494  25.412  0.00  0.00    +0.253 C 
ENDBRANCH   7   8
ENDBRANCH  11  10
ENDBRANCH  12  11
TORSDOF 7
ENDMDL
MODEL 3
REMARK VINA RESULT:     -11.1      1.654      5.657
REMARK  Name = 
REMARK  7 active torsions:
REMARK  status: ('A' for Active; 'I' for Inactive)
REMARK    1  A    between atoms: O_2  and  C_3
REMARK    2  A    between atoms: C_4  and  O_5
REMARK    3  A    between atoms: C_7  and  O_8
REMARK    4  A    between atoms: C_10  and  C_11
REMARK    5  A    between atoms: C_11  and  N_12
REMARK    6  A    between atoms: C_17  and  C_18
REMARK    7  A    between atoms: C_20  and  C_23
REMARK                            x       y       z     vdW  Elec       q    Type
REMARK                         _______ _______ _______ _____ _____    ______ ____
ROOT
ATOM     12  N   UNL     1      -0.978   0.253  24.480  0.00  0.00    -0.260 NA
ATOM     13  C   UNL     1      -0.666  -0.331  23.988  0.00  0.00    +0.106 C 
ATOM     14  C   UNL     1       0.080  -0.082  23.739  0.00  0.00    +0.170 C 
ATOM     15  O   UNL     1       0.588  -0.497  23.240  0.00  0.00    -0.222 OA
ATOM     16  C   UNL     1       0.229   0.656  24.077  0.00  0.00    +0.060 C 
ATOM     17  C   UNL     1      -0.426   0.862  24.536  0.00  0.00    +0.140 C 
ENDROOT
BRANCH  17  18
ATOM     18  C   UNL     1      -0.513   1.557  24.972  0.00  0.00    +0.251 A 
ATOM     19  N   UNL     1      -0.862   2.256  24.707  0.00  0.00    -0.190 NA
ATOM     20  C   UNL     1      -0.831   2.805  25.321  0.00  0.00    +0.203 A 
ATOM     21  N   UNL     1      -0.462   2.446  25.966  0.00  0.00    -0.056 NA
ATOM     22  O   UNL     1      -0.265   1.676  25.750  0.00  0.00    -0.336 OA
BRANCH  20  23
ATOM     23  C   UNL     1      -1.118   3.578  25.296  0.00  0.00    +0.039 A 
ATOM     24  C   UNL     1      -0.654   4.180  24.974  0.00  0.00    +0.003 A 
ATOM     25  C   UNL     1      -0.941   4.953  24.948  0.00  0.00    -0.000 A 
ATOM     26  C   UNL     1      -1.692   5.124  25.244  0.00  0.00    -0.004 A 
ATOM     27  C   UNL     1      -2.156   4.523  25.566  0.00  0.00    -0.022 A 
ATOM     28  C   UNL     1      -2.906   4.694  25.863  0.00  0.00    +0.031 C 
ATOM     29  C   UNL     1      -1.868   3.750  25.592  0.00  0.00    -0.001 A 
ENDBRANCH  20  23
ENDBRANCH  17  18
BRANCH  12  11
ATOM     11  C   UNL     1      -1.714   0.231  24.852  0.00  0.00    +0.103 C 
BRANCH  11  10
ATOM      3  C   UNL     1      -3.044  -1.858  24.840  0.00  0.00    +0.175 A 
ATOM      4  C   UNL     1      -3.398  -1.142  24.633  0.00  0.00    +0.206 A 
ATOM      7  C   UNL     1      -2.955  -0.446  24.636  0.00  0.00    +0.173 A 
ATOM     10  C   UNL     1      -2.158  -0.466  24.848  0.00  0.00    +0.031 A 
ATOM     30  C   UNL     1      -1.804  -1.182  25.055  0.00  0.00    +0.003 A 
ATOM     31  C   UNL     1      -2.247  -1.877  25.052  0.00  0.00    +0.040 A 
BRANCH   3   2
ATOM      1  C   UNL     1      -3.152  -3.257  25.107  0.00  0.00    +0.253 C 
ATOM      2  O   UNL     1      -3.487  -2.553  24.837  0.00  0.00    -0.468 OA
ENDBRANCH   3   2
BRANCH   4   5
ATOM      5  O   UNL     1      -4.195  -1.121  24.422  0.00  0.00    -0.465 OA
ATOM      6  C   UNL     1      -4.442  -1.451  23.707  0.00  0.00    +0.253 C 
ENDBRANCH   4   5
BRANCH   7   8
ATOM      8  O   UNL     1      -3.309   0.270  24.429  0.00  0.00    -0.469 OA
ATOM      9  C   UNL     1      -3.869   0.613  24.928  0.00  0.00    +0.253 C 
ENDBRANCH   7   8
ENDBRANCH  11  10
ENDBRANCH  12  11
TORSDOF 7
ENDMDL
MODEL 4
REMARK VINA RESULT:     -11.0      1.348      2.849
REMARK  Name = 
REMARK  7 active torsions:
REMARK  status: ('A' for Active; 'I' for Inactive)
REMARK    1  A    between atoms: O_2  and  C_3
REMARK    2  A    between atoms: C_4  and  O_5
REMARK    3  A    between atoms: C_7  and  O_8
REMARK    4  A    between atoms: C_10  and  C_11
REMARK    5  A    between atoms: C_11  and  N_12
REMARK    6  A    between atoms: C_17  and  C_18
REMARK    7  A    between atoms: C_20  and  C_23
REMARK                            x       y       z     vdW  Elec       q    Type
REMARK                         _______ _______ _______ _____ _____    ______ ____
ROOT
ATOM     12  N   UNL     1      -0.973   1.381  24.762  0.00  0.00    -0.260 NA
ATOM     13  C   UNL     1      -0.361   1.824  24.432  0.00  0.00    +0.106 C 
ATOM     14  C   UNL     1       0.224   1.299  24.178  0.00  0.00    +0.170 C 
ATOM     15  O   UNL     1       0.935   1.504  23.814  0.00  0.00    -0.222 OA
ATOM     16  C   UNL     1      -0.029   0.533  24.352  0.00  0.00    +0.060 C 
ATOM     17  C   UNL     1      -0.769   0.584  24.713  0.00  0.00    +0.140 C 
ENDROOT
BRANCH  17  18
ATOM     18  C   UNL     1      -1.225  -0.050  24.978  0.00  0.00    +0.251 A 
ATOM     19  N   UNL     1      -1.733  -0.509  24.517  0.00  0.00    -0.190 NA
ATOM     20  C   UNL     1      -2.074  -1.079  25.004  0.00  0.00    +0.203 A 
ATOM     21  N   UNL     1      -1.777  -0.974  25.766  0.00  0.00    -0.056 NA
ATOM     22  O   UNL     1      -1.253  -0.338  25.750  0.00  0.00    -0.336 OA
BRANCH  20  23
ATOM     23  C   UNL     1      -2.617  -1.655  24.771  0.00  0.00    +0.039 A 
ATOM     24  C   UNL     1      -2.453  -2.453  24.899  0.00  0.00    +0.003 A 
ATOM     25  C   UNL     1      -2.996  -3.029  24.665  0.00  0.00    -0.000 A 
ATOM     26  C   UNL     1      -3.703  -2.806  24.303  0.00  0.00    -0.004 A 
ATOM     27  C   UNL     1      -3.868  -2.008  24.175  0.00  0.00    -0.022 A 
ATOM     28  C   UNL     1      -4.575  -1.785  23.813  0.00  0.00    +0.031 C 
ATOM     29  C   UNL     1      -3.324  -1.432  24.409  0.00  0.00    -0.001 A 
ENDBRANCH  20  23
ENDBRANCH  17  18
BRANCH  12  11
ATOM     11  C   UNL     1      -1.669   1.684  25.085  0.00  0.00    +0.103 C 
BRANCH  11  10
ATOM      3  C   UNL     1      -2.051   4.130  25.134  0.00  0.00    +0.175 A 
ATOM      4  C   UNL     1      -2.671   3.620  24.944  0.00  0.00    +0.206 A 
ATOM      7  C   UNL     1      -2.544   2.805  24.928  0.00  0.00    +0.173 A 
ATOM     10  C   UNL     1      -1.796   2.500  25.101  0.00  0.00    +0.031 A 
ATOM     30  C   UNL     1      -1.177   3.010  25.291  0.00  0.00    +0.003 A 
ATOM     31  C   UNL     1      -1.304   3.825  25.307  0.00  0.00    +0.040 A 
BRANCH   3   2
ATOM      1  C   UNL     1      -1.535   5.462  25.195  0.00  0.00    +0.253 C 
ATOM      2  O   UNL     1      -2.178   4.944  25.150  0.00  0.00    -0.468 OA
ENDBRANCH   3   2
BRANCH   4   5
ATOM      5  O   UNL     1      -3.418   3.923  24.771  0.00  0.00    -0.465 OA
ATOM      6  C   UNL     1      -3.617   4.111  23.993  0.00  0.00    +0.253 C 
ENDBRANCH   4   5
BRANCH   7   8
ATOM      8  O   UNL     1      -3.164   2.294  24.739  0.00  0.00    -0.469 OA
ATOM      9  C   UNL     1      -3.775   2.171  25.278  0.00  0.00    +0.253 C 
ENDBRANCH   7   8
ENDBRANCH  11  10
ENDBRANCH  12  11
TORSDOF 7
ENDMDL
MODEL 5
REMARK VINA RESULT:     -10.6      1.907      4.404
REMARK  Name = 
REMARK  7 active torsions:
REMARK  status: ('A' for Active; 'I' for Inactive)
REMARK    1  A    between atoms: O_2  and  C_3
REMARK    2  A    between atoms: C_4  and  O_5
REMARK    3  A    between atoms: C_7  and  O_8
REMARK    4  A    between atoms: C_10  and  C_11
REMARK    5  A    between atoms: C_11  and  N_12
REMARK    6  A    between atoms: C_17  and  C_18
REMARK    7  A    between atoms: C_20  and  C_23
REMARK                            x       y       z     vdW  Elec       q    Type
REMARK                         _______ _______ _______ _____ _____    ______ ____
ROOT
ATOM     12  N   UNL     1      -1.002   1.995  25.338  0.00  0.00    -0.260 NA
ATOM     13  C   UNL     1      -0.275   1.973  25.727  0.00  0.00    +0.106 C 
ATOM     14  C   UNL     1      -0.182   2.687  26.132  0.00  0.00    +0.170 C 
ATOM     15  O   UNL     1       0.466   2.900  26.595  0.00  0.00    -0.222 OA
ATOM     16  C   UNL     1      -0.851   3.148  25.992  0.00  0.00    +0.060 C 
ATOM     17  C   UNL     1      -1.358   2.721  25.500  0.00  0.00    +0.140 C 
ENDROOT
BRANCH  17  18
ATOM     18  C   UNL     1      -2.091   2.974  25.222  0.00  0.00    +0.251 A 
ATOM     19  N   UNL     1      -2.826   2.790  25.551  0.00  0.00    -0.190 NA
ATOM     20  C   UNL     1      -3.408   3.158  25.097  0.00  0.00    +0.203 A 
ATOM     21  N   UNL     1      -3.034   3.570  24.489  0.00  0.00    -0.056 NA
ATOM     22  O   UNL     1      -2.221   3.457  24.566  0.00  0.00    -0.336 OA
BRANCH  20  23
ATOM     23  C   UNL     1      -4.221   3.121  25.230  0.00  0.00    +0.039 A 
ATOM     24  C   UNL     1      -4.616   3.770  25.552  0.00  0.00    +0.003 A 
ATOM     25  C   UNL     1      -5.430   3.732  25.684  0.00  0.00    -0.000 A 
ATOM     26  C   UNL     1      -5.848   3.047  25.495  0.00  0.00    -0.004 A 
ATOM     27  C   UNL     1      -5.453   2.398  25.173  0.00  0.00    -0.022 A 
ATOM     28  C   UNL     1      -5.871   1.713  24.983  0.00  0.00    +0.031 C 
ATOM     29  C   UNL     1      -4.639   2.435  25.040  0.00  0.00    -0.001 A 
ENDBRANCH  20  23
ENDBRANCH  17  18
BRANCH  12  11
ATOM     11  C   UNL     1      -1.317   1.396  24.867  0.00  0.00    +0.103 C 
BRANCH  11  10
ATOM      3  C   UNL     1       0.190  -0.155  23.662  0.00  0.00    +0.175 A 
ATOM      4  C   UNL     1      -0.428  -0.453  24.120  0.00  0.00    +0.206 A 
ATOM      7  C   UNL     1      -0.930   0.063  24.522  0.00  0.00    +0.173 A 
ATOM     10  C   UNL     1      -0.814   0.879  24.465  0.00  0.00    +0.031 A 
ATOM     30  C   UNL     1      -0.196   1.176  24.007  0.00  0.00    +0.003 A 
ATOM     31  C   UNL     1       0.306   0.659  23.606  0.00  0.00    +0.040 A 
BRANCH   3   2
ATOM      1  C   UNL     1       1.251  -0.376  22.731  0.00  0.00    +0.253 C 
ATOM      2  O   UNL     1       0.692  -0.672  23.261  0.00  0.00    -0.468 OA
ENDBRANCH   3   2
BRANCH   4   5
ATOM      5  O   UNL     1      -0.544  -1.268  24.177  0.00  0.00    -0.465 OA
ATOM      6  C   UNL     1      -0.204  -1.691  24.799  0.00  0.00    +0.253 C 
ENDBRANCH   4   5
BRANCH   7   8
ATOM      8  O   UNL     1      -1.548  -0.235  24.980  0.00  0.00    -0.469 OA
ATOM      9  C   UNL     1      -2.244  -0.491  24.618  0.00  0.00    +0.253 C 
ENDBRANCH   7   8
ENDBRANCH  11  10
ENDBRANCH  12  11
TORSDOF 7
ENDMDL
MODEL 6
REMARK VINA RESULT:     -10.0      1.194      2.069
REMARK  Name = 
REMARK  7 active torsions:
REMARK  status: ('A' for Active; 'I' for Inactive)
REMARK    1  A    between atoms: O_2  and  C_3
REMARK    2  A    between atoms: C_4  and  O_5
REMARK    3  A    between atoms: C_7  and  O_8
REMARK    4  A    between atoms: C_10  and  C_11
REMARK    5  A    between atoms: C_11  and  N_12
REMARK    6  A    between atoms: C_17  and  C_18
REMARK    7  A    between atoms: C_20  and  C_23
REMARK                            x       y       z     vdW  Elec       q    Type
REMARK                         _______ _______ _______ _____ _____    ______ ____
ROOT
ATOM     12  N   UNL     1      -2.928   2.030  23.650  0.00  0.00    -0.260 NA
ATOM     13  C   UNL     1      -2.622   2.463  23.018  0.00  0.00    +0.106 C 
ATOM     14  C   UNL     1      -2.724   2.015  22.332  0.00  0.00    +0.170 C 
ATOM     15  O   UNL     1      -2.497   2.238  21.571  0.00  0.00    -0.222 OA
ATOM     16  C   UNL     1      -3.091   1.307  22.541  0.00  0.00    +0.060 C 
ATOM     17  C   UNL     1      -3.217   1.317  23.357  0.00  0.00    +0.140 C 
ENDROOT
BRANCH  17  18
ATOM     18  C   UNL     1      -3.571   0.718  23.800  0.00  0.00    +0.251 A 
ATOM     19  N   UNL     1      -3.239  -0.018  23.972  0.00  0.00    -0.190 NA
ATOM     20  C   UNL     1      -3.781  -0.442  24.427  0.00  0.00    +0.203 A 
ATOM     21  N   UNL     1      -4.447   0.032  24.536  0.00  0.00    -0.056 NA
ATOM     22  O   UNL     1      -4.317   0.747  24.148  0.00  0.00    -0.336 OA
BRANCH  20  23
ATOM     23  C   UNL     1      -3.675  -1.205  24.722  0.00  0.00    +0.039 A 
ATOM     24  C   UNL     1      -3.447  -1.316  25.507  0.00  0.00    +0.003 A 
ATOM     25  C   UNL     1      -3.341  -2.080  25.801  0.00  0.00    -0.000 A 
ATOM     26  C   UNL     1      -3.463  -2.732  25.311  0.00  0.00    -0.004 A 
ATOM     27  C   UNL     1      -3.691  -2.621  24.526  0.00  0.00    -0.022 A 
ATOM     28  C   UNL     1      -3.814  -3.273  24.036  0.00  0.00    +0.031 C 
ATOM     29  C   UNL     1      -3.797  -1.857  24.231  0.00  0.00    -0.001 A 
ENDBRANCH  20  23
ENDBRANCH  17  18
BRANCH  12  11
ATOM     11  C   UNL     1      -2.940   2.270  24.440  0.00  0.00    +0.103 C 
BRANCH  11  10
ATOM      3  C   UNL     1      -0.931   3.302  25.453  0.00  0.00    +0.175 A 
ATOM      4  C   UNL     1      -1.644   3.718  25.434  0.00  0.00    +0.206 A 
ATOM      7  C   UNL     1      -2.313   3.375  25.097  0.00  0.00    +0.173 A 
ATOM     10  C   UNL     1      -2.270   2.614  24.778  0.00  0.00    +0.031 A 
ATOM     30  C   UNL     1      -1.558   2.198  24.797  0.00  0.00    +0.003 A 
ATOM     31  C   UNL     1      -0.889   2.543  25.135  0.00  0.00    +0.040 A 
BRANCH   3   2
ATOM      1  C   UNL     1       0.358   3.170  26.055  0.00  0.00    +0.253 C 
ATOM      2  O   UNL     1      -0.263   3.646  25.791  0.00  0.00    -0.468 OA
ENDBRANCH   3   2
BRANCH   4   5
ATOM      5  O   UNL     1      -1.687   4.478  25.753  0.00  0.00    -0.465 OA
ATOM      6  C   UNL     1      -1.485   5.131  25.292  0.00  0.00    +0.253 C 
ENDBRANCH   4   5
BRANCH   7   8
ATOM      8  O   UNL     1      -3.026   3.790  25.078  0.00  0.00    -0.469 OA
ATOM      9  C   UNL     1      -3.511   3.807  25.744  0.00  0.00    +0.253 C 
ENDBRANCH   7   8
ENDBRANCH  11  10
ENDBRANCH  12  11
TORSDOF 7
ENDMDL
