MODEL 1
REMARK VINA RESULT:      -9.6      0.000      0.000
REMARK  Name = 
REMARK  8 active torsions:
REMARK  status: ('A' for Active; 'I' for Inactive)
REMARK    1  A    between atoms: O_2  and  C_3
REMARK    2  A    between atoms: C_3  and  C_4
REMARK    3  A    between atoms: C_4  and  O_5
REMARK    4  A    between atoms: O_5  and  C_6
REMARK    5  A    between atoms: C_9  and  C_12
REMARK    6  A    between atoms: N_14  and  C_15
REMARK    7  A    between atoms: N_25  and  C_26
REMARK    8  A    between atoms: C_30  and  O_31
REMARK                            x       y       z     vdW  Elec       q    Type
REMARK                         _______ _______ _______ _____ _____    ______ ____
ROOT
ATOM     15  C   UNL     1      -2.143  -0.859  24.554  0.00  0.00    +0.146 C 
ATOM     16  C   UNL     1      -2.688  -0.241  24.603  0.00  0.00    +0.119 C 
ATOM     17  N   UNL     1      -3.415  -0.226  24.993  0.00  0.00    -0.261 N 
ATOM     18  C   UNL     1      -3.776  -0.826  25.429  0.00  0.00    +0.095 C 
ATOM     19  C   UNL     1      -3.501  -1.588  25.583  0.00  0.00    +0.024 C 
ATOM     20  C   UNL     1      -2.795  -1.938  25.339  0.00  0.00    +0.037 C 
ATOM     21  C   UNL     1      -2.191  -1.614  24.881  0.00  0.00    +0.174 C 
ATOM     22  O   UNL     1      -1.549  -2.111  24.731  0.00  0.00    -0.221 OA
ATOM     23  C   UNL     1      -3.836   0.481  24.939  0.00  0.00    +0.328 C 
ATOM     24  O   UNL     1      -3.523   1.116  24.515  0.00  0.00    -0.250 OA
ATOM     25  N   UNL     1      -4.569   0.553  25.309  0.00  0.00    -0.162 NA
ENDROOT
BRANCH  25  26
ATOM     26  C   UNL     1      -4.990   1.261  25.255  0.00  0.00    +0.078 A 
ATOM     27  C   UNL     1      -5.677   1.299  24.801  0.00  0.00    +0.017 A 
ATOM     28  C   UNL     1      -6.098   2.007  24.747  0.00  0.00    +0.004 A 
ATOM     29  C   UNL     1      -5.831   2.678  25.148  0.00  0.00    +0.037 A 
ATOM     30  C   UNL     1      -5.143   2.639  25.603  0.00  0.00    +0.140 A 
ATOM     33  C   UNL     1      -4.722   1.932  25.657  0.00  0.00    +0.054 A 
BRANCH  30  31
ATOM     31  O   UNL     1      -4.876   3.309  26.003  0.00  0.00    -0.471 OA
ATOM     32  C   UNL     1      -4.698   3.996  25.585  0.00  0.00    +0.252 C 
ENDBRANCH  30  31
ENDBRANCH  25  26
BRANCH  15  14
ATOM     12  C   UNL     1      -0.878  -0.206  24.431  0.00  0.00    +0.265 C 
ATOM     13  O   UNL     1      -0.979   0.129  25.179  0.00  0.00    -0.268 OA
ATOM     14  N   UNL     1      -1.460  -0.700  24.118  0.00  0.00    -0.199 NA
BRANCH  12   9
ATOM      6  C   UNL     1       1.170   0.272  23.127  0.00  0.00    +0.139 A 
ATOM      7  C   UNL     1       0.744   0.891  23.466  0.00  0.00    +0.037 A 
ATOM      8  C   UNL     1       0.061   0.732  23.901  0.00  0.00    +0.008 A 
ATOM      9  C   UNL     1      -0.195  -0.046  23.996  0.00  0.00    +0.055 A 
ATOM     10  C   UNL     1       0.231  -0.666  23.657  0.00  0.00    +0.008 A 
ATOM     11  C   UNL     1       0.913  -0.506  23.222  0.00  0.00    +0.037 A 
BRANCH   6   5
ATOM      5  O   UNL     1       1.853   0.431  22.691  0.00  0.00    -0.473 OA
BRANCH   5   4
ATOM      4  C   UNL     1       2.583   0.473  23.071  0.00  0.00    +0.237 C 
BRANCH   4   3
ATOM      3  C   UNL     1       3.269   0.609  22.632  0.00  0.00    +0.189 C 
BRANCH   3   2
ATOM      1  C   UNL     1       4.646   0.554  23.010  0.00  0.00    +0.174 C 
ATOM      2  O   UNL     1       3.926   0.956  22.990  0.00  0.00    -0.347 OA
ENDBRANCH   3   2
ENDBRANCH   4   3
ENDBRANCH   5   4
ENDBRANCH   6   5
ENDBRANCH  12   9
ENDBRANCH  15  14
TORSDOF 8
ENDMDL
MODEL 2
REMARK VINA RESULT:      -7.9      2.158      3.036
REMARK  Name = 
REMARK  8 active torsions:
REMARK  status: ('A' for Active; 'I' for Inactive)
REMARK    1  A    between atoms: O_2  and  C_3
REMARK    2  A    between atoms: C_3  and  C_4
REMARK    3  A    between atoms: C_4  and  O_5
REMARK    4  A    between atoms: O_5  and  C_6
REMARK    5  A    between atoms: C_9  and  C_12
REMARK    6  A    between atoms: N_14  and  C_15
REMARK    7  A    between atoms: N_25  and  C_26
REMARK    8  A    between atoms: C_30  and  O_31
REMARK                            x       y       z     vdW  Elec       q    Type
REMARK                         _______ _______ _______ _____ _____    ______ ____
ROOT
ATOM     15  C   UNL     1      -1.497   3.361  24.680  0.00  0.00    +0.146 C 
ATOM     16  C   UNL     1      -2.259   3.051  24.746  0.00  0.00    +0.119 C 
ATOM     17  N   UNL     1      -2.924   3.391  25.096  0.00  0.00    -0.261 N 
ATOM     18  C   UNL     1      -2.991   4.125  25.467  0.00  0.00    +0.095 C 
ATOM     19  C   UNL     1      -2.411   4.700  25.579  0.00  0.00    +0.024 C 
ATOM     20  C   UNL     1      -1.619   4.683  25.348  0.00  0.00    +0.037 C 
ATOM     21  C   UNL     1      -1.212   4.087  24.948  0.00  0.00    +0.174 C 
ATOM     22  O   UNL     1      -0.415   4.238  24.796  0.00  0.00    -0.221 OA
ATOM     23  C   UNL     1      -3.612   2.937  25.072  0.00  0.00    +0.328 C 
ATOM     24  O   UNL     1      -3.604   2.194  24.714  0.00  0.00    -0.250 OA
ATOM     25  N   UNL     1      -4.308   3.226  25.407  0.00  0.00    -0.162 NA
ENDROOT
BRANCH  25  26
ATOM     26  C   UNL     1      -4.997   2.772  25.383  0.00  0.00    +0.078 A 
ATOM     27  C   UNL     1      -5.240   2.429  24.674  0.00  0.00    +0.017 A 
ATOM     28  C   UNL     1      -5.929   1.974  24.650  0.00  0.00    +0.004 A 
ATOM     29  C   UNL     1      -6.374   1.863  25.336  0.00  0.00    +0.037 A 
ATOM     30  C   UNL     1      -6.130   2.206  26.046  0.00  0.00    +0.140 A 
ATOM     33  C   UNL     1      -5.442   2.661  26.070  0.00  0.00    +0.054 A 
BRANCH  30  31
ATOM     31  O   UNL     1      -6.575   2.095  26.731  0.00  0.00    -0.471 OA
ATOM     32  C   UNL     1      -6.603   1.353  27.089  0.00  0.00    +0.252 C 
ENDBRANCH  30  31
ENDBRANCH  25  26
BRANCH  15  14
ATOM     12  C   UNL     1      -0.684   2.186  24.654  0.00  0.00    +0.265 C 
ATOM     13  O   UNL     1      -0.971   1.971  25.397  0.00  0.00    -0.268 OA
ATOM     14  N   UNL     1      -0.947   2.881  24.295  0.00  0.00    -0.199 NA
BRANCH  12   9
ATOM      6  C   UNL     1       0.965   0.746  23.500  0.00  0.00    +0.139 A 
ATOM      7  C   UNL     1       1.204   1.462  23.832  0.00  0.00    +0.037 A 
ATOM      8  C   UNL     1       0.655   1.942  24.217  0.00  0.00    +0.008 A 
ATOM      9  C   UNL     1      -0.134   1.706  24.269  0.00  0.00    +0.055 A 
ATOM     10  C   UNL     1      -0.374   0.990  23.937  0.00  0.00    +0.008 A 
ATOM     11  C   UNL     1       0.176   0.510  23.552  0.00  0.00    +0.037 A 
BRANCH   6   5
ATOM      5  O   UNL     1       1.514   0.266  23.115  0.00  0.00    -0.473 OA
BRANCH   5   4
ATOM      4  C   UNL     1       2.275   0.545  22.967  0.00  0.00    +0.237 C 
BRANCH   4   3
ATOM      3  C   UNL     1       2.835   0.053  22.613  0.00  0.00    +0.189 C 
BRANCH   3   2
ATOM      1  C   UNL     1       4.240   0.313  22.609  0.00  0.00    +0.174 C 
ATOM      2  O   UNL     1       3.500   0.378  22.250  0.00  0.00    -0.347 OA
ENDBRANCH   3   2
ENDBRANCH   4   3
ENDBRANCH   5   4
ENDBRANCH   6   5
ENDBRANCH  12   9
ENDBRANCH  15  14
TORSDOF 8
ENDMDL
MODEL 3
REMARK VINA RESULT:      -7.7      2.049      3.399
REMARK  Name = 
REMARK  8 active torsions:
REMARK  status: ('A' for Active; 'I' for Inactive)
REMARK    1  A    between atoms: O_2  and  C_3
REMARK    2  A    between atoms: C_3  and  C_4
REMARK    3  A    between atoms: C_4  and  O_5
REMARK    4  A    between atoms: O_5  and  C_6
REMARK    5  A    between atoms: C_9  and  C_12
REMARK    6  A    between atoms: N_14  and  C_15
REMARK    7  A    between atoms: N_25  and  C_26
REMARK    8  A    between atoms: C_30  and  O_31
REMARK                            x       y       z     vdW  Elec       q    Type
REMARK                         _______ _______ _______ _____ _____    ______ ____
ROOT
ATOM     15  C   UNL     1      -0.376   1.510  24.432  0.00  0.00    +0.146 C 
ATOM     16  C   UNL     1      -0.873   0.856  24.515  0.00  0.00    +0.119 C 
ATOM     17  N   UNL     1      -1.669   0.839  24.729  0.00  0.00    -0.261 N 
ATOM     18  C   UNL     1      -2.166   1.472  24.912  0.00  0.00    +0.095 C 
ATOM     19  C   UNL     1      -1.989   2.277  24.927  0.00  0.00    +0.024 C 
ATOM     20  C   UNL     1      -1.272   2.649  24.762  0.00  0.00    +0.037 C 
ATOM     21  C   UNL     1      -0.553   2.308  24.542  0.00  0.00    +0.174 C 
ATOM     22  O   UNL     1       0.069   2.835  24.415  0.00  0.00    -0.221 OA
ATOM     23  C   UNL     1      -2.014   0.090  24.764  0.00  0.00    +0.328 C 
ATOM     24  O   UNL     1      -1.565  -0.579  24.591  0.00  0.00    -0.250 OA
ATOM     25  N   UNL     1      -2.808   0.012  24.972  0.00  0.00    -0.162 NA
ENDROOT
BRANCH  25  26
ATOM     26  C   UNL     1      -3.153  -0.736  25.007  0.00  0.00    +0.078 A 
ATOM     27  C   UNL     1      -3.067  -1.199  25.684  0.00  0.00    +0.017 A 
ATOM     28  C   UNL     1      -3.412  -1.948  25.719  0.00  0.00    +0.004 A 
ATOM     29  C   UNL     1      -3.844  -2.234  25.076  0.00  0.00    +0.037 A 
ATOM     30  C   UNL     1      -3.930  -1.771  24.398  0.00  0.00    +0.140 A 
ATOM     33  C   UNL     1      -3.585  -1.022  24.363  0.00  0.00    +0.054 A 
BRANCH  30  31
ATOM     31  O   UNL     1      -4.361  -2.056  23.756  0.00  0.00    -0.471 OA
ATOM     32  C   UNL     1      -4.315  -2.853  23.549  0.00  0.00    +0.252 C 
ENDBRANCH  30  31
ENDBRANCH  25  26
BRANCH  15  14
ATOM     12  C   UNL     1       0.555   1.001  23.475  0.00  0.00    +0.265 C 
ATOM     13  O   UNL     1      -0.068   0.824  22.964  0.00  0.00    -0.268 OA
ATOM     14  N   UNL     1       0.401   1.344  24.209  0.00  0.00    -0.199 NA
BRANCH  12   9
ATOM      6  C   UNL     1       2.885   0.501  22.808  0.00  0.00    +0.139 A 
ATOM      7  C   UNL     1       2.294  -0.063  22.695  0.00  0.00    +0.037 A 
ATOM      8  C   UNL     1       1.518   0.103  22.917  0.00  0.00    +0.008 A 
ATOM      9  C   UNL     1       1.332   0.834  23.253  0.00  0.00    +0.055 A 
ATOM     10  C   UNL     1       1.923   1.399  23.366  0.00  0.00    +0.008 A 
ATOM     11  C   UNL     1       2.699   1.232  23.143  0.00  0.00    +0.037 A 
BRANCH   6   5
ATOM      5  O   UNL     1       3.662   0.335  22.586  0.00  0.00    -0.473 OA
BRANCH   5   4
ATOM      4  C   UNL     1       4.270   0.382  23.141  0.00  0.00    +0.237 C 
BRANCH   4   3
ATOM      3  C   UNL     1       5.019   0.088  22.960  0.00  0.00    +0.189 C 
BRANCH   3   2
ATOM      1  C   UNL     1       5.794  -0.438  24.039  0.00  0.00    +0.174 C 
ATOM      2  O   UNL     1       5.636   0.168  23.501  0.00  0.00    -0.347 OA
ENDBRANCH   3   2
ENDBRANCH   4   3
ENDBRANCH   5   4
ENDBRANCH   6   5
ENDBRANCH  12   9
ENDBRANCH  15  14
TORSDOF 8
ENDMDL
MODEL 4
REMARK VINA RESULT:      -7.7      1.248      6.331
REMARK  Name = 
REMARK  8 active torsions:
REMARK  status: ('A' for Active; 'I' for Inactive)
REMARK    1  A    between atoms: O_2  and  C_3
REMARK    2  A    between atoms: C_3  and  C_4
REMARK    3  A    between atoms: C_4  and  O_5
REMARK    4  A    between atoms: O_5  and  C_6
REMARK    5  A    between atoms: C_9  and  C_12
REMARK    6  A    between atoms: N_14  and  C_15
REMARK    7  A    between atoms: N_25  and  C_26
REMARK    8  A    between atoms: C_30  and  O_31
REMARK                            x       y       z     vdW  Elec       q    Type
REMARK                         _______ _______ _______ _____ _____    ______ ____
ROOT
ATOM     15  C   UNL     1      -1.648  -0.207  25.032  0.00  0.00    +0.146 C 
ATOM     16  C   UNL     1      -1.032  -0.061  24.503  0.00  0.00    +0.119 C 
ATOM     17  N   UNL     1      -0.373  -0.529  24.339  0.00  0.00    -0.261 N 
ATOM     18  C   UNL     1      -0.167  -1.258  24.665  0.00  0.00    +0.095 C 
ATOM     19  C   UNL     1      -0.569  -1.700  25.234  0.00  0.00    +0.024 C 
ATOM     20  C   UNL     1      -1.277  -1.520  25.618  0.00  0.00    +0.037 C 
ATOM     21  C   UNL     1      -1.757  -0.856  25.529  0.00  0.00    +0.174 C 
ATOM     22  O   UNL     1      -2.436  -0.839  25.998  0.00  0.00    -0.221 OA
ATOM     23  C   UNL     1       0.149  -0.228  23.776  0.00  0.00    +0.328 C 
ATOM     24  O   UNL     1      -0.006   0.498  23.417  0.00  0.00    -0.250 OA
ATOM     25  N   UNL     1       0.825  -0.653  23.572  0.00  0.00    -0.162 NA
ENDROOT
BRANCH  25  26
ATOM     26  C   UNL     1       1.347  -0.352  23.009  0.00  0.00    +0.078 A 
ATOM     27  C   UNL     1       1.240  -0.528  22.211  0.00  0.00    +0.017 A 
ATOM     28  C   UNL     1       1.762  -0.227  21.647  0.00  0.00    +0.004 A 
ATOM     29  C   UNL     1       2.392   0.252  21.882  0.00  0.00    +0.037 A 
ATOM     30  C   UNL     1       2.499   0.429  22.681  0.00  0.00    +0.140 A 
ATOM     33  C   UNL     1       1.977   0.127  23.245  0.00  0.00    +0.054 A 
BRANCH  30  31
ATOM     31  O   UNL     1       3.129   0.907  22.916  0.00  0.00    -0.471 OA
ATOM     32  C   UNL     1       3.887   0.763  22.627  0.00  0.00    +0.252 C 
ENDBRANCH  30  31
ENDBRANCH  25  26
BRANCH  15  14
ATOM     12  C   UNL     1      -2.819   0.408  24.491  0.00  0.00    +0.265 C 
ATOM     13  O   UNL     1      -2.821  -0.140  23.874  0.00  0.00    -0.268 OA
ATOM     14  N   UNL     1      -2.233   0.375  25.070  0.00  0.00    -0.199 NA
BRANCH  12   9
ATOM      6  C   UNL     1      -4.572   2.151  24.604  0.00  0.00    +0.139 A 
ATOM      7  C   UNL     1      -3.807   2.351  24.372  0.00  0.00    +0.037 A 
ATOM      8  C   UNL     1      -3.222   1.770  24.335  0.00  0.00    +0.008 A 
ATOM      9  C   UNL     1      -3.404   0.989  24.528  0.00  0.00    +0.055 A 
ATOM     10  C   UNL     1      -4.170   0.789  24.760  0.00  0.00    +0.008 A 
ATOM     11  C   UNL     1      -4.754   1.370  24.798  0.00  0.00    +0.037 A 
BRANCH   6   5
ATOM      5  O   UNL     1      -5.157   2.732  24.642  0.00  0.00    -0.473 OA
BRANCH   5   4
ATOM      4  C   UNL     1      -5.190   3.244  25.287  0.00  0.00    +0.237 C 
BRANCH   4   3
ATOM      3  C   UNL     1      -5.825   3.764  25.370  0.00  0.00    +0.189 C 
BRANCH   3   2
ATOM      1  C   UNL     1      -6.192   5.117  25.650  0.00  0.00    +0.174 C 
ATOM      2  O   UNL     1      -5.742   4.448  25.824  0.00  0.00    -0.347 OA
ENDBRANCH   3   2
ENDBRANCH   4   3
ENDBRANCH   5   4
ENDBRANCH   6   5
ENDBRANCH  12   9
ENDBRANCH  15  14
TORSDOF 8
ENDMDL
MODEL 5
REMARK VINA RESULT:      -5.6     15.288     16.170
REMARK  Name = 
REMARK  8 active torsions:
REMARK  status: ('A' for Active; 'I' for Inactive)
REMARK    1  A    between atoms: O_2  and  C_3
REMARK    2  A    between atoms: C_3  and  C_4
REMARK    3  A    between atoms: C_4  and  O_5
REMARK    4  A    between atoms: O_5  and  C_6
REMARK    5  A    between atoms: C_9  and  C_12
REMARK    6  A    between atoms: N_14  and  C_15
REMARK    7  A    between atoms: N_25  and  C_26
REMARK    8  A    between atoms: C_30  and  O_31
REMARK                            x       y       z     vdW  Elec       q    Type
REMARK                         _______ _______ _______ _____ _____    ______ ____
ROOT
ATOM     15  C   UNL     1      -7.327  -9.946  11.812  0.00  0.00    +0.146 C 
ATOM     16  C   UNL     1      -7.428  -9.951  12.632  0.00  0.00    +0.119 C 
ATOM     17  N   UNL     1      -8.130  -9.917  13.063  0.00  0.00    -0.261 N 
ATOM     18  C   UNL     1      -8.904  -9.870  12.782  0.00  0.00    +0.095 C 
ATOM     19  C   UNL     1      -9.167  -9.845  12.001  0.00  0.00    +0.024 C 
ATOM     20  C   UNL     1      -8.721  -9.861  11.307  0.00  0.00    +0.037 C 
ATOM     21  C   UNL     1      -7.902  -9.906  11.223  0.00  0.00    +0.174 C 
ATOM     22  O   UNL     1      -7.621  -9.911  10.447  0.00  0.00    -0.221 OA
ATOM     23  C   UNL     1      -8.047  -9.933  13.884  0.00  0.00    +0.328 C 
ATOM     24  O   UNL     1      -7.296  -9.979  14.221  0.00  0.00    -0.250 OA
ATOM     25  N   UNL     1      -8.715  -9.902  14.366  0.00  0.00    -0.162 NA
ENDROOT
BRANCH  25  26
ATOM     26  C   UNL     1      -8.632  -9.917  15.187  0.00  0.00    +0.078 A 
ATOM     27  C   UNL     1      -8.481 -10.630  15.573  0.00  0.00    +0.017 A 
ATOM     28  C   UNL     1      -8.398 -10.646  16.394  0.00  0.00    +0.004 A 
ATOM     29  C   UNL     1      -8.465  -9.948  16.829  0.00  0.00    +0.037 A 
ATOM     30  C   UNL     1      -8.615  -9.234  16.442  0.00  0.00    +0.140 A 
ATOM     33  C   UNL     1      -8.699  -9.219  15.622  0.00  0.00    +0.054 A 
BRANCH  30  31
ATOM     31  O   UNL     1      -8.683  -8.537  16.877  0.00  0.00    -0.471 OA
ATOM     32  C   UNL     1      -9.407  -8.324  17.207  0.00  0.00    +0.252 C 
ENDBRANCH  30  31
ENDBRANCH  25  26
BRANCH  15  14
ATOM     12  C   UNL     1      -6.049  -9.333  11.631  0.00  0.00    +0.265 C 
ATOM     13  O   UNL     1      -6.332  -8.640  11.978  0.00  0.00    -0.268 OA
ATOM     14  N   UNL     1      -6.545  -9.986  11.548  0.00  0.00    -0.199 NA
BRANCH  12   9
ATOM      6  C   UNL     1      -3.707  -9.453  10.839  0.00  0.00    +0.139 A 
ATOM      7  C   UNL     1      -4.204  -8.853  10.568  0.00  0.00    +0.037 A 
ATOM      8  C   UNL     1      -4.984  -8.813  10.831  0.00  0.00    +0.008 A 
ATOM      9  C   UNL     1      -5.267  -9.373  11.367  0.00  0.00    +0.055 A 
ATOM     10  C   UNL     1      -4.771  -9.973  11.638  0.00  0.00    +0.008 A 
ATOM     11  C   UNL     1      -3.991 -10.013  11.374  0.00  0.00    +0.037 A 
BRANCH   6   5
ATOM      5  O   UNL     1      -2.926  -9.494  10.575  0.00  0.00    -0.473 OA
BRANCH   5   4
ATOM      4  C   UNL     1      -2.306  -9.351  11.098  0.00  0.00    +0.237 C 
BRANCH   4   3
ATOM      3  C   UNL     1      -1.534  -9.276  10.815  0.00  0.00    +0.189 C 
BRANCH   3   2
ATOM      1  C   UNL     1      -0.165  -8.930  11.031  0.00  0.00    +0.174 C 
ATOM      2  O   UNL     1      -0.944  -8.965  11.299  0.00  0.00    -0.347 OA
ENDBRANCH   3   2
ENDBRANCH   4   3
ENDBRANCH   5   4
ENDBRANCH   6   5
ENDBRANCH  12   9
ENDBRANCH  15  14
TORSDOF 8
ENDMDL
