MODEL 1
REMARK VINA RESULT:     -17.9      0.000      0.000
REMARK  Name = 
REMARK  3 active torsions:
REMARK  status: ('A' for Active; 'I' for Inactive)
REMARK    1  A    between atoms: O_2  and  C_3
REMARK    2  A    between atoms: C_8  and  N_9
REMARK    3  A    between atoms: C_19  and  C_26
REMARK                            x       y       z     vdW  Elec       q    Type
REMARK                         _______ _______ _______ _____ _____    ______ ____
ROOT
ATOM      9  N   UNL     1      -3.648   3.162  25.063  0.00  0.00    -0.159 NA
ATOM     10  C   UNL     1      -4.415   3.426  25.217  0.00  0.00    +0.328 C 
ATOM     11  O   UNL     1      -4.554   4.223  25.376  0.00  0.00    -0.250 OA
ATOM     12  N   UNL     1      -5.044   2.891  25.212  0.00  0.00    -0.262 N 
ATOM     13  C   UNL     1      -5.828   2.610  25.273  0.00  0.00    +0.097 C 
ATOM     14  C   UNL     1      -5.676   1.652  25.085  0.00  0.00    +0.043 C 
ATOM     15  C   UNL     1      -5.719   0.849  24.951  0.00  0.00    +0.011 C 
ATOM     16  C   UNL     1      -5.224   1.347  24.968  0.00  0.00    +0.058 C 
ATOM     17  C   UNL     1      -5.387   2.270  25.152  0.00  0.00    +0.101 C 
ATOM     18  C   UNL     1      -4.319   1.467  24.862  0.00  0.00    +0.041 A 
ATOM     19  C   UNL     1      -3.632   1.044  24.691  0.00  0.00    +0.012 A 
ATOM     20  C   UNL     1      -2.906   1.433  24.657  0.00  0.00    +0.006 A 
ATOM     21  C   UNL     1      -2.866   2.246  24.794  0.00  0.00    +0.061 A 
ATOM     22  C   UNL     1      -3.553   2.669  24.964  0.00  0.00    +0.261 A 
ATOM     23  O   UNL     1      -3.041   3.315  25.005  0.00  0.00    -0.267 OA
ATOM     24  N   UNL     1      -4.279   2.280  24.998  0.00  0.00    -0.299 N 
ATOM     25  C   UNL     1      -4.732   1.787  24.976  0.00  0.00    +0.110 C 
ENDROOT
BRANCH  19  26
ATOM     26  C   UNL     1      -3.672   0.231  24.555  0.00  0.00    +0.001 A 
ATOM     27  C   UNL     1      -3.891  -0.053  23.812  0.00  0.00    +0.000 A 
ATOM     28  C   UNL     1      -3.931  -0.866  23.676  0.00  0.00    +0.000 A 
ATOM     29  C   UNL     1      -3.751  -1.395  24.283  0.00  0.00    +0.000 A 
ATOM     30  C   UNL     1      -3.790  -2.207  24.146  0.00  0.00    +0.000 A 
ATOM     31  C   UNL     1      -3.611  -2.737  24.753  0.00  0.00    +0.000 A 
ATOM     32  C   UNL     1      -3.391  -2.453  25.496  0.00  0.00    +0.000 A 
ATOM     33  C   UNL     1      -3.352  -1.640  25.632  0.00  0.00    +0.000 A 
ATOM     34  C   UNL     1      -3.532  -1.111  25.026  0.00  0.00    +0.000 A 
ATOM     35  C   UNL     1      -3.492  -0.298  25.162  0.00  0.00    +0.000 A 
ENDBRANCH  19  26
BRANCH   9   8
ATOM      3  C   UNL     1      -2.705   3.955  25.786  0.00  0.00    +0.154 A 
ATOM      4  C   UNL     1      -2.077   4.491  25.792  0.00  0.00    +0.038 A 
ATOM      5  C   UNL     1      -1.764   4.767  25.081  0.00  0.00    +0.003 A 
ATOM      6  C   UNL     1      -2.080   4.509  24.363  0.00  0.00    +0.002 A 
ATOM      7  C   UNL     1      -2.707   3.974  24.358  0.00  0.00    +0.020 A 
ATOM      8  C   UNL     1      -3.020   3.697  25.069  0.00  0.00    +0.109 A 
BRANCH   3   2
ATOM      1  C   UNL     1      -2.721   3.958  27.215  0.00  0.00    +0.253 C 
ATOM      2  O   UNL     1      -3.017   3.679  26.498  0.00  0.00    -0.470 OA
ENDBRANCH   3   2
ENDBRANCH   9   8
TORSDOF 3
ENDMDL
MODEL 2
REMARK VINA RESULT:     -17.0      1.050      2.181
REMARK  Name = 
REMARK  3 active torsions:
REMARK  status: ('A' for Active; 'I' for Inactive)
REMARK    1  A    between atoms: O_2  and  C_3
REMARK    2  A    between atoms: C_8  and  N_9
REMARK    3  A    between atoms: C_19  and  C_26
REMARK                            x       y       z     vdW  Elec       q    Type
REMARK                         _______ _______ _______ _____ _____    ______ ____
ROOT
ATOM      9  N   UNL     1      -4.114   2.622  24.537  0.00  0.00    -0.159 NA
ATOM     10  C   UNL     1      -3.702   2.945  23.899  0.00  0.00    +0.328 C 
ATOM     11  O   UNL     1      -3.763   3.750  23.733  0.00  0.00    -0.250 OA
ATOM     12  N   UNL     1      -3.229   2.461  23.426  0.00  0.00    -0.262 N 
ATOM     13  C   UNL     1      -2.708   2.243  22.810  0.00  0.00    +0.097 C 
ATOM     14  C   UNL     1      -2.626   1.276  22.997  0.00  0.00    +0.043 C 
ATOM     15  C   UNL     1      -2.455   0.480  23.016  0.00  0.00    +0.011 C 
ATOM     16  C   UNL     1      -2.842   0.937  23.383  0.00  0.00    +0.058 C 
ATOM     17  C   UNL     1      -2.911   1.869  23.190  0.00  0.00    +0.101 C 
ATOM     18  C   UNL     1      -3.406   0.985  24.107  0.00  0.00    +0.041 A 
ATOM     19  C   UNL     1      -3.740   0.509  24.692  0.00  0.00    +0.012 A 
ATOM     20  C   UNL     1      -4.246   0.840  25.253  0.00  0.00    +0.006 A 
ATOM     21  C   UNL     1      -4.417   1.647  25.231  0.00  0.00    +0.061 A 
ATOM     22  C   UNL     1      -4.082   2.123  24.647  0.00  0.00    +0.261 A 
ATOM     23  O   UNL     1      -4.505   2.726  25.018  0.00  0.00    -0.267 OA
ATOM     24  N   UNL     1      -3.576   1.792  24.085  0.00  0.00    -0.299 N 
ATOM     25  C   UNL     1      -3.216   1.337  23.752  0.00  0.00    +0.110 C 
ENDROOT
BRANCH  19  26
ATOM     26  C   UNL     1      -3.570  -0.298  24.714  0.00  0.00    +0.001 A 
ATOM     27  C   UNL     1      -2.935  -0.573  25.163  0.00  0.00    +0.000 A 
ATOM     28  C   UNL     1      -2.765  -1.380  25.186  0.00  0.00    +0.000 A 
ATOM     29  C   UNL     1      -3.229  -1.912  24.759  0.00  0.00    +0.000 A 
ATOM     30  C   UNL     1      -3.058  -2.718  24.781  0.00  0.00    +0.000 A 
ATOM     31  C   UNL     1      -3.522  -3.250  24.354  0.00  0.00    +0.000 A 
ATOM     32  C   UNL     1      -4.157  -2.975  23.905  0.00  0.00    +0.000 A 
ATOM     33  C   UNL     1      -4.327  -2.168  23.882  0.00  0.00    +0.000 A 
ATOM     34  C   UNL     1      -3.863  -1.636  24.309  0.00  0.00    +0.000 A 
ATOM     35  C   UNL     1      -4.034  -0.829  24.287  0.00  0.00    +0.000 A 
ENDBRANCH  19  26
BRANCH   9   8
ATOM      3  C   UNL     1      -4.240   3.588  25.582  0.00  0.00    +0.154 A 
ATOM      4  C   UNL     1      -4.712   4.072  26.055  0.00  0.00    +0.038 A 
ATOM      5  C   UNL     1      -5.531   4.074  25.954  0.00  0.00    +0.003 A 
ATOM      6  C   UNL     1      -5.878   3.591  25.381  0.00  0.00    +0.002 A 
ATOM      7  C   UNL     1      -5.405   3.107  24.909  0.00  0.00    +0.020 A 
ATOM      8  C   UNL     1      -4.586   3.105  25.009  0.00  0.00    +0.109 A 
BRANCH   3   2
ATOM      1  C   UNL     1      -3.073   4.079  26.245  0.00  0.00    +0.253 C 
ATOM      2  O   UNL     1      -3.421   3.587  25.682  0.00  0.00    -0.470 OA
ENDBRANCH   3   2
ENDBRANCH   9   8
TORSDOF 3
ENDMDL
MODEL 3
REMARK VINA RESULT:     -16.5      1.262      2.467
REMARK  Name = 
REMARK  3 active torsions:
REMARK  status: ('A' for Active; 'I' for Inactive)
REMARK    1  A    between atoms: O_2  and  C_3
REMARK    2  A    between atoms: C_8  and  N_9
REMARK    3  A    between atoms: C_19  and  C_26
REMARK                            x       y       z     vdW  Elec       q    Type
REMARK                         _______ _______ _______ _____ _____    ______ ____
ROOT
ATOM      9  N   UNL     1      -2.665   2.475  24.487  0.00  0.00    -0.159 NA
ATOM     10  C   UNL     1      -1.864   2.599  24.333  0.00  0.00    +0.328 C 
ATOM     11  O   UNL     1      -1.583   3.362  24.198  0.00  0.00    -0.250 OA
ATOM     12  N   UNL     1      -1.343   1.959  24.316  0.00  0.00    -0.262 N 
ATOM     13  C   UNL     1      -0.623   1.542  24.239  0.00  0.00    +0.097 C 
ATOM     14  C   UNL     1      -0.946   0.622  24.400  0.00  0.00    +0.043 C 
ATOM     15  C   UNL     1      -1.050  -0.178  24.509  0.00  0.00    +0.011 C 
ATOM     16  C   UNL     1      -1.446   0.401  24.512  0.00  0.00    +0.058 C 
ATOM     17  C   UNL     1      -1.118   1.284  24.354  0.00  0.00    +0.101 C 
ATOM     18  C   UNL     1      -2.313   0.681  24.630  0.00  0.00    +0.041 A 
ATOM     19  C   UNL     1      -3.065   0.384  24.795  0.00  0.00    +0.012 A 
ATOM     20  C   UNL     1      -3.708   0.898  24.848  0.00  0.00    +0.006 A 
ATOM     21  C   UNL     1      -3.600   1.708  24.737  0.00  0.00    +0.061 A 
ATOM     22  C   UNL     1      -2.848   2.005  24.572  0.00  0.00    +0.261 A 
ATOM     23  O   UNL     1      -3.234   2.733  24.556  0.00  0.00    -0.267 OA
ATOM     24  N   UNL     1      -2.205   1.491  24.519  0.00  0.00    -0.299 N 
ATOM     25  C   UNL     1      -1.850   0.924  24.522  0.00  0.00    +0.110 C 
ENDROOT
BRANCH  19  26
ATOM     26  C   UNL     1      -3.174  -0.426  24.906  0.00  0.00    +0.001 A 
ATOM     27  C   UNL     1      -2.993  -0.771  25.633  0.00  0.00    +0.000 A 
ATOM     28  C   UNL     1      -3.101  -1.581  25.745  0.00  0.00    +0.000 A 
ATOM     29  C   UNL     1      -3.390  -2.047  25.129  0.00  0.00    +0.000 A 
ATOM     30  C   UNL     1      -3.499  -2.857  25.240  0.00  0.00    +0.000 A 
ATOM     31  C   UNL     1      -3.788  -3.323  24.624  0.00  0.00    +0.000 A 
ATOM     32  C   UNL     1      -3.969  -2.979  23.896  0.00  0.00    +0.000 A 
ATOM     33  C   UNL     1      -3.861  -2.168  23.785  0.00  0.00    +0.000 A 
ATOM     34  C   UNL     1      -3.571  -1.703  24.401  0.00  0.00    +0.000 A 
ATOM     35  C   UNL     1      -3.463  -0.892  24.290  0.00  0.00    +0.000 A 
ENDBRANCH  19  26
BRANCH   9   8
ATOM      3  C   UNL     1      -3.223   3.597  25.173  0.00  0.00    +0.154 A 
ATOM      4  C   UNL     1      -3.743   4.238  25.191  0.00  0.00    +0.038 A 
ATOM      5  C   UNL     1      -4.225   4.396  24.540  0.00  0.00    +0.003 A 
ATOM      6  C   UNL     1      -4.187   3.913  23.872  0.00  0.00    +0.002 A 
ATOM      7  C   UNL     1      -3.667   3.273  23.854  0.00  0.00    +0.020 A 
ATOM      8  C   UNL     1      -3.185   3.115  24.504  0.00  0.00    +0.109 A 
BRANCH   3   2
ATOM      1  C   UNL     1      -2.763   3.934  26.483  0.00  0.00    +0.253 C 
ATOM      2  O   UNL     1      -2.741   3.439  25.823  0.00  0.00    -0.470 OA
ENDBRANCH   3   2
ENDBRANCH   9   8
TORSDOF 3
ENDMDL
MODEL 4
REMARK VINA RESULT:     -15.1      1.424      4.535
REMARK  Name = 
REMARK  3 active torsions:
REMARK  status: ('A' for Active; 'I' for Inactive)
REMARK    1  A    between atoms: O_2  and  C_3
REMARK    2  A    between atoms: C_8  and  N_9
REMARK    3  A    between atoms: C_19  and  C_26
REMARK                            x       y       z     vdW  Elec       q    Type
REMARK                         _______ _______ _______ _____ _____    ______ ____
ROOT
ATOM      9  N   UNL     1      -3.984   0.361  25.046  0.00  0.00    -0.159 NA
ATOM     10  C   UNL     1      -4.772   0.556  24.895  0.00  0.00    +0.328 C 
ATOM     11  O   UNL     1      -5.339  -0.039  24.831  0.00  0.00    -0.250 OA
ATOM     12  N   UNL     1      -4.992   1.347  24.809  0.00  0.00    -0.262 N 
ATOM     13  C   UNL     1      -5.486   2.008  24.682  0.00  0.00    +0.097 C 
ATOM     14  C   UNL     1      -4.816   2.731  24.756  0.00  0.00    +0.043 C 
ATOM     15  C   UNL     1      -4.397   3.429  24.787  0.00  0.00    +0.011 C 
ATOM     16  C   UNL     1      -4.267   2.742  24.852  0.00  0.00    +0.058 C 
ATOM     17  C   UNL     1      -4.926   2.055  24.777  0.00  0.00    +0.101 C 
ATOM     18  C   UNL     1      -3.582   2.150  25.008  0.00  0.00    +0.041 A 
ATOM     19  C   UNL     1      -2.770   2.133  25.152  0.00  0.00    +0.012 A 
ATOM     20  C   UNL     1      -2.386   1.412  25.263  0.00  0.00    +0.006 A 
ATOM     21  C   UNL     1      -2.814   0.707  25.231  0.00  0.00    +0.061 A 
ATOM     22  C   UNL     1      -3.626   0.724  25.087  0.00  0.00    +0.261 A 
ATOM     23  O   UNL     1      -3.565  -0.096  25.147  0.00  0.00    -0.267 OA
ATOM     24  N   UNL     1      -4.010   1.445  24.976  0.00  0.00    -0.299 N 
ATOM     25  C   UNL     1      -4.107   2.105  24.918  0.00  0.00    +0.110 C 
ENDROOT
BRANCH  19  26
ATOM     26  C   UNL     1      -2.342   2.838  25.185  0.00  0.00    +0.001 A 
ATOM     27  C   UNL     1      -2.415   3.335  25.839  0.00  0.00    +0.000 A 
ATOM     28  C   UNL     1      -1.987   4.040  25.872  0.00  0.00    +0.000 A 
ATOM     29  C   UNL     1      -1.487   4.248  25.250  0.00  0.00    +0.000 A 
ATOM     30  C   UNL     1      -1.060   4.952  25.283  0.00  0.00    +0.000 A 
ATOM     31  C   UNL     1      -0.559   5.161  24.661  0.00  0.00    +0.000 A 
ATOM     32  C   UNL     1      -0.486   4.664  24.007  0.00  0.00    +0.000 A 
ATOM     33  C   UNL     1      -0.913   3.959  23.974  0.00  0.00    +0.000 A 
ATOM     34  C   UNL     1      -1.414   3.751  24.596  0.00  0.00    +0.000 A 
ATOM     35  C   UNL     1      -1.842   3.046  24.563  0.00  0.00    +0.000 A 
ENDBRANCH  19  26
BRANCH   9   8
ATOM      3  C   UNL     1      -3.680  -0.909  24.466  0.00  0.00    +0.154 A 
ATOM      4  C   UNL     1      -3.461  -1.700  24.552  0.00  0.00    +0.038 A 
ATOM      5  C   UNL     1      -3.326  -2.011  25.303  0.00  0.00    +0.003 A 
ATOM      6  C   UNL     1      -3.410  -1.531  25.970  0.00  0.00    +0.002 A 
ATOM      7  C   UNL     1      -3.629  -0.741  25.883  0.00  0.00    +0.020 A 
ATOM      8  C   UNL     1      -3.765  -0.429  25.132  0.00  0.00    +0.109 A 
BRANCH   3   2
ATOM      1  C   UNL     1      -3.762  -1.084  23.050  0.00  0.00    +0.253 C 
ATOM      2  O   UNL     1      -3.816  -0.598  23.714  0.00  0.00    -0.470 OA
ENDBRANCH   3   2
ENDBRANCH   9   8
TORSDOF 3
ENDMDL
