MODEL 1
REMARK VINA RESULT:     -10.5      0.000      0.000
REMARK  Name = 
REMARK  6 active torsions:
REMARK  status: ('A' for Active; 'I' for Inactive)
REMARK    1  A    between atoms: N_2  and  C_4
REMARK    2  A    between atoms: C_7  and  C_10
REMARK    3  A    between atoms: C_13  and  C_15
REMARK    4  A    between atoms: N_19  and  C_20
REMARK    5  A    between atoms: C_20  and  C_21
REMARK    6  A    between atoms: C_24  and  N_27
REMARK                            x       y       z     vdW  Elec       q    Type
REMARK                         _______ _______ _______ _____ _____    ______ ____
ROOT
ATOM     15  C   UNL     1      -4.951   2.258  25.402  0.00  0.00    +0.138 C 
ATOM     16  C   UNL     1      -5.530   2.554  25.909  0.00  0.00    +0.027 C 
ATOM     17  C   UNL     1      -5.324   3.327  26.108  0.00  0.00    +0.019 C 
ATOM     18  C   UNL     1      -4.617   3.510  25.724  0.00  0.00    +0.073 C 
ATOM     19  N   UNL     1      -4.386   2.848  25.288  0.00  0.00    -0.263 NA
ENDROOT
BRANCH  15  13
ATOM     10  C   UNL     1      -4.574   0.256  24.764  0.00  0.00    +0.205 A 
ATOM     11  N   UNL     1      -5.264   0.430  24.345  0.00  0.00    -0.056 NA
ATOM     12  O   UNL     1      -5.489   1.201  24.533  0.00  0.00    -0.336 OA
ATOM     13  C   UNL     1      -4.938   1.504  25.068  0.00  0.00    +0.251 A 
ATOM     14  N   UNL     1      -4.373   0.920  25.210  0.00  0.00    -0.190 NA
BRANCH  10   7
ATOM      4  C   UNL     1      -3.327  -1.881  24.691  0.00  0.00    +0.132 A 
ATOM      5  C   UNL     1      -3.385  -1.460  25.398  0.00  0.00    +0.034 A 
ATOM      6  C   UNL     1      -3.800  -0.748  25.422  0.00  0.00    +0.008 A 
ATOM      7  C   UNL     1      -4.158  -0.456  24.739  0.00  0.00    +0.058 A 
ATOM      8  C   UNL     1      -4.102  -0.876  24.031  0.00  0.00    +0.103 A 
ATOM      9  N   UNL     1      -3.686  -1.589  24.007  0.00  0.00    -0.229 NA
BRANCH   4   2
ATOM      1  C   UNL     1      -3.319  -3.310  24.711  0.00  0.00    +0.114 C 
ATOM      2  N   UNL     1      -2.912  -2.593  24.667  0.00  0.00    -0.290 N 
ATOM      3  C   UNL     1      -2.090  -2.589  24.598  0.00  0.00    +0.114 C 
ENDBRANCH   4   2
ENDBRANCH  10   7
ENDBRANCH  15  13
BRANCH  19  20
ATOM     20  C   UNL     1      -3.710   2.789  24.820  0.00  0.00    +0.099 C 
BRANCH  20  21
ATOM     21  C   UNL     1      -3.105   3.344  24.896  0.00  0.00    -0.006 A 
ATOM     22  C   UNL     1      -2.519   3.240  25.468  0.00  0.00    -0.001 A 
ATOM     23  C   UNL     1      -1.914   3.796  25.544  0.00  0.00    +0.024 A 
ATOM     24  C   UNL     1      -1.894   4.454  25.048  0.00  0.00    +0.143 A 
ATOM     25  C   UNL     1      -2.479   4.558  24.476  0.00  0.00    +0.024 A 
ATOM     26  C   UNL     1      -3.084   4.003  24.400  0.00  0.00    -0.001 A 
BRANCH  24  27
ATOM     27  N   UNL     1      -1.288   5.010  25.124  0.00  0.00    +0.058 N 
ATOM     28  O   UNL     1      -0.500   4.767  25.101  0.00  0.00    -0.126 OA
ATOM     29  O   UNL     1      -1.472   5.808  25.224  0.00  0.00    -0.126 OA
ENDBRANCH  24  27
ENDBRANCH  20  21
ENDBRANCH  19  20
TORSDOF 6
ENDMDL
MODEL 2
REMARK VINA RESULT:      -9.9      1.564      5.334
REMARK  Name = 
REMARK  6 active torsions:
REMARK  status: ('A' for Active; 'I' for Inactive)
REMARK    1  A    between atoms: N_2  and  C_4
REMARK    2  A    between atoms: C_7  and  C_10
REMARK    3  A    between atoms: C_13  and  C_15
REMARK    4  A    between atoms: N_19  and  C_20
REMARK    5  A    between atoms: C_20  and  C_21
REMARK    6  A    between atoms: C_24  and  N_27
REMARK                            x       y       z     vdW  Elec       q    Type
REMARK                         _______ _______ _______ _____ _____    ______ ____
ROOT
ATOM     15  C   UNL     1      -4.950   1.696  24.976  0.00  0.00    +0.138 C 
ATOM     16  C   UNL     1      -5.659   1.795  25.386  0.00  0.00    +0.027 C 
ATOM     17  C   UNL     1      -5.952   1.048  25.573  0.00  0.00    +0.019 C 
ATOM     18  C   UNL     1      -5.425   0.485  25.277  0.00  0.00    +0.073 C 
ATOM     19  N   UNL     1      -4.805   0.887  24.908  0.00  0.00    -0.263 NA
ENDROOT
BRANCH  15  13
ATOM     10  C   UNL     1      -3.454   3.153  24.531  0.00  0.00    +0.205 A 
ATOM     11  N   UNL     1      -4.008   3.308  23.939  0.00  0.00    -0.056 NA
ATOM     12  O   UNL     1      -4.636   2.781  24.034  0.00  0.00    -0.336 OA
ATOM     13  C   UNL     1      -4.470   2.300  24.684  0.00  0.00    +0.251 A 
ATOM     14  N   UNL     1      -3.739   2.531  24.991  0.00  0.00    -0.190 NA
BRANCH  10   7
ATOM      4  C   UNL     1      -1.312   4.347  24.867  0.00  0.00    +0.132 A 
ATOM      5  C   UNL     1      -2.002   4.630  25.219  0.00  0.00    +0.034 A 
ATOM      6  C   UNL     1      -2.716   4.232  25.107  0.00  0.00    +0.008 A 
ATOM      7  C   UNL     1      -2.740   3.551  24.643  0.00  0.00    +0.058 A 
ATOM      8  C   UNL     1      -2.050   3.267  24.290  0.00  0.00    +0.103 A 
ATOM      9  N   UNL     1      -1.336   3.665  24.402  0.00  0.00    -0.229 NA
BRANCH   4   2
ATOM      1  C   UNL     1       0.077   4.326  25.198  0.00  0.00    +0.114 C 
ATOM      2  N   UNL     1      -0.598   4.745  24.978  0.00  0.00    -0.290 N 
ATOM      3  C   UNL     1      -0.560   5.562  24.870  0.00  0.00    +0.114 C 
ENDBRANCH   4   2
ENDBRANCH  10   7
ENDBRANCH  15  13
BRANCH  19  20
ATOM     20  C   UNL     1      -4.156   0.539  24.537  0.00  0.00    +0.099 C 
BRANCH  20  21
ATOM     21  C   UNL     1      -4.034  -0.274  24.595  0.00  0.00    -0.006 A 
ATOM     22  C   UNL     1      -3.681  -0.593  25.269  0.00  0.00    -0.001 A 
ATOM     23  C   UNL     1      -3.559  -1.407  25.326  0.00  0.00    +0.024 A 
ATOM     24  C   UNL     1      -3.792  -1.903  24.709  0.00  0.00    +0.143 A 
ATOM     25  C   UNL     1      -4.145  -1.584  24.035  0.00  0.00    +0.024 A 
ATOM     26  C   UNL     1      -4.266  -0.771  23.977  0.00  0.00    -0.001 A 
BRANCH  24  27
ATOM     27  N   UNL     1      -3.670  -2.717  24.766  0.00  0.00    +0.058 N 
ATOM     28  O   UNL     1      -3.380  -3.043  25.467  0.00  0.00    -0.126 OA
ATOM     29  O   UNL     1      -3.839  -3.205  24.122  0.00  0.00    -0.126 OA
ENDBRANCH  24  27
ENDBRANCH  20  21
ENDBRANCH  19  20
TORSDOF 6
ENDMDL
MODEL 3
REMARK VINA RESULT:      -9.5      2.114      3.585
REMARK  Name = 
REMARK  6 active torsions:
REMARK  status: ('A' for Active; 'I' for Inactive)
REMARK    1  A    between atoms: N_2  and  C_4
REMARK    2  A    between atoms: C_7  and  C_10
REMARK    3  A    between atoms: C_13  and  C_15
REMARK    4  A    between atoms: N_19  and  C_20
REMARK    5  A    between atoms: C_20  and  C_21
REMARK    6  A    between atoms: C_24  and  N_27
REMARK                            x       y       z     vdW  Elec       q    Type
REMARK                         _______ _______ _______ _____ _____    ______ ____
ROOT
ATOM     15  C   UNL     1      -1.161   3.552  24.849  0.00  0.00    +0.138 C 
ATOM     16  C   UNL     1      -0.753   4.218  25.115  0.00  0.00    +0.027 C 
ATOM     17  C   UNL     1      -1.304   4.815  25.256  0.00  0.00    +0.019 C 
ATOM     18  C   UNL     1      -2.053   4.519  25.076  0.00  0.00    +0.073 C 
ATOM     19  N   UNL     1      -1.965   3.737  24.825  0.00  0.00    -0.263 NA
ENDROOT
BRANCH  15  13
ATOM     10  C   UNL     1      -0.582   1.517  24.563  0.00  0.00    +0.205 A 
ATOM     11  N   UNL     1      -0.031   1.908  24.089  0.00  0.00    -0.056 NA
ATOM     12  O   UNL     1      -0.181   2.718  24.138  0.00  0.00    -0.336 OA
ATOM     13  C   UNL     1      -0.824   2.828  24.642  0.00  0.00    +0.251 A 
ATOM     14  N   UNL     1      -1.073   2.085  24.905  0.00  0.00    -0.190 NA
BRANCH  10   7
ATOM      4  C   UNL     1      -0.737  -0.930  24.898  0.00  0.00    +0.132 A 
ATOM      5  C   UNL     1      -1.005  -0.415  25.484  0.00  0.00    +0.034 A 
ATOM      6  C   UNL     1      -0.953   0.400  25.372  0.00  0.00    +0.008 A 
ATOM      7  C   UNL     1      -0.634   0.701  24.674  0.00  0.00    +0.058 A 
ATOM      8  C   UNL     1      -0.366   0.187  24.087  0.00  0.00    +0.103 A 
ATOM      9  N   UNL     1      -0.417  -0.629  24.199  0.00  0.00    -0.229 NA
BRANCH   4   2
ATOM      1  C   UNL     1      -0.186  -2.147  25.405  0.00  0.00    +0.114 C 
ATOM      2  N   UNL     1      -0.789  -1.746  25.009  0.00  0.00    -0.290 N 
ATOM      3  C   UNL     1      -1.443  -2.160  24.726  0.00  0.00    +0.114 C 
ENDBRANCH   4   2
ENDBRANCH  10   7
ENDBRANCH  15  13
BRANCH  19  20
ATOM     20  C   UNL     1      -2.573   3.232  24.591  0.00  0.00    +0.099 C 
BRANCH  20  21
ATOM     21  C   UNL     1      -3.342   3.359  24.860  0.00  0.00    -0.006 A 
ATOM     22  C   UNL     1      -3.540   3.182  25.640  0.00  0.00    -0.001 A 
ATOM     23  C   UNL     1      -4.310   3.309  25.909  0.00  0.00    +0.024 A 
ATOM     24  C   UNL     1      -4.881   3.613  25.397  0.00  0.00    +0.143 A 
ATOM     25  C   UNL     1      -4.682   3.790  24.616  0.00  0.00    +0.024 A 
ATOM     26  C   UNL     1      -3.913   3.663  24.347  0.00  0.00    -0.001 A 
BRANCH  24  27
ATOM     27  N   UNL     1      -5.651   3.741  25.666  0.00  0.00    +0.058 N 
ATOM     28  O   UNL     1      -5.969   4.502  25.661  0.00  0.00    -0.126 OA
ATOM     29  O   UNL     1      -6.101   3.106  25.940  0.00  0.00    -0.126 OA
ENDBRANCH  24  27
ENDBRANCH  20  21
ENDBRANCH  19  20
TORSDOF 6
ENDMDL
MODEL 4
REMARK VINA RESULT:      -9.4      2.430      6.227
REMARK  Name = 
REMARK  6 active torsions:
REMARK  status: ('A' for Active; 'I' for Inactive)
REMARK    1  A    between atoms: N_2  and  C_4
REMARK    2  A    between atoms: C_7  and  C_10
REMARK    3  A    between atoms: C_13  and  C_15
REMARK    4  A    between atoms: N_19  and  C_20
REMARK    5  A    between atoms: C_20  and  C_21
REMARK    6  A    between atoms: C_24  and  N_27
REMARK                            x       y       z     vdW  Elec       q    Type
REMARK                         _______ _______ _______ _____ _____    ______ ____
ROOT
ATOM     15  C   UNL     1      -0.606   0.016  24.761  0.00  0.00    +0.138 C 
ATOM     16  C   UNL     1       0.051  -0.217  24.318  0.00  0.00    +0.027 C 
ATOM     17  C   UNL     1      -0.103  -0.965  24.006  0.00  0.00    +0.019 C 
ATOM     18  C   UNL     1      -0.856  -1.195  24.256  0.00  0.00    +0.073 C 
ATOM     19  N   UNL     1      -1.166  -0.589  24.722  0.00  0.00    -0.263 NA
ENDROOT
BRANCH  15  13
ATOM     10  C   UNL     1      -0.892   2.018  25.442  0.00  0.00    +0.205 A 
ATOM     11  N   UNL     1      -0.737   1.628  26.153  0.00  0.00    -0.056 NA
ATOM     12  O   UNL     1      -0.611   0.830  25.984  0.00  0.00    -0.336 OA
ATOM     13  C   UNL     1      -0.688   0.727  25.169  0.00  0.00    +0.251 A 
ATOM     14  N   UNL     1      -0.862   1.461  24.835  0.00  0.00    -0.190 NA
BRANCH  10   7
ATOM      4  C   UNL     1      -1.364   4.434  25.181  0.00  0.00    +0.132 A 
ATOM      5  C   UNL     1      -1.974   3.912  25.368  0.00  0.00    +0.034 A 
ATOM      6  C   UNL     1      -1.817   3.106  25.455  0.00  0.00    +0.008 A 
ATOM      7  C   UNL     1      -1.049   2.823  25.355  0.00  0.00    +0.058 A 
ATOM      8  C   UNL     1      -0.438   3.345  25.168  0.00  0.00    +0.103 A 
ATOM      9  N   UNL     1      -0.595   4.150  25.081  0.00  0.00    -0.229 NA
BRANCH   4   2
ATOM      1  C   UNL     1      -0.960   5.733  24.745  0.00  0.00    +0.114 C 
ATOM      2  N   UNL     1      -1.521   5.239  25.094  0.00  0.00    -0.290 N 
ATOM      3  C   UNL     1      -2.238   5.549  25.356  0.00  0.00    +0.114 C 
ENDBRANCH   4   2
ENDBRANCH  10   7
ENDBRANCH  15  13
BRANCH  19  20
ATOM     20  C   UNL     1      -1.907  -0.588  25.086  0.00  0.00    +0.099 C 
BRANCH  20  21
ATOM     21  C   UNL     1      -2.502  -1.087  24.809  0.00  0.00    -0.006 A 
ATOM     22  C   UNL     1      -2.566  -1.855  25.101  0.00  0.00    -0.001 A 
ATOM     23  C   UNL     1      -3.163  -2.354  24.824  0.00  0.00    +0.024 A 
ATOM     24  C   UNL     1      -3.696  -2.083  24.256  0.00  0.00    +0.143 A 
ATOM     25  C   UNL     1      -3.632  -1.314  23.964  0.00  0.00    +0.024 A 
ATOM     26  C   UNL     1      -3.036  -0.816  24.240  0.00  0.00    -0.001 A 
BRANCH  24  27
ATOM     27  N   UNL     1      -4.292  -2.582  23.979  0.00  0.00    +0.058 N 
ATOM     28  O   UNL     1      -5.003  -2.263  23.705  0.00  0.00    -0.126 OA
ATOM     29  O   UNL     1      -4.177  -3.399  23.976  0.00  0.00    -0.126 OA
ENDBRANCH  24  27
ENDBRANCH  20  21
ENDBRANCH  19  20
TORSDOF 6
ENDMDL
MODEL 5
REMARK VINA RESULT:      -9.4      3.036      4.103
REMARK  Name = 
REMARK  6 active torsions:
REMARK  status: ('A' for Active; 'I' for Inactive)
REMARK    1  A    between atoms: N_2  and  C_4
REMARK    2  A    between atoms: C_7  and  C_10
REMARK    3  A    between atoms: C_13  and  C_15
REMARK    4  A    between atoms: N_19  and  C_20
REMARK    5  A    between atoms: C_20  and  C_21
REMARK    6  A    between atoms: C_24  and  N_27
REMARK                            x       y       z     vdW  Elec       q    Type
REMARK                         _______ _______ _______ _____ _____    ______ ____
ROOT
ATOM     15  C   UNL     1      -2.898  -0.107  25.094  0.00  0.00    +0.138 C 
ATOM     16  C   UNL     1      -3.289  -0.802  25.305  0.00  0.00    +0.027 C 
ATOM     17  C   UNL     1      -4.101  -0.655  25.284  0.00  0.00    +0.019 C 
ATOM     18  C   UNL     1      -4.211   0.131  25.059  0.00  0.00    +0.073 C 
ATOM     19  N   UNL     1      -3.468   0.470  24.942  0.00  0.00    -0.263 NA
ENDROOT
BRANCH  15  13
ATOM     10  C   UNL     1      -0.838   0.063  24.562  0.00  0.00    +0.205 A 
ATOM     11  N   UNL     1      -0.808   0.231  25.370  0.00  0.00    -0.056 NA
ATOM     12  O   UNL     1      -1.577   0.188  25.667  0.00  0.00    -0.336 OA
ATOM     13  C   UNL     1      -2.081  -0.007  25.044  0.00  0.00    +0.251 A 
ATOM     14  N   UNL     1      -1.624  -0.083  24.361  0.00  0.00    -0.190 NA
BRANCH  10   7
ATOM      4  C   UNL     1       1.094   0.011  23.016  0.00  0.00    +0.132 A 
ATOM      5  C   UNL     1       0.772   0.733  23.250  0.00  0.00    +0.034 A 
ATOM      6  C   UNL     1       0.128   0.751  23.766  0.00  0.00    +0.008 A 
ATOM      7  C   UNL     1      -0.194   0.046  24.047  0.00  0.00    +0.058 A 
ATOM      8  C   UNL     1       0.127  -0.677  23.813  0.00  0.00    +0.103 A 
ATOM      9  N   UNL     1       0.771  -0.695  23.298  0.00  0.00    -0.229 NA
BRANCH   4   2
ATOM      1  C   UNL     1       2.470   0.287  22.745  0.00  0.00    +0.114 C 
ATOM      2  N   UNL     1       1.738  -0.007  22.501  0.00  0.00    -0.290 N 
ATOM      3  C   UNL     1       1.651  -0.317  21.742  0.00  0.00    +0.114 C 
ENDBRANCH   4   2
ENDBRANCH  10   7
ENDBRANCH  15  13
BRANCH  19  20
ATOM     20  C   UNL     1      -3.321   1.248  24.713  0.00  0.00    +0.099 C 
BRANCH  20  21
ATOM     21  C   UNL     1      -3.858   1.844  24.905  0.00  0.00    -0.006 A 
ATOM     22  C   UNL     1      -3.684   2.378  25.508  0.00  0.00    -0.001 A 
ATOM     23  C   UNL     1      -4.222   2.974  25.700  0.00  0.00    +0.024 A 
ATOM     24  C   UNL     1      -4.934   3.035  25.288  0.00  0.00    +0.143 A 
ATOM     25  C   UNL     1      -5.108   2.500  24.684  0.00  0.00    +0.024 A 
ATOM     26  C   UNL     1      -4.571   1.905  24.492  0.00  0.00    -0.001 A 
BRANCH  24  27
ATOM     27  N   UNL     1      -5.472   3.631  25.480  0.00  0.00    +0.058 N 
ATOM     28  O   UNL     1      -6.148   3.451  25.918  0.00  0.00    -0.126 OA
ATOM     29  O   UNL     1      -5.333   4.406  25.234  0.00  0.00    -0.126 OA
ENDBRANCH  24  27
ENDBRANCH  20  21
ENDBRANCH  19  20
TORSDOF 6
ENDMDL
MODEL 6
REMARK VINA RESULT:      -9.4      2.916      4.444
REMARK  Name = 
REMARK  6 active torsions:
REMARK  status: ('A' for Active; 'I' for Inactive)
REMARK    1  A    between atoms: N_2  and  C_4
REMARK    2  A    between atoms: C_7  and  C_10
REMARK    3  A    between atoms: C_13  and  C_15
REMARK    4  A    between atoms: N_19  and  C_20
REMARK    5  A    between atoms: C_20  and  C_21
REMARK    6  A    between atoms: C_24  and  N_27
REMARK                            x       y       z     vdW  Elec       q    Type
REMARK                         _______ _______ _______ _____ _____    ______ ____
ROOT
ATOM     15  C   UNL     1      -1.080   3.893  25.162  0.00  0.00    +0.138 C 
ATOM     16  C   UNL     1      -0.832   4.674  25.064  0.00  0.00    +0.027 C 
ATOM     17  C   UNL     1      -1.494   5.162  25.129  0.00  0.00    +0.019 C 
ATOM     18  C   UNL     1      -2.152   4.683  25.267  0.00  0.00    +0.073 C 
ATOM     19  N   UNL     1      -1.896   3.898  25.287  0.00  0.00    -0.263 NA
ENDROOT
BRANCH  15  13
ATOM     10  C   UNL     1       0.092   2.172  24.693  0.00  0.00    +0.205 A 
ATOM     11  N   UNL     1       0.199   2.220  25.510  0.00  0.00    -0.056 NA
ATOM     12  O   UNL     1      -0.227   2.871  25.785  0.00  0.00    -0.336 OA
ATOM     13  C   UNL     1      -0.598   3.225  25.138  0.00  0.00    +0.251 A 
ATOM     14  N   UNL     1      -0.400   2.793  24.463  0.00  0.00    -0.190 NA
BRANCH  10   7
ATOM      4  C   UNL     1       1.076   0.465  23.195  0.00  0.00    +0.132 A 
ATOM      5  C   UNL     1       0.312   0.364  23.491  0.00  0.00    +0.034 A 
ATOM      6  C   UNL     1      -0.016   0.933  23.990  0.00  0.00    +0.008 A 
ATOM      7  C   UNL     1       0.420   1.603  24.194  0.00  0.00    +0.058 A 
ATOM      8  C   UNL     1       1.184   1.705  23.898  0.00  0.00    +0.103 A 
ATOM      9  N   UNL     1       1.512   1.136  23.399  0.00  0.00    -0.229 NA
BRANCH   4   2
ATOM      1  C   UNL     1       0.911  -0.603  22.260  0.00  0.00    +0.114 C 
ATOM      2  N   UNL     1       1.404  -0.104  22.696  0.00  0.00    -0.290 N 
ATOM      3  C   UNL     1       2.223  -0.174  22.632  0.00  0.00    +0.114 C 
ENDBRANCH   4   2
ENDBRANCH  10   7
ENDBRANCH  15  13
BRANCH  19  20
ATOM     20  C   UNL     1      -2.372   3.236  25.411  0.00  0.00    +0.099 C 
BRANCH  20  21
ATOM     21  C   UNL     1      -3.192   3.317  25.438  0.00  0.00    -0.006 A 
ATOM     22  C   UNL     1      -3.555   3.613  26.117  0.00  0.00    -0.001 A 
ATOM     23  C   UNL     1      -4.376   3.694  26.144  0.00  0.00    +0.024 A 
ATOM     24  C   UNL     1      -4.833   3.478  25.492  0.00  0.00    +0.143 A 
ATOM     25  C   UNL     1      -4.470   3.181  24.814  0.00  0.00    +0.024 A 
ATOM     26  C   UNL     1      -3.650   3.100  24.787  0.00  0.00    -0.001 A 
BRANCH  24  27
ATOM     27  N   UNL     1      -5.654   3.558  25.520  0.00  0.00    +0.058 N 
ATOM     28  O   UNL     1      -5.992   4.302  25.637  0.00  0.00    -0.126 OA
ATOM     29  O   UNL     1      -6.136   2.895  25.431  0.00  0.00    -0.126 OA
ENDBRANCH  24  27
ENDBRANCH  20  21
ENDBRANCH  19  20
TORSDOF 6
ENDMDL
MODEL 7
REMARK VINA RESULT:      -9.1      2.256      3.268
REMARK  Name = 
REMARK  6 active torsions:
REMARK  status: ('A' for Active; 'I' for Inactive)
REMARK    1  A    between atoms: N_2  and  C_4
REMARK    2  A    between atoms: C_7  and  C_10
REMARK    3  A    between atoms: C_13  and  C_15
REMARK    4  A    between atoms: N_19  and  C_20
REMARK    5  A    between atoms: C_20  and  C_21
REMARK    6  A    between atoms: C_24  and  N_27
REMARK                            x       y       z     vdW  Elec       q    Type
REMARK                         _______ _______ _______ _____ _____    ______ ____
ROOT
ATOM     15  C   UNL     1      -0.162   0.856  24.530  0.00  0.00    +0.138 C 
ATOM     16  C   UNL     1       0.457   0.819  23.984  0.00  0.00    +0.027 C 
ATOM     17  C   UNL     1       0.742   1.585  23.871  0.00  0.00    +0.019 C 
ATOM     18  C   UNL     1       0.300   2.095  24.345  0.00  0.00    +0.073 C 
ATOM     19  N   UNL     1      -0.259   1.645  24.753  0.00  0.00    -0.263 NA
ENDROOT
BRANCH  15  13
ATOM     10  C   UNL     1      -1.511  -0.762  24.876  0.00  0.00    +0.205 A 
ATOM     11  N   UNL     1      -1.067  -0.773  25.571  0.00  0.00    -0.056 NA
ATOM     12  O   UNL     1      -0.507  -0.168  25.526  0.00  0.00    -0.336 OA
ATOM     13  C   UNL     1      -0.605   0.217  24.803  0.00  0.00    +0.251 A 
ATOM     14  N   UNL     1      -1.226  -0.150  24.401  0.00  0.00    -0.190 NA
BRANCH  10   7
ATOM      4  C   UNL     1      -3.371  -2.295  24.313  0.00  0.00    +0.132 A 
ATOM      5  C   UNL     1      -3.524  -1.500  24.470  0.00  0.00    +0.034 A 
ATOM      6  C   UNL     1      -2.904  -0.989  24.658  0.00  0.00    +0.008 A 
ATOM      7  C   UNL     1      -2.131  -1.273  24.688  0.00  0.00    +0.058 A 
ATOM      8  C   UNL     1      -1.976  -2.068  24.531  0.00  0.00    +0.103 A 
ATOM      9  N   UNL     1      -2.596  -2.579  24.344  0.00  0.00    -0.229 NA
BRANCH   4   2
ATOM      1  C   UNL     1      -4.648  -2.523  23.715  0.00  0.00    +0.114 C 
ATOM      2  N   UNL     1      -3.990  -2.806  24.126  0.00  0.00    -0.290 N 
ATOM      3  C   UNL     1      -3.953  -3.599  24.349  0.00  0.00    +0.114 C 
ENDBRANCH   4   2
ENDBRANCH  10   7
ENDBRANCH  15  13
BRANCH  19  20
ATOM     20  C   UNL     1      -0.816   1.932  25.289  0.00  0.00    +0.099 C 
BRANCH  20  21
ATOM     21  C   UNL     1      -1.024   2.730  25.279  0.00  0.00    -0.006 A 
ATOM     22  C   UNL     1      -1.693   2.977  24.865  0.00  0.00    -0.001 A 
ATOM     23  C   UNL     1      -1.902   3.775  24.856  0.00  0.00    +0.024 A 
ATOM     24  C   UNL     1      -1.440   4.327  25.260  0.00  0.00    +0.143 A 
ATOM     25  C   UNL     1      -0.771   4.080  25.674  0.00  0.00    +0.024 A 
ATOM     26  C   UNL     1      -0.562   3.282  25.683  0.00  0.00    -0.001 A 
BRANCH  24  27
ATOM     27  N   UNL     1      -1.649   5.125  25.251  0.00  0.00    +0.058 N 
ATOM     28  O   UNL     1      -2.355   5.372  25.600  0.00  0.00    -0.126 OA
ATOM     29  O   UNL     1      -1.151   5.676  24.891  0.00  0.00    -0.126 OA
ENDBRANCH  24  27
ENDBRANCH  20  21
ENDBRANCH  19  20
TORSDOF 6
ENDMDL
MODEL 8
REMARK VINA RESULT:      -9.1      3.081      4.886
REMARK  Name = 
REMARK  6 active torsions:
REMARK  status: ('A' for Active; 'I' for Inactive)
REMARK    1  A    between atoms: N_2  and  C_4
REMARK    2  A    between atoms: C_7  and  C_10
REMARK    3  A    between atoms: C_13  and  C_15
REMARK    4  A    between atoms: N_19  and  C_20
REMARK    5  A    between atoms: C_20  and  C_21
REMARK    6  A    between atoms: C_24  and  N_27
REMARK                            x       y       z     vdW  Elec       q    Type
REMARK                         _______ _______ _______ _____ _____    ______ ____
ROOT
ATOM     15  C   UNL     1      -1.634  -0.644  24.780  0.00  0.00    +0.138 C 
ATOM     16  C   UNL     1      -1.538  -1.246  25.337  0.00  0.00    +0.027 C 
ATOM     17  C   UNL     1      -0.741  -1.458  25.348  0.00  0.00    +0.019 C 
ATOM     18  C   UNL     1      -0.344  -0.987  24.798  0.00  0.00    +0.073 C 
ATOM     19  N   UNL     1      -0.897  -0.484  24.447  0.00  0.00    -0.263 NA
ENDROOT
BRANCH  15  13
ATOM     10  C   UNL     1      -3.384   0.567  24.618  0.00  0.00    +0.205 A 
ATOM     11  N   UNL     1      -3.488   0.051  23.981  0.00  0.00    -0.056 NA
ATOM     12  O   UNL     1      -2.845  -0.465  23.965  0.00  0.00    -0.336 OA
ATOM     13  C   UNL     1      -2.344  -0.269  24.591  0.00  0.00    +0.251 A 
ATOM     14  N   UNL     1      -2.678   0.369  24.994  0.00  0.00    -0.190 NA
BRANCH  10   7
ATOM      4  C   UNL     1      -4.925   2.388  25.279  0.00  0.00    +0.132 A 
ATOM      5  C   UNL     1      -5.187   1.606  25.274  0.00  0.00    +0.034 A 
ATOM      6  C   UNL     1      -4.674   0.999  25.054  0.00  0.00    +0.008 A 
ATOM      7  C   UNL     1      -3.898   1.174  24.838  0.00  0.00    +0.058 A 
ATOM      8  C   UNL     1      -3.634   1.956  24.842  0.00  0.00    +0.103 A 
ATOM      9  N   UNL     1      -4.147   2.563  25.062  0.00  0.00    -0.229 NA
BRANCH   4   2
ATOM      1  C   UNL     1      -6.174   2.814  25.825  0.00  0.00    +0.114 C 
ATOM      2  N   UNL     1      -5.438   2.995  25.499  0.00  0.00    -0.290 N 
ATOM      3  C   UNL     1      -5.216   3.782  25.394  0.00  0.00    +0.114 C 
ENDBRANCH   4   2
ENDBRANCH  10   7
ENDBRANCH  15  13
BRANCH  19  20
ATOM     20  C   UNL     1      -0.739   0.079  23.866  0.00  0.00    +0.099 C 
BRANCH  20  21
ATOM     21  C   UNL     1       0.035   0.205  23.612  0.00  0.00    -0.006 A 
ATOM     22  C   UNL     1       0.473   0.833  23.918  0.00  0.00    -0.001 A 
ATOM     23  C   UNL     1       1.248   0.959  23.664  0.00  0.00    +0.024 A 
ATOM     24  C   UNL     1       1.585   0.455  23.104  0.00  0.00    +0.143 A 
ATOM     25  C   UNL     1       1.148  -0.173  22.798  0.00  0.00    +0.024 A 
ATOM     26  C   UNL     1       0.373  -0.299  23.052  0.00  0.00    -0.001 A 
BRANCH  24  27
ATOM     27  N   UNL     1       2.360   0.581  22.850  0.00  0.00    +0.058 N 
ATOM     28  O   UNL     1       2.679   0.113  22.250  0.00  0.00    -0.126 OA
ATOM     29  O   UNL     1       2.816   1.175  23.197  0.00  0.00    -0.126 OA
ENDBRANCH  24  27
ENDBRANCH  20  21
ENDBRANCH  19  20
TORSDOF 6
ENDMDL
