MODEL 1
REMARK VINA RESULT:     -11.7      0.000      0.000
REMARK  Name = 
REMARK  4 active torsions:
REMARK  status: ('A' for Active; 'I' for Inactive)
REMARK    1  A    between atoms: C_2  and  C_4
REMARK    2  A    between atoms: C_7  and  N_10
REMARK    3  A    between atoms: C_15  and  N_21
REMARK    4  A    between atoms: C_22  and  C_24
REMARK                            x       y       z     vdW  Elec       q    Type
REMARK                         _______ _______ _______ _____ _____    ______ ____
ROOT
ATOM     10  N   UNL     1      -3.689   0.375  24.659  0.00  0.00    -0.191 N 
ATOM     11  C   UNL     1      -3.051   0.853  24.446  0.00  0.00    +0.254 C 
ATOM     12  O   UNL     1      -2.344   0.594  24.110  0.00  0.00    -0.272 OA
ATOM     13  C   UNL     1      -3.245   1.633  24.627  0.00  0.00    +0.156 C 
ATOM     14  C   UNL     1      -2.830   2.341  24.538  0.00  0.00    +0.051 C 
ATOM     15  C   UNL     1      -3.173   3.053  24.774  0.00  0.00    +0.100 C 
ATOM     16  C   UNL     1      -3.931   3.058  25.100  0.00  0.00    +0.043 C 
ATOM     17  C   UNL     1      -4.346   2.351  25.189  0.00  0.00    +0.097 C 
ATOM     18  N   UNL     1      -4.003   1.638  24.953  0.00  0.00    -0.257 N 
ATOM     19  C   UNL     1      -4.278   0.861  24.973  0.00  0.00    +0.317 C 
ATOM     20  O   UNL     1      -5.012   0.612  25.256  0.00  0.00    -0.252 OA
ENDROOT
BRANCH  10   7
ATOM      4  C   UNL     1      -3.815  -2.084  24.405  0.00  0.00    -0.022 A 
ATOM      5  C   UNL     1      -3.511  -1.756  25.098  0.00  0.00    -0.003 A 
ATOM      6  C   UNL     1      -3.469  -0.937  25.183  0.00  0.00    +0.015 A 
ATOM      7  C   UNL     1      -3.731  -0.445  24.574  0.00  0.00    +0.062 A 
ATOM      8  C   UNL     1      -4.035  -0.773  23.882  0.00  0.00    +0.015 A 
ATOM      9  C   UNL     1      -4.077  -1.593  23.797  0.00  0.00    -0.003 A 
BRANCH   4   2
ATOM      1  C   UNL     1      -3.340  -3.389  24.741  0.00  0.00    +0.005 C 
ATOM      2  C   UNL     1      -3.857  -2.903  24.320  0.00  0.00    +0.022 C 
ATOM      3  C   UNL     1      -4.417  -3.238  23.813  0.00  0.00    +0.005 C 
ENDBRANCH   4   2
ENDBRANCH  10   7
BRANCH  15  21
ATOM     21  N   UNL     1      -2.758   3.760  24.685  0.00  0.00    -0.203 NA
ATOM     22  C   UNL     1      -2.163   3.959  25.221  0.00  0.00    +0.273 C 
ATOM     23  O   UNL     1      -1.983   3.450  25.846  0.00  0.00    -0.268 OA
BRANCH  22  24
ATOM     24  C   UNL     1      -1.747   4.666  25.133  0.00  0.00    +0.119 A 
ATOM     25  C   UNL     1      -0.944   4.739  24.961  0.00  0.00    +0.093 A 
ATOM     26  C   UNL     1      -0.415   4.117  24.846  0.00  0.00    +0.055 C 
ATOM     27  N   UNL     1      -0.763   5.543  24.923  0.00  0.00    -0.145 NA
ATOM     28  N   UNL     1      -1.455   5.968  25.072  0.00  0.00    -0.110 NA
ATOM     29  S   UNL     1      -2.063   5.426  25.202  0.00  0.00    +0.042 S 
ENDBRANCH  22  24
ENDBRANCH  15  21
TORSDOF 4
ENDMDL
MODEL 2
REMARK VINA RESULT:     -10.7      2.348      6.068
REMARK  Name = 
REMARK  4 active torsions:
REMARK  status: ('A' for Active; 'I' for Inactive)
REMARK    1  A    between atoms: C_2  and  C_4
REMARK    2  A    between atoms: C_7  and  N_10
REMARK    3  A    between atoms: C_15  and  N_21
REMARK    4  A    between atoms: C_22  and  C_24
REMARK                            x       y       z     vdW  Elec       q    Type
REMARK                         _______ _______ _______ _____ _____    ______ ____
ROOT
ATOM     10  N   UNL     1      -1.472   2.083  25.109  0.00  0.00    -0.191 N 
ATOM     11  C   UNL     1      -1.962   1.614  24.640  0.00  0.00    +0.254 C 
ATOM     12  O   UNL     1      -2.485   1.885  24.062  0.00  0.00    -0.272 OA
ATOM     13  C   UNL     1      -1.838   0.826  24.850  0.00  0.00    +0.156 C 
ATOM     14  C   UNL     1      -2.167   0.122  24.574  0.00  0.00    +0.051 C 
ATOM     15  C   UNL     1      -1.930  -0.599  24.896  0.00  0.00    +0.100 C 
ATOM     16  C   UNL     1      -1.364  -0.616  25.495  0.00  0.00    +0.043 C 
ATOM     17  C   UNL     1      -1.034   0.087  25.772  0.00  0.00    +0.097 C 
ATOM     18  N   UNL     1      -1.271   0.809  25.449  0.00  0.00    -0.257 N 
ATOM     19  C   UNL     1      -1.045   1.585  25.609  0.00  0.00    +0.317 C 
ATOM     20  O   UNL     1      -0.489   1.823  26.171  0.00  0.00    -0.252 OA
ENDROOT
BRANCH  10   7
ATOM      4  C   UNL     1      -1.312   4.552  25.029  0.00  0.00    -0.022 A 
ATOM      5  C   UNL     1      -1.925   4.192  25.448  0.00  0.00    -0.003 A 
ATOM      6  C   UNL     1      -1.979   3.369  25.475  0.00  0.00    +0.015 A 
ATOM      7  C   UNL     1      -1.419   2.906  25.083  0.00  0.00    +0.062 A 
ATOM      8  C   UNL     1      -0.806   3.267  24.664  0.00  0.00    +0.015 A 
ATOM      9  C   UNL     1      -0.752   4.090  24.638  0.00  0.00    -0.003 A 
BRANCH   4   2
ATOM      1  C   UNL     1      -1.893   5.838  25.255  0.00  0.00    +0.005 C 
ATOM      2  C   UNL     1      -1.258   5.375  25.003  0.00  0.00    +0.022 C 
ATOM      3  C   UNL     1      -0.570   5.735  24.724  0.00  0.00    +0.005 C 
ENDBRANCH   4   2
ENDBRANCH  10   7
BRANCH  15  21
ATOM     21  N   UNL     1      -2.260  -1.303  24.620  0.00  0.00    -0.203 NA
ATOM     22  C   UNL     1      -2.989  -1.558  24.909  0.00  0.00    +0.273 C 
ATOM     23  O   UNL     1      -3.389  -1.109  25.474  0.00  0.00    -0.268 OA
BRANCH  22  24
ATOM     24  C   UNL     1      -3.320  -2.262  24.634  0.00  0.00    +0.119 A 
ATOM     25  C   UNL     1      -3.973  -2.329  24.135  0.00  0.00    +0.093 A 
ATOM     26  C   UNL     1      -4.411  -1.703  23.823  0.00  0.00    +0.055 C 
ATOM     27  N   UNL     1      -4.111  -3.131  24.002  0.00  0.00    -0.145 NA
ATOM     28  N   UNL     1      -3.543  -3.561  24.420  0.00  0.00    -0.110 NA
ATOM     29  S   UNL     1      -3.054  -3.023  24.810  0.00  0.00    +0.042 S 
ENDBRANCH  22  24
ENDBRANCH  15  21
TORSDOF 4
ENDMDL
MODEL 3
REMARK VINA RESULT:      -9.3      3.409      4.646
REMARK  Name = 
REMARK  4 active torsions:
REMARK  status: ('A' for Active; 'I' for Inactive)
REMARK    1  A    between atoms: C_2  and  C_4
REMARK    2  A    between atoms: C_7  and  N_10
REMARK    3  A    between atoms: C_15  and  N_21
REMARK    4  A    between atoms: C_22  and  C_24
REMARK                            x       y       z     vdW  Elec       q    Type
REMARK                         _______ _______ _______ _____ _____    ______ ____
ROOT
ATOM     10  N   UNL     1      -2.631   1.207  24.669  0.00  0.00    -0.191 N 
ATOM     11  C   UNL     1      -2.067   1.535  24.164  0.00  0.00    +0.254 C 
ATOM     12  O   UNL     1      -2.166   2.208  23.698  0.00  0.00    -0.272 OA
ATOM     13  C   UNL     1      -1.386   1.072  24.208  0.00  0.00    +0.156 C 
ATOM     14  C   UNL     1      -0.654   1.129  23.832  0.00  0.00    +0.051 C 
ATOM     15  C   UNL     1      -0.065   0.573  23.988  0.00  0.00    +0.100 C 
ATOM     16  C   UNL     1      -0.208  -0.041  24.519  0.00  0.00    +0.043 C 
ATOM     17  C   UNL     1      -0.940  -0.100  24.895  0.00  0.00    +0.097 C 
ATOM     18  N   UNL     1      -1.529   0.457  24.739  0.00  0.00    -0.257 N 
ATOM     19  C   UNL     1      -2.299   0.541  25.024  0.00  0.00    +0.317 C 
ATOM     20  O   UNL     1      -2.671   0.045  25.569  0.00  0.00    -0.252 OA
ENDROOT
BRANCH  10   7
ATOM      4  C   UNL     1      -4.919   2.070  25.050  0.00  0.00    -0.022 A 
ATOM      5  C   UNL     1      -4.271   2.464  25.375  0.00  0.00    -0.003 A 
ATOM      6  C   UNL     1      -3.508   2.176  25.248  0.00  0.00    +0.015 A 
ATOM      7  C   UNL     1      -3.394   1.495  24.796  0.00  0.00    +0.062 A 
ATOM      8  C   UNL     1      -4.043   1.102  24.472  0.00  0.00    +0.015 A 
ATOM      9  C   UNL     1      -4.805   1.389  24.599  0.00  0.00    -0.003 A 
BRANCH   4   2
ATOM      1  C   UNL     1      -5.792   3.097  25.526  0.00  0.00    +0.005 C 
ATOM      2  C   UNL     1      -5.682   2.358  25.177  0.00  0.00    +0.022 C 
ATOM      3  C   UNL     1      -6.336   1.906  24.954  0.00  0.00    +0.005 C 
ENDBRANCH   4   2
ENDBRANCH  10   7
BRANCH  15  21
ATOM     21  N   UNL     1       0.668   0.631  23.612  0.00  0.00    -0.203 NA
ATOM     22  C   UNL     1       0.930   0.019  23.124  0.00  0.00    +0.273 C 
ATOM     23  O   UNL     1       0.459  -0.650  23.012  0.00  0.00    -0.268 OA
BRANCH  22  24
ATOM     24  C   UNL     1       1.662   0.076  22.749  0.00  0.00    +0.119 A 
ATOM     25  C   UNL     1       1.832  -0.168  21.980  0.00  0.00    +0.093 A 
ATOM     26  C   UNL     1       1.300  -0.511  21.450  0.00  0.00    +0.055 C 
ATOM     27  N   UNL     1       2.628  -0.009  21.832  0.00  0.00    -0.145 NA
ATOM     28  N   UNL     1       2.950   0.334  22.511  0.00  0.00    -0.110 NA
ATOM     29  S   UNL     1       2.352   0.386  23.077  0.00  0.00    +0.042 S 
ENDBRANCH  22  24
ENDBRANCH  15  21
TORSDOF 4
ENDMDL
MODEL 4
REMARK VINA RESULT:      -8.6      3.083      4.613
REMARK  Name = 
REMARK  4 active torsions:
REMARK  status: ('A' for Active; 'I' for Inactive)
REMARK    1  A    between atoms: C_2  and  C_4
REMARK    2  A    between atoms: C_7  and  N_10
REMARK    3  A    between atoms: C_15  and  N_21
REMARK    4  A    between atoms: C_22  and  C_24
REMARK                            x       y       z     vdW  Elec       q    Type
REMARK                         _______ _______ _______ _____ _____    ______ ____
ROOT
ATOM     10  N   UNL     1      -0.514   0.388  23.889  0.00  0.00    -0.191 N 
ATOM     11  C   UNL     1      -1.130   0.882  23.650  0.00  0.00    +0.254 C 
ATOM     12  O   UNL     1      -1.093   1.450  23.053  0.00  0.00    -0.272 OA
ATOM     13  C   UNL     1      -1.789   0.709  24.114  0.00  0.00    +0.156 C 
ATOM     14  C   UNL     1      -2.553   1.021  24.127  0.00  0.00    +0.051 C 
ATOM     15  C   UNL     1      -3.108   0.733  24.664  0.00  0.00    +0.100 C 
ATOM     16  C   UNL     1      -2.900   0.131  25.189  0.00  0.00    +0.043 C 
ATOM     17  C   UNL     1      -2.136  -0.181  25.177  0.00  0.00    +0.097 C 
ATOM     18  N   UNL     1      -1.581   0.108  24.639  0.00  0.00    -0.257 N 
ATOM     19  C   UNL     1      -0.793  -0.091  24.500  0.00  0.00    +0.317 C 
ATOM     20  O   UNL     1      -0.360  -0.667  24.901  0.00  0.00    -0.252 OA
ENDROOT
BRANCH  10   7
ATOM      4  C   UNL     1       1.770   0.347  22.936  0.00  0.00    -0.022 A 
ATOM      5  C   UNL     1       1.562   0.930  23.482  0.00  0.00    -0.003 A 
ATOM      6  C   UNL     1       0.800   0.943  23.799  0.00  0.00    +0.015 A 
ATOM      7  C   UNL     1       0.248   0.374  23.571  0.00  0.00    +0.062 A 
ATOM      8  C   UNL     1       0.457  -0.208  23.026  0.00  0.00    +0.015 A 
ATOM      9  C   UNL     1       1.219  -0.222  22.708  0.00  0.00    -0.003 A 
BRANCH   4   2
ATOM      1  C   UNL     1       2.676  -0.061  21.909  0.00  0.00    +0.005 C 
ATOM      2  C   UNL     1       2.532   0.333  22.619  0.00  0.00    +0.022 C 
ATOM      3  C   UNL     1       3.150   0.715  23.011  0.00  0.00    +0.005 C 
ENDBRANCH   4   2
ENDBRANCH  10   7
BRANCH  15  21
ATOM     21  N   UNL     1      -3.872   1.045  24.677  0.00  0.00    -0.203 NA
ATOM     22  C   UNL     1      -4.038   1.707  25.140  0.00  0.00    +0.273 C 
ATOM     23  O   UNL     1      -3.441   2.057  25.590  0.00  0.00    -0.268 OA
BRANCH  22  24
ATOM     24  C   UNL     1      -4.801   2.020  25.154  0.00  0.00    +0.119 A 
ATOM     25  C   UNL     1      -4.997   2.817  25.227  0.00  0.00    +0.093 A 
ATOM     26  C   UNL     1      -4.465   3.443  25.298  0.00  0.00    +0.055 C 
ATOM     27  N   UNL     1      -5.820   2.880  25.215  0.00  0.00    -0.145 NA
ATOM     28  N   UNL     1      -6.133   2.120  25.135  0.00  0.00    -0.110 NA
ATOM     29  S   UNL     1      -5.503   1.589  25.098  0.00  0.00    +0.042 S 
ENDBRANCH  22  24
ENDBRANCH  15  21
TORSDOF 4
ENDMDL
