MODEL 1
REMARK VINA RESULT:      -9.7      0.000      0.000
REMARK  Name = 
REMARK  3 active torsions:
REMARK  status: ('A' for Active; 'I' for Inactive)
REMARK    1  A    between atoms: C_3  and  C_4
REMARK    2  A    between atoms: C_6  and  C_11
REMARK    3  A    between atoms: C_14  and  N_15
REMARK                            x       y       z     vdW  Elec       q    Type
REMARK                         _______ _______ _______ _____ _____    ______ ____
ROOT
ATOM      1  C   UNL     1      -5.047   3.112  25.136  0.00  0.00    +0.115 C 
ATOM      2  N   UNL     1      -4.375   2.655  24.990  0.00  0.00    -0.272 N 
ATOM      3  C   UNL     1      -4.440   1.836  24.925  0.00  0.00    +0.140 C 
ATOM      6  C   UNL     1      -3.769   1.379  24.778  0.00  0.00    +0.159 C 
ATOM      7  O   UNL     1      -3.032   1.742  24.697  0.00  0.00    -0.341 OA
ATOM      8  C   UNL     1      -2.968   2.562  24.762  0.00  0.00    +0.227 C 
ATOM      9  C   UNL     1      -3.639   3.019  24.908  0.00  0.00    +0.256 C 
ATOM     10  O   UNL     1      -3.573   3.839  24.973  0.00  0.00    -0.272 OA
ENDROOT
BRANCH   6  11
ATOM     11  C   UNL     1      -3.833   0.559  24.713  0.00  0.00    +0.006 A 
ATOM     12  C   UNL     1      -3.911   0.210  23.969  0.00  0.00    -0.001 A 
ATOM     13  C   UNL     1      -3.975  -0.610  23.904  0.00  0.00    +0.016 A 
ATOM     14  C   UNL     1      -3.961  -1.080  24.581  0.00  0.00    +0.073 A 
ATOM     19  C   UNL     1      -3.883  -0.731  25.324  0.00  0.00    +0.016 A 
ATOM     20  C   UNL     1      -3.819   0.089  25.390  0.00  0.00    -0.001 A 
BRANCH  14  15
ATOM     15  N   UNL     1      -4.026  -1.901  24.515  0.00  0.00    -0.179 NA
ATOM     16  C   UNL     1      -3.346  -2.363  24.444  0.00  0.00    +0.246 C 
ATOM     17  C   UNL     1      -3.411  -3.183  24.379  0.00  0.00    +0.097 C 
ATOM     18  O   UNL     1      -2.603  -2.006  24.439  0.00  0.00    -0.273 OA
ENDBRANCH  14  15
ENDBRANCH   6  11
BRANCH   3   4
ATOM      4  C   UNL     1      -5.175   1.472  25.006  0.00  0.00    +0.205 C 
ATOM      5  O   UNL     1      -5.867   1.910  24.899  0.00  0.00    -0.218 OA
ENDBRANCH   3   4
TORSDOF 3
ENDMDL
MODEL 2
REMARK VINA RESULT:      -9.4      1.033      4.260
REMARK  Name = 
REMARK  3 active torsions:
REMARK  status: ('A' for Active; 'I' for Inactive)
REMARK    1  A    between atoms: C_3  and  C_4
REMARK    2  A    between atoms: C_6  and  C_11
REMARK    3  A    between atoms: C_14  and  N_15
REMARK                            x       y       z     vdW  Elec       q    Type
REMARK                         _______ _______ _______ _____ _____    ______ ____
ROOT
ATOM      1  C   UNL     1      -2.390  -2.161  25.005  0.00  0.00    +0.115 C 
ATOM      2  N   UNL     1      -3.059  -1.828  24.653  0.00  0.00    -0.272 N 
ATOM      3  C   UNL     1      -3.184  -1.014  24.694  0.00  0.00    +0.140 C 
ATOM      6  C   UNL     1      -3.852  -0.681  24.342  0.00  0.00    +0.159 C 
ATOM      7  O   UNL     1      -4.395  -1.162  23.949  0.00  0.00    -0.341 OA
ATOM      8  C   UNL     1      -4.269  -1.977  23.909  0.00  0.00    +0.227 C 
ATOM      9  C   UNL     1      -3.602  -2.310  24.260  0.00  0.00    +0.256 C 
ATOM     10  O   UNL     1      -3.477  -3.125  24.219  0.00  0.00    -0.272 OA
ENDROOT
BRANCH   6  11
ATOM     11  C   UNL     1      -3.977   0.133  24.382  0.00  0.00    +0.006 A 
ATOM     12  C   UNL     1      -4.485   0.444  24.955  0.00  0.00    -0.001 A 
ATOM     13  C   UNL     1      -4.610   1.258  24.995  0.00  0.00    +0.016 A 
ATOM     14  C   UNL     1      -4.230   1.761  24.465  0.00  0.00    +0.073 A 
ATOM     19  C   UNL     1      -3.723   1.451  23.893  0.00  0.00    +0.016 A 
ATOM     20  C   UNL     1      -3.597   0.636  23.852  0.00  0.00    -0.001 A 
BRANCH  14  15
ATOM     15  N   UNL     1      -4.356   2.576  24.506  0.00  0.00    -0.179 NA
ATOM     16  C   UNL     1      -3.846   3.051  24.947  0.00  0.00    +0.246 C 
ATOM     17  C   UNL     1      -3.972   3.865  24.988  0.00  0.00    +0.097 C 
ATOM     18  O   UNL     1      -3.209   2.711  25.348  0.00  0.00    -0.273 OA
ENDBRANCH  14  15
ENDBRANCH   6  11
BRANCH   3   4
ATOM      4  C   UNL     1      -2.642  -0.533  25.086  0.00  0.00    +0.205 C 
ATOM      5  O   UNL     1      -2.208  -0.831  25.722  0.00  0.00    -0.218 OA
ENDBRANCH   3   4
TORSDOF 3
ENDMDL
