MODEL 1
REMARK VINA RESULT:     -10.3      0.000      0.000
REMARK  Name = 
REMARK  6 active torsions:
REMARK  status: ('A' for Active; 'I' for Inactive)
REMARK    1  A    between atoms: C_2  and  C_3
REMARK    2  A    between atoms: C_3  and  O_4
REMARK    3  A    between atoms: O_4  and  C_5
REMARK    4  A    between atoms: N_11  and  C_12
REMARK    5  A    between atoms: C_16  and  N_20
REMARK    6  A    between atoms: C_23  and  C_27
REMARK                            x       y       z     vdW  Elec       q    Type
REMARK                         _______ _______ _______ _____ _____    ______ ____
ROOT
ATOM     12  C   UNL     1       0.529   0.784  23.768  0.00  0.00    +0.154 C 
ATOM     13  C   UNL     1       0.045   0.181  23.482  0.00  0.00    +0.166 C 
ATOM     14  O   UNL     1      -0.711   0.293  23.792  0.00  0.00    -0.350 OA
ATOM     15  C   UNL     1      -0.695   0.966  24.268  0.00  0.00    +0.166 C 
ATOM     16  C   UNL     1      -1.151   1.452  24.755  0.00  0.00    +0.154 C 
ATOM     17  C   UNL     1      -0.667   2.055  25.040  0.00  0.00    +0.166 C 
ATOM     18  O   UNL     1       0.089   1.943  24.731  0.00  0.00    -0.350 OA
ATOM     19  C   UNL     1       0.072   1.269  24.254  0.00  0.00    +0.166 C 
ENDROOT
BRANCH  16  20
ATOM     20  N   UNL     1      -1.952   1.351  24.925  0.00  0.00    -0.200 NA
ATOM     21  C   UNL     1      -2.478   1.979  24.824  0.00  0.00    +0.236 A 
ATOM     22  N   UNL     1      -3.278   1.879  24.995  0.00  0.00    -0.217 NA
ATOM     23  C   UNL     1      -3.804   2.507  24.894  0.00  0.00    +0.063 A 
ATOM     24  C   UNL     1      -3.528   3.236  24.623  0.00  0.00    +0.035 A 
ATOM     25  C   UNL     1      -2.727   3.337  24.453  0.00  0.00    +0.103 A 
ATOM     26  N   UNL     1      -2.202   2.708  24.553  0.00  0.00    -0.211 NA
BRANCH  23  27
ATOM     27  C   UNL     1      -4.604   2.407  25.064  0.00  0.00    +0.040 C 
ATOM     28  C   UNL     1      -5.129   1.917  24.657  0.00  0.00    +0.006 C 
ATOM     29  C   UNL     1      -5.870   1.987  25.013  0.00  0.00    +0.000 C 
ATOM     30  C   UNL     1      -5.804   2.519  25.639  0.00  0.00    +0.000 C 
ATOM     31  C   UNL     1      -5.021   2.779  25.671  0.00  0.00    +0.006 C 
ENDBRANCH  23  27
ENDBRANCH  16  20
BRANCH  12  11
ATOM      1  O   UNL     1       1.290  -0.256  22.738  0.00  0.00    -0.269 OA
ATOM      2  C   UNL     1       1.711   0.365  23.082  0.00  0.00    +0.286 C 
ATOM     11  N   UNL     1       1.330   0.885  23.598  0.00  0.00    -0.199 NA
BRANCH   2   3
ATOM      3  C   UNL     1       2.512   0.465  22.912  0.00  0.00    +0.291 C 
BRANCH   3   4
ATOM      4  O   UNL     1       3.018  -0.186  22.911  0.00  0.00    -0.466 OA
BRANCH   4   5
ATOM      5  C   UNL     1       3.811  -0.093  23.116  0.00  0.00    +0.139 A 
ATOM      6  C   UNL     1       4.206  -0.694  23.521  0.00  0.00    +0.037 A 
ATOM      7  C   UNL     1       5.000  -0.600  23.727  0.00  0.00    +0.003 A 
ATOM      8  C   UNL     1       5.399   0.094  23.529  0.00  0.00    +0.000 A 
ATOM      9  C   UNL     1       5.003   0.695  23.124  0.00  0.00    +0.003 A 
ATOM     10  C   UNL     1       4.210   0.602  22.918  0.00  0.00    +0.037 A 
ENDBRANCH   4   5
ENDBRANCH   3   4
ENDBRANCH   2   3
ENDBRANCH  12  11
TORSDOF 6
ENDMDL
MODEL 2
REMARK VINA RESULT:      -9.1      1.134      7.270
REMARK  Name = 
REMARK  6 active torsions:
REMARK  status: ('A' for Active; 'I' for Inactive)
REMARK    1  A    between atoms: C_2  and  C_3
REMARK    2  A    between atoms: C_3  and  O_4
REMARK    3  A    between atoms: O_4  and  C_5
REMARK    4  A    between atoms: N_11  and  C_12
REMARK    5  A    between atoms: C_16  and  N_20
REMARK    6  A    between atoms: C_23  and  C_27
REMARK                            x       y       z     vdW  Elec       q    Type
REMARK                         _______ _______ _______ _____ _____    ______ ____
ROOT
ATOM     12  C   UNL     1      -1.426   2.404  24.172  0.00  0.00    +0.154 C 
ATOM     13  C   UNL     1      -0.949   3.071  24.260  0.00  0.00    +0.166 C 
ATOM     14  O   UNL     1      -0.162   2.828  24.230  0.00  0.00    -0.350 OA
ATOM     15  C   UNL     1      -0.151   2.011  24.122  0.00  0.00    +0.166 C 
ATOM     16  C   UNL     1       0.341   1.354  24.037  0.00  0.00    +0.154 C 
ATOM     17  C   UNL     1      -0.135   0.687  23.948  0.00  0.00    +0.166 C 
ATOM     18  O   UNL     1      -0.923   0.930  23.978  0.00  0.00    -0.350 OA
ATOM     19  C   UNL     1      -0.933   1.749  24.086  0.00  0.00    +0.166 C 
ENDROOT
BRANCH  16  20
ATOM     20  N   UNL     1       1.166   1.364  24.039  0.00  0.00    -0.200 NA
ATOM     21  C   UNL     1       1.587   0.898  23.504  0.00  0.00    +0.236 A 
ATOM     22  N   UNL     1       2.411   0.907  23.506  0.00  0.00    -0.217 NA
ATOM     23  C   UNL     1       2.831   0.441  22.971  0.00  0.00    +0.063 A 
ATOM     24  C   UNL     1       2.426  -0.035  22.433  0.00  0.00    +0.035 A 
ATOM     25  C   UNL     1       1.601  -0.045  22.430  0.00  0.00    +0.103 A 
ATOM     26  N   UNL     1       1.182   0.422  22.966  0.00  0.00    -0.211 NA
BRANCH  23  27
ATOM     27  C   UNL     1       3.656   0.451  22.974  0.00  0.00    +0.040 C 
ATOM     28  C   UNL     1       4.147  -0.131  23.294  0.00  0.00    +0.006 C 
ATOM     29  C   UNL     1       4.929   0.102  23.174  0.00  0.00    +0.000 C 
ATOM     30  C   UNL     1       4.922   0.827  22.781  0.00  0.00    +0.000 C 
ATOM     31  C   UNL     1       4.135   1.042  22.657  0.00  0.00    +0.006 C 
ENDBRANCH  23  27
ENDBRANCH  16  20
BRANCH  12  11
ATOM      1  O   UNL     1      -2.265   3.281  25.289  0.00  0.00    -0.269 OA
ATOM      2  C   UNL     1      -2.671   2.833  24.727  0.00  0.00    +0.286 C 
ATOM     11  N   UNL     1      -2.251   2.394  24.169  0.00  0.00    -0.199 NA
BRANCH   2   3
ATOM      3  C   UNL     1      -3.495   2.823  24.725  0.00  0.00    +0.291 C 
BRANCH   3   4
ATOM      4  O   UNL     1      -3.907   2.547  25.384  0.00  0.00    -0.466 OA
BRANCH   4   5
ATOM      5  C   UNL     1      -4.720   2.417  25.338  0.00  0.00    +0.139 A 
ATOM      6  C   UNL     1      -5.245   2.987  25.621  0.00  0.00    +0.037 A 
ATOM      7  C   UNL     1      -6.059   2.858  25.575  0.00  0.00    +0.003 A 
ATOM      8  C   UNL     1      -6.348   2.158  25.247  0.00  0.00    +0.000 A 
ATOM      9  C   UNL     1      -5.822   1.588  24.965  0.00  0.00    +0.003 A 
ATOM     10  C   UNL     1      -5.009   1.718  25.010  0.00  0.00    +0.037 A 
ENDBRANCH   4   5
ENDBRANCH   3   4
ENDBRANCH   2   3
ENDBRANCH  12  11
TORSDOF 6
ENDMDL
