MODEL 1
REMARK VINA RESULT:     -12.6      0.000      0.000
REMARK  Name = 
REMARK  6 active torsions:
REMARK  status: ('A' for Active; 'I' for Inactive)
REMARK    1  A    between atoms: C_2  and  C_5
REMARK    2  A    between atoms: C_8  and  C_11
REMARK    3  A    between atoms: N_13  and  C_14
REMARK    4  A    between atoms: C_14  and  C_15
REMARK    5  A    between atoms: C_22  and  C_23
REMARK    6  A    between atoms: C_23  and  N_24
REMARK                            x       y       z     vdW  Elec       q    Type
REMARK                         _______ _______ _______ _____ _____    ______ ____
ROOT
ATOM     14  C   UNL     1      -3.954   1.620  24.042  0.00  0.00    +0.131 C 
ENDROOT
BRANCH  14  15
ATOM     15  C   UNL     1      -3.878   2.260  24.557  0.00  0.00    +0.079 C 
ATOM     16  C   UNL     1      -4.145   2.752  25.098  0.00  0.00    +0.018 C 
ATOM     17  C   UNL     1      -3.726   3.359  25.432  0.00  0.00    +0.005 C 
ATOM     18  C   UNL     1      -4.214   3.809  26.035  0.00  0.00    +0.017 C 
ATOM     19  C   UNL     1      -4.099   3.347  25.588  0.00  0.00    +0.072 C 
ATOM     20  N   UNL     1      -3.457   2.881  24.902  0.00  0.00    -0.272 NA
ATOM     21  C   UNL     1      -2.605   3.183  24.780  0.00  0.00    +0.073 C 
ATOM     22  C   UNL     1      -2.905   3.644  25.310  0.00  0.00    +0.032 C 
BRANCH  22  23
ATOM     23  C   UNL     1      -2.535   4.277  25.688  0.00  0.00    +0.073 C 
BRANCH  23  24
ATOM     24  N   UNL     1      -1.834   4.586  25.384  0.00  0.00    -0.273 NA
ATOM     25  C   UNL     1      -1.736   5.338  25.059  0.00  0.00    +0.072 C 
ATOM     26  C   UNL     1      -0.948   5.415  24.825  0.00  0.00    +0.019 C 
ATOM     27  C   UNL     1      -0.560   4.709  25.004  0.00  0.00    +0.019 C 
ATOM     28  C   UNL     1      -1.107   4.197  25.350  0.00  0.00    +0.072 C 
ENDBRANCH  23  24
ENDBRANCH  22  23
ENDBRANCH  14  15
BRANCH  14  13
ATOM     11  C   UNL     1      -3.695   0.230  23.836  0.00  0.00    +0.265 C 
ATOM     12  O   UNL     1      -3.507   0.382  23.048  0.00  0.00    -0.268 OA
ATOM     13  N   UNL     1      -3.918   0.849  24.334  0.00  0.00    -0.200 NA
BRANCH  11   8
ATOM      5  C   UNL     1      -3.587  -2.082  24.711  0.00  0.00    +0.071 A 
ATOM      6  C   UNL     1      -4.163  -1.877  24.156  0.00  0.00    +0.004 A 
ATOM      7  C   UNL     1      -4.199  -1.107  23.865  0.00  0.00    +0.005 A 
ATOM      8  C   UNL     1      -3.659  -0.540  24.128  0.00  0.00    +0.055 A 
ATOM      9  C   UNL     1      -3.084  -0.745  24.682  0.00  0.00    +0.005 A 
ATOM     10  C   UNL     1      -3.048  -1.516  24.974  0.00  0.00    +0.004 A 
BRANCH   5   2
ATOM      1  F   UNL     1      -3.517  -3.624  25.294  0.00  0.00    -0.166 F 
ATOM      2  C   UNL     1      -3.552  -2.853  25.002  0.00  0.00    +0.419 C 
ATOM      3  F   UNL     1      -3.636  -2.565  25.771  0.00  0.00    -0.166 F 
ATOM      4  F   UNL     1      -3.468  -3.141  24.234  0.00  0.00    -0.166 F 
ENDBRANCH   5   2
ENDBRANCH  11   8
ENDBRANCH  14  13
TORSDOF 6
ENDMDL
MODEL 2
REMARK VINA RESULT:     -11.7      1.563      2.507
REMARK  Name = 
REMARK  6 active torsions:
REMARK  status: ('A' for Active; 'I' for Inactive)
REMARK    1  A    between atoms: C_2  and  C_5
REMARK    2  A    between atoms: C_8  and  C_11
REMARK    3  A    between atoms: N_13  and  C_14
REMARK    4  A    between atoms: C_14  and  C_15
REMARK    5  A    between atoms: C_22  and  C_23
REMARK    6  A    between atoms: C_23  and  N_24
REMARK                            x       y       z     vdW  Elec       q    Type
REMARK                         _______ _______ _______ _____ _____    ______ ____
ROOT
ATOM     14  C   UNL     1      -0.941   0.691  25.655  0.00  0.00    +0.131 C 
ENDROOT
BRANCH  14  15
ATOM     15  C   UNL     1      -1.019   1.501  25.524  0.00  0.00    +0.079 C 
ATOM     16  C   UNL     1      -0.734   2.216  25.406  0.00  0.00    +0.018 C 
ATOM     17  C   UNL     1      -1.174   2.887  25.299  0.00  0.00    +0.005 C 
ATOM     18  C   UNL     1      -0.657   3.610  25.179  0.00  0.00    +0.017 C 
ATOM     19  C   UNL     1      -0.780   2.976  25.282  0.00  0.00    +0.072 C 
ATOM     20  N   UNL     1      -1.460   2.190  25.414  0.00  0.00    -0.272 NA
ATOM     21  C   UNL     1      -2.360   2.341  25.395  0.00  0.00    +0.073 C 
ATOM     22  C   UNL     1      -2.040   3.026  25.282  0.00  0.00    +0.032 C 
BRANCH  22  23
ATOM     23  C   UNL     1      -2.429   3.745  25.167  0.00  0.00    +0.073 C 
BRANCH  23  24
ATOM     24  N   UNL     1      -3.250   3.764  25.102  0.00  0.00    -0.273 NA
ATOM     25  C   UNL     1      -3.682   3.713  24.400  0.00  0.00    +0.072 C 
ATOM     26  C   UNL     1      -4.484   3.754  24.591  0.00  0.00    +0.019 C 
ATOM     27  C   UNL     1      -4.547   3.831  25.410  0.00  0.00    +0.019 C 
ATOM     28  C   UNL     1      -3.785   3.837  25.726  0.00  0.00    +0.072 C 
ENDBRANCH  23  24
ENDBRANCH  22  23
ENDBRANCH  14  15
BRANCH  14  13
ATOM     11  C   UNL     1      -1.480  -0.630  25.567  0.00  0.00    +0.265 C 
ATOM     12  O   UNL     1      -0.889  -0.905  26.072  0.00  0.00    -0.268 OA
ATOM     13  N   UNL     1      -1.506   0.168  25.358  0.00  0.00    -0.200 NA
BRANCH  11   8
ATOM      5  C   UNL     1      -3.175  -2.196  24.676  0.00  0.00    +0.071 A 
ATOM      6  C   UNL     1      -3.385  -1.648  25.255  0.00  0.00    +0.004 A 
ATOM      7  C   UNL     1      -2.820  -1.126  25.553  0.00  0.00    +0.005 A 
ATOM      8  C   UNL     1      -2.045  -1.152  25.270  0.00  0.00    +0.055 A 
ATOM      9  C   UNL     1      -1.836  -1.700  24.691  0.00  0.00    +0.005 A 
ATOM     10  C   UNL     1      -2.401  -2.223  24.394  0.00  0.00    +0.004 A 
BRANCH   5   2
ATOM      1  F   UNL     1      -4.307  -3.241  24.083  0.00  0.00    -0.166 F 
ATOM      2  C   UNL     1      -3.741  -2.719  24.379  0.00  0.00    +0.419 C 
ATOM      3  F   UNL     1      -3.569  -3.249  24.988  0.00  0.00    -0.166 F 
ATOM      4  F   UNL     1      -3.913  -2.188  23.771  0.00  0.00    -0.166 F 
ENDBRANCH   5   2
ENDBRANCH  11   8
ENDBRANCH  14  13
TORSDOF 6
ENDMDL
MODEL 3
REMARK VINA RESULT:     -11.7      3.044      5.544
REMARK  Name = 
REMARK  6 active torsions:
REMARK  status: ('A' for Active; 'I' for Inactive)
REMARK    1  A    between atoms: C_2  and  C_5
REMARK    2  A    between atoms: C_8  and  C_11
REMARK    3  A    between atoms: N_13  and  C_14
REMARK    4  A    between atoms: C_14  and  C_15
REMARK    5  A    between atoms: C_22  and  C_23
REMARK    6  A    between atoms: C_23  and  N_24
REMARK                            x       y       z     vdW  Elec       q    Type
REMARK                         _______ _______ _______ _____ _____    ______ ____
ROOT
ATOM     14  C   UNL     1      -4.269   1.506  25.018  0.00  0.00    +0.131 C 
ENDROOT
BRANCH  14  15
ATOM     15  C   UNL     1      -4.119   0.721  24.813  0.00  0.00    +0.079 C 
ATOM     16  C   UNL     1      -4.320   0.031  24.514  0.00  0.00    +0.018 C 
ATOM     17  C   UNL     1      -3.842  -0.621  24.470  0.00  0.00    +0.005 C 
ATOM     18  C   UNL     1      -4.261  -1.317  24.091  0.00  0.00    +0.017 C 
ATOM     19  C   UNL     1      -4.205  -0.705  24.313  0.00  0.00    +0.072 C 
ATOM     20  N   UNL     1      -3.638   0.052  24.765  0.00  0.00    -0.272 NA
ATOM     21  C   UNL     1      -2.776  -0.100  25.023  0.00  0.00    +0.073 C 
ATOM     22  C   UNL     1      -3.013  -0.760  24.721  0.00  0.00    +0.032 C 
BRANCH  22  23
ATOM     23  C   UNL     1      -2.579  -1.458  24.646  0.00  0.00    +0.073 C 
BRANCH  23  24
ATOM     24  N   UNL     1      -1.768  -1.457  24.791  0.00  0.00    -0.273 NA
ATOM     25  C   UNL     1      -1.405  -1.576  25.522  0.00  0.00    +0.072 C 
ATOM     26  C   UNL     1      -0.588  -1.528  25.413  0.00  0.00    +0.019 C 
ATOM     27  C   UNL     1      -0.446  -1.380  24.614  0.00  0.00    +0.019 C 
ATOM     28  C   UNL     1      -1.175  -1.335  24.229  0.00  0.00    +0.072 C 
ENDBRANCH  23  24
ENDBRANCH  22  23
ENDBRANCH  14  15
BRANCH  14  13
ATOM     11  C   UNL     1      -3.802   2.839  25.234  0.00  0.00    +0.265 C 
ATOM     12  O   UNL     1      -4.552   3.060  25.494  0.00  0.00    -0.268 OA
ATOM     13  N   UNL     1      -3.660   2.062  24.996  0.00  0.00    -0.200 NA
BRANCH  11   8
ATOM      5  C   UNL     1      -1.975   4.506  25.167  0.00  0.00    +0.071 A 
ATOM      6  C   UNL     1      -2.462   4.402  24.509  0.00  0.00    +0.004 A 
ATOM      7  C   UNL     1      -3.071   3.846  24.532  0.00  0.00    +0.005 A 
ATOM      8  C   UNL     1      -3.193   3.395  25.212  0.00  0.00    +0.055 A 
ATOM      9  C   UNL     1      -2.705   3.499  25.868  0.00  0.00    +0.005 A 
ATOM     10  C   UNL     1      -2.096   4.055  25.846  0.00  0.00    +0.004 A 
BRANCH   5   2
ATOM      1  F   UNL     1      -0.756   5.618  25.120  0.00  0.00    -0.166 F 
ATOM      2  C   UNL     1      -1.365   5.062  25.144  0.00  0.00    +0.419 C 
ATOM      3  F   UNL     1      -0.865   4.499  24.806  0.00  0.00    -0.166 F 
ATOM      4  F   UNL     1      -1.865   5.625  25.482  0.00  0.00    -0.166 F 
ENDBRANCH   5   2
ENDBRANCH  11   8
ENDBRANCH  14  13
TORSDOF 6
ENDMDL
MODEL 4
REMARK VINA RESULT:     -11.6      3.461      6.331
REMARK  Name = 
REMARK  6 active torsions:
REMARK  status: ('A' for Active; 'I' for Inactive)
REMARK    1  A    between atoms: C_2  and  C_5
REMARK    2  A    between atoms: C_8  and  C_11
REMARK    3  A    between atoms: N_13  and  C_14
REMARK    4  A    between atoms: C_14  and  C_15
REMARK    5  A    between atoms: C_22  and  C_23
REMARK    6  A    between atoms: C_23  and  N_24
REMARK                            x       y       z     vdW  Elec       q    Type
REMARK                         _______ _______ _______ _____ _____    ______ ____
ROOT
ATOM     14  C   UNL     1      -0.677   1.015  25.836  0.00  0.00    +0.131 C 
ENDROOT
BRANCH  14  15
ATOM     15  C   UNL     1      -0.699   0.365  25.329  0.00  0.00    +0.079 C 
ATOM     16  C   UNL     1      -0.414  -0.080  24.758  0.00  0.00    +0.018 C 
ATOM     17  C   UNL     1      -0.756  -0.755  24.470  0.00  0.00    +0.005 C 
ATOM     18  C   UNL     1      -0.270  -1.121  23.812  0.00  0.00    +0.017 C 
ATOM     19  C   UNL     1      -0.411  -0.680  24.272  0.00  0.00    +0.072 C 
ATOM     20  N   UNL     1      -1.042  -0.324  25.030  0.00  0.00    -0.272 NA
ATOM     21  C   UNL     1      -1.811  -0.766  25.246  0.00  0.00    +0.073 C 
ATOM     22  C   UNL     1      -1.497  -1.175  24.682  0.00  0.00    +0.032 C 
BRANCH  22  23
ATOM     23  C   UNL     1      -1.792  -1.868  24.344  0.00  0.00    +0.073 C 
BRANCH  23  24
ATOM     24  N   UNL     1      -2.580  -2.080  24.462  0.00  0.00    -0.273 NA
ATOM     25  C   UNL     1      -3.224  -1.819  24.018  0.00  0.00    +0.072 C 
ATOM     26  C   UNL     1      -3.906  -2.169  24.327  0.00  0.00    +0.019 C 
ATOM     27  C   UNL     1      -3.681  -2.646  24.961  0.00  0.00    +0.019 C 
ATOM     28  C   UNL     1      -2.862  -2.591  25.045  0.00  0.00    +0.072 C 
ENDBRANCH  23  24
ENDBRANCH  22  23
ENDBRANCH  14  15
BRANCH  14  13
ATOM     11  C   UNL     1      -0.733   2.433  26.004  0.00  0.00    +0.265 C 
ATOM     12  O   UNL     1      -0.312   2.366  26.710  0.00  0.00    -0.268 OA
ATOM     13  N   UNL     1      -0.916   1.757  25.566  0.00  0.00    -0.200 NA
BRANCH  11   8
ATOM      5  C   UNL     1      -1.450   4.659  25.195  0.00  0.00    +0.071 A 
ATOM      6  C   UNL     1      -1.935   4.230  25.707  0.00  0.00    +0.004 A 
ATOM      7  C   UNL     1      -1.696   3.488  25.977  0.00  0.00    +0.005 A 
ATOM      8  C   UNL     1      -0.972   3.175  25.734  0.00  0.00    +0.055 A 
ATOM      9  C   UNL     1      -0.488   3.604  25.223  0.00  0.00    +0.005 A 
ATOM     10  C   UNL     1      -0.727   4.346  24.953  0.00  0.00    +0.004 A 
BRANCH   5   2
ATOM      1  F   UNL     1      -1.931   6.143  24.657  0.00  0.00    -0.166 F 
ATOM      2  C   UNL     1      -1.690   5.401  24.926  0.00  0.00    +0.419 C 
ATOM      3  F   UNL     1      -2.375   5.064  24.612  0.00  0.00    -0.166 F 
ATOM      4  F   UNL     1      -1.006   5.737  25.241  0.00  0.00    -0.166 F 
ENDBRANCH   5   2
ENDBRANCH  11   8
ENDBRANCH  14  13
TORSDOF 6
ENDMDL
MODEL 5
REMARK VINA RESULT:     -11.5      3.305      6.160
REMARK  Name = 
REMARK  6 active torsions:
REMARK  status: ('A' for Active; 'I' for Inactive)
REMARK    1  A    between atoms: C_2  and  C_5
REMARK    2  A    between atoms: C_8  and  C_11
REMARK    3  A    between atoms: N_13  and  C_14
REMARK    4  A    between atoms: C_14  and  C_15
REMARK    5  A    between atoms: C_22  and  C_23
REMARK    6  A    between atoms: C_23  and  N_24
REMARK                            x       y       z     vdW  Elec       q    Type
REMARK                         _______ _______ _______ _____ _____    ______ ____
ROOT
ATOM     14  C   UNL     1      -2.013   1.174  25.053  0.00  0.00    +0.131 C 
ENDROOT
BRANCH  14  15
ATOM     15  C   UNL     1      -2.732   0.786  24.946  0.00  0.00    +0.079 C 
ATOM     16  C   UNL     1      -3.506   0.768  24.868  0.00  0.00    +0.018 C 
ATOM     17  C   UNL     1      -3.954   0.101  24.761  0.00  0.00    +0.005 C 
ATOM     18  C   UNL     1      -4.827   0.293  24.693  0.00  0.00    +0.017 C 
ATOM     19  C   UNL     1      -4.192   0.428  24.769  0.00  0.00    +0.072 C 
ATOM     20  N   UNL     1      -3.195   0.111  24.837  0.00  0.00    -0.272 NA
ATOM     21  C   UNL     1      -2.980  -0.773  24.775  0.00  0.00    +0.073 C 
ATOM     22  C   UNL     1      -3.740  -0.748  24.703  0.00  0.00    +0.032 C 
BRANCH  22  23
ATOM     23  C   UNL     1      -4.252  -1.386  24.592  0.00  0.00    +0.073 C 
BRANCH  23  24
ATOM     24  N   UNL     1      -3.948  -2.143  24.480  0.00  0.00    -0.273 NA
ATOM     25  C   UNL     1      -3.971  -2.576  23.777  0.00  0.00    +0.072 C 
ATOM     26  C   UNL     1      -3.605  -3.303  23.913  0.00  0.00    +0.019 C 
ATOM     27  C   UNL     1      -3.356  -3.320  24.700  0.00  0.00    +0.019 C 
ATOM     28  C   UNL     1      -3.568  -2.603  25.050  0.00  0.00    +0.072 C 
ENDBRANCH  23  24
ENDBRANCH  22  23
ENDBRANCH  14  15
BRANCH  14  13
ATOM     11  C   UNL     1      -1.289   2.394  25.227  0.00  0.00    +0.265 C 
ATOM     12  O   UNL     1      -0.641   1.970  25.509  0.00  0.00    -0.268 OA
ATOM     13  N   UNL     1      -1.975   1.996  24.999  0.00  0.00    -0.200 NA
BRANCH  11   8
ATOM      5  C   UNL     1      -1.177   4.861  25.063  0.00  0.00    +0.071 A 
ATOM      6  C   UNL     1      -0.646   4.395  24.636  0.00  0.00    +0.004 A 
ATOM      7  C   UNL     1      -0.684   3.572  24.690  0.00  0.00    +0.005 A 
ATOM      8  C   UNL     1      -1.252   3.216  25.172  0.00  0.00    +0.055 A 
ATOM      9  C   UNL     1      -1.781   3.682  25.599  0.00  0.00    +0.005 A 
ATOM     10  C   UNL     1      -1.744   4.505  25.544  0.00  0.00    +0.004 A 
BRANCH   5   2
ATOM      1  F   UNL     1      -1.100   6.505  24.952  0.00  0.00    -0.166 F 
ATOM      2  C   UNL     1      -1.139   5.683  25.008  0.00  0.00    +0.419 C 
ATOM      3  F   UNL     1      -0.399   5.623  24.646  0.00  0.00    -0.166 F 
ATOM      4  F   UNL     1      -1.878   5.742  25.370  0.00  0.00    -0.166 F 
ENDBRANCH   5   2
ENDBRANCH  11   8
ENDBRANCH  14  13
TORSDOF 6
ENDMDL
