MODEL 1
REMARK VINA RESULT:     -12.3      0.000      0.000
REMARK  Name = 
REMARK  7 active torsions:
REMARK  status: ('A' for Active; 'I' for Inactive)
REMARK    1  A    between atoms: C_2  and  C_4
REMARK    2  A    between atoms: C_4  and  C_5
REMARK    3  A    between atoms: C_7  and  C_25
REMARK    4  A    between atoms: N_11  and  C_12
REMARK    5  A    between atoms: C_12  and  C_13
REMARK    6  A    between atoms: N_27  and  C_28
REMARK    7  A    between atoms: C_28  and  C_29
REMARK                            x       y       z     vdW  Elec       q    Type
REMARK                         _______ _______ _______ _____ _____    ______ ____
ROOT
ATOM      5  C   UNL     1      -3.473  -0.313  24.915  0.00  0.00    +0.095 C 
ATOM      6  N   UNL     1      -2.670  -0.497  24.875  0.00  0.00    -0.207 NA
ATOM      7  C   UNL     1      -2.025   0.017  24.845  0.00  0.00    +0.155 C 
ATOM      8  C   UNL     1      -2.024   0.841  24.846  0.00  0.00    +0.055 C 
ATOM      9  C   UNL     1      -2.668   1.357  24.879  0.00  0.00    -0.002 A 
ATOM     10  C   UNL     1      -2.594   2.178  24.877  0.00  0.00    +0.072 A 
ATOM     11  N   UNL     1      -3.351   2.503  24.914  0.00  0.00    -0.320 N 
ATOM     19  C   UNL     1      -3.894   1.882  24.940  0.00  0.00    +0.060 A 
ATOM     20  C   UNL     1      -3.472   1.173  24.918  0.00  0.00    +0.011 A 
ATOM     21  C   UNL     1      -3.829   0.430  24.934  0.00  0.00    -0.005 A 
ATOM     22  C   UNL     1      -4.697   0.441  24.976  0.00  0.00    -0.003 A 
ATOM     23  C   UNL     1      -5.120   1.149  24.998  0.00  0.00    +0.001 A 
ATOM     24  C   UNL     1      -4.718   1.870  24.980  0.00  0.00    +0.017 A 
ENDROOT
BRANCH   7  25
ATOM     25  C   UNL     1      -1.283  -0.342  24.808  0.00  0.00    +0.258 C 
ATOM     26  O   UNL     1      -1.011  -0.794  25.442  0.00  0.00    -0.272 OA
ATOM     27  N   UNL     1      -0.813  -0.249  24.135  0.00  0.00    -0.204 NA
BRANCH  27  28
ATOM     28  C   UNL     1      -0.071  -0.607  24.098  0.00  0.00    +0.115 C 
BRANCH  28  29
ATOM     29  C   UNL     1       0.452  -0.411  23.490  0.00  0.00    +0.022 C 
ATOM     30  C   UNL     1       1.217  -0.241  23.233  0.00  0.00    +0.002 C 
ATOM     31  C   UNL     1       0.592  -0.241  22.696  0.00  0.00    +0.002 C 
ENDBRANCH  28  29
ENDBRANCH  27  28
ENDBRANCH   7  25
BRANCH   5   4
ATOM      4  C   UNL     1      -3.986  -0.958  24.939  0.00  0.00    +0.022 C 
BRANCH   4   2
ATOM      1  C   UNL     1      -3.963  -1.640  23.683  0.00  0.00    +0.000 C 
ATOM      2  C   UNL     1      -3.820  -1.634  24.495  0.00  0.00    +0.002 C 
ATOM      3  C   UNL     1      -3.512  -2.304  24.865  0.00  0.00    +0.000 C 
ENDBRANCH   4   2
ENDBRANCH   5   4
BRANCH  11  12
ATOM     12  C   UNL     1      -3.535   3.307  24.925  0.00  0.00    +0.155 C 
BRANCH  12  13
ATOM     13  C   UNL     1      -2.992   3.851  25.226  0.00  0.00    +0.123 A 
ATOM     14  N   UNL     1      -2.903   4.057  26.020  0.00  0.00    -0.080 NA
ATOM     15  O   UNL     1      -2.300   4.617  26.071  0.00  0.00    -0.358 OA
ATOM     16  C   UNL     1      -2.016   4.757  25.309  0.00  0.00    +0.155 A 
ATOM     17  C   UNL     1      -1.411   5.279  25.104  0.00  0.00    +0.075 C 
ATOM     18  C   UNL     1      -2.444   4.283  24.787  0.00  0.00    +0.056 A 
ENDBRANCH  12  13
ENDBRANCH  11  12
TORSDOF 7
ENDMDL
MODEL 2
REMARK VINA RESULT:     -11.5      2.009      3.259
REMARK  Name = 
REMARK  7 active torsions:
REMARK  status: ('A' for Active; 'I' for Inactive)
REMARK    1  A    between atoms: C_2  and  C_4
REMARK    2  A    between atoms: C_4  and  C_5
REMARK    3  A    between atoms: C_7  and  C_25
REMARK    4  A    between atoms: N_11  and  C_12
REMARK    5  A    between atoms: C_12  and  C_13
REMARK    6  A    between atoms: N_27  and  C_28
REMARK    7  A    between atoms: C_28  and  C_29
REMARK                            x       y       z     vdW  Elec       q    Type
REMARK                         _______ _______ _______ _____ _____    ______ ____
ROOT
ATOM      5  C   UNL     1      -4.593   2.116  24.761  0.00  0.00    +0.095 C 
ATOM      6  N   UNL     1      -4.497   1.345  24.483  0.00  0.00    -0.207 NA
ATOM      7  C   UNL     1      -3.797   0.942  24.316  0.00  0.00    +0.155 C 
ATOM      8  C   UNL     1      -3.020   1.210  24.387  0.00  0.00    +0.055 C 
ATOM      9  C   UNL     1      -2.751   1.947  24.641  0.00  0.00    -0.002 A 
ATOM     10  C   UNL     1      -1.953   2.149  24.687  0.00  0.00    +0.072 A 
ATOM     11  N   UNL     1      -1.901   2.926  24.962  0.00  0.00    -0.320 N 
ATOM     19  C   UNL     1      -2.667   3.204  25.086  0.00  0.00    +0.060 A 
ATOM     20  C   UNL     1      -3.193   2.599  24.888  0.00  0.00    +0.011 A 
ATOM     21  C   UNL     1      -4.014   2.673  24.941  0.00  0.00    -0.005 A 
ATOM     22  C   UNL     1      -4.294   3.445  25.225  0.00  0.00    -0.003 A 
ATOM     23  C   UNL     1      -3.769   4.050  25.424  0.00  0.00    +0.001 A 
ATOM     24  C   UNL     1      -2.955   3.928  25.354  0.00  0.00    +0.017 A 
ENDROOT
BRANCH   7  25
ATOM     25  C   UNL     1      -3.885   0.168  24.043  0.00  0.00    +0.258 C 
ATOM     26  O   UNL     1      -4.060   0.029  23.250  0.00  0.00    -0.272 OA
ATOM     27  N   UNL     1      -3.799  -0.466  24.565  0.00  0.00    -0.204 NA
BRANCH  27  28
ATOM     28  C   UNL     1      -3.888  -1.238  24.293  0.00  0.00    +0.115 C 
BRANCH  28  29
ATOM     29  C   UNL     1      -3.652  -1.872  24.766  0.00  0.00    +0.022 C 
ATOM     30  C   UNL     1      -3.484  -2.675  24.853  0.00  0.00    +0.002 C 
ATOM     31  C   UNL     1      -3.414  -2.167  25.498  0.00  0.00    +0.002 C 
ENDBRANCH  28  29
ENDBRANCH  27  28
ENDBRANCH   7  25
BRANCH   5   4
ATOM      4  C   UNL     1      -5.373   2.360  24.874  0.00  0.00    +0.022 C 
BRANCH   4   2
ATOM      1  C   UNL     1      -6.507   1.504  24.720  0.00  0.00    +0.000 C 
ATOM      2  C   UNL     1      -5.925   1.840  25.199  0.00  0.00    +0.002 C 
ATOM      3  C   UNL     1      -5.895   1.656  26.003  0.00  0.00    +0.000 C 
ENDBRANCH   4   2
ENDBRANCH   5   4
BRANCH  11  12
ATOM     12  C   UNL     1      -1.205   3.350  25.091  0.00  0.00    +0.155 C 
BRANCH  12  13
ATOM     13  C   UNL     1      -0.565   2.989  25.464  0.00  0.00    +0.123 A 
ATOM     14  N   UNL     1       0.051   2.586  25.091  0.00  0.00    -0.080 NA
ATOM     15  O   UNL     1       0.569   2.316  25.673  0.00  0.00    -0.358 OA
ATOM     16  C   UNL     1       0.274   2.552  26.406  0.00  0.00    +0.155 A 
ATOM     17  C   UNL     1       0.619   2.399  27.140  0.00  0.00    +0.075 C 
ATOM     18  C   UNL     1      -0.427   2.968  26.277  0.00  0.00    +0.056 A 
ENDBRANCH  12  13
ENDBRANCH  11  12
TORSDOF 7
ENDMDL
MODEL 3
REMARK VINA RESULT:     -11.5      1.604      5.326
REMARK  Name = 
REMARK  7 active torsions:
REMARK  status: ('A' for Active; 'I' for Inactive)
REMARK    1  A    between atoms: C_2  and  C_4
REMARK    2  A    between atoms: C_4  and  C_5
REMARK    3  A    between atoms: C_7  and  C_25
REMARK    4  A    between atoms: N_11  and  C_12
REMARK    5  A    between atoms: C_12  and  C_13
REMARK    6  A    between atoms: N_27  and  C_28
REMARK    7  A    between atoms: C_28  and  C_29
REMARK                            x       y       z     vdW  Elec       q    Type
REMARK                         _______ _______ _______ _____ _____    ______ ____
ROOT
ATOM      5  C   UNL     1      -1.800   3.247  25.367  0.00  0.00    +0.095 C 
ATOM      6  N   UNL     1      -2.567   3.204  25.066  0.00  0.00    -0.207 NA
ATOM      7  C   UNL     1      -2.934   2.574  24.680  0.00  0.00    +0.155 C 
ATOM      8  C   UNL     1      -2.625   1.831  24.500  0.00  0.00    +0.055 C 
ATOM      9  C   UNL     1      -1.872   1.534  24.662  0.00  0.00    -0.002 A 
ATOM     10  C   UNL     1      -1.628   0.775  24.451  0.00  0.00    +0.072 A 
ATOM     11  N   UNL     1      -0.847   0.678  24.702  0.00  0.00    -0.320 N 
ATOM     19  C   UNL     1      -0.609   1.379  25.068  0.00  0.00    +0.060 A 
ATOM     20  C   UNL     1      -1.243   1.908  25.043  0.00  0.00    +0.011 A 
ATOM     21  C   UNL     1      -1.212   2.670  25.357  0.00  0.00    -0.005 A 
ATOM     22  C   UNL     1      -0.454   2.885  25.723  0.00  0.00    -0.003 A 
ATOM     23  C   UNL     1       0.180   2.357  25.748  0.00  0.00    +0.001 A 
ATOM     24  C   UNL     1       0.101   1.604  25.421  0.00  0.00    +0.017 A 
ENDROOT
BRANCH   7  25
ATOM     25  C   UNL     1      -3.714   2.704  24.443  0.00  0.00    +0.258 C 
ATOM     26  O   UNL     1      -3.869   3.066  23.718  0.00  0.00    -0.272 OA
ATOM     27  N   UNL     1      -4.338   2.472  24.931  0.00  0.00    -0.204 NA
BRANCH  27  28
ATOM     28  C   UNL     1      -5.116   2.602  24.694  0.00  0.00    +0.115 C 
BRANCH  28  29
ATOM     29  C   UNL     1      -5.739   2.267  25.120  0.00  0.00    +0.022 C 
ATOM     30  C   UNL     1      -6.492   1.931  25.140  0.00  0.00    +0.002 C 
ATOM     31  C   UNL     1      -6.063   2.022  25.837  0.00  0.00    +0.002 C 
ENDBRANCH  28  29
ENDBRANCH  27  28
ENDBRANCH   7  25
BRANCH   5   4
ATOM      4  C   UNL     1      -1.597   3.961  25.725  0.00  0.00    +0.022 C 
BRANCH   4   2
ATOM      1  C   UNL     1      -2.497   5.069  25.672  0.00  0.00    +0.000 C 
ATOM      2  C   UNL     1      -1.832   4.675  25.385  0.00  0.00    +0.002 C 
ATOM      3  C   UNL     1      -1.401   4.995  24.757  0.00  0.00    +0.000 C 
ENDBRANCH   4   2
ENDBRANCH   5   4
BRANCH  11  12
ATOM     12  C   UNL     1      -0.386   0.002  24.605  0.00  0.00    +0.155 C 
BRANCH  12  13
ATOM     13  C   UNL     1      -0.700  -0.741  24.779  0.00  0.00    +0.123 A 
ATOM     14  N   UNL     1      -0.714  -1.099  25.523  0.00  0.00    -0.080 NA
ATOM     15  O   UNL     1      -1.078  -1.835  25.443  0.00  0.00    -0.358 OA
ATOM     16  C   UNL     1      -1.288  -1.932  24.651  0.00  0.00    +0.155 A 
ATOM     17  C   UNL     1      -1.666  -2.590  24.326  0.00  0.00    +0.075 C 
ATOM     18  C   UNL     1      -1.055  -1.255  24.241  0.00  0.00    +0.056 A 
ENDBRANCH  12  13
ENDBRANCH  11  12
TORSDOF 7
ENDMDL
MODEL 4
REMARK VINA RESULT:     -11.0      1.811      4.380
REMARK  Name = 
REMARK  7 active torsions:
REMARK  status: ('A' for Active; 'I' for Inactive)
REMARK    1  A    between atoms: C_2  and  C_4
REMARK    2  A    between atoms: C_4  and  C_5
REMARK    3  A    between atoms: C_7  and  C_25
REMARK    4  A    between atoms: N_11  and  C_12
REMARK    5  A    between atoms: C_12  and  C_13
REMARK    6  A    between atoms: N_27  and  C_28
REMARK    7  A    between atoms: C_28  and  C_29
REMARK                            x       y       z     vdW  Elec       q    Type
REMARK                         _______ _______ _______ _____ _____    ______ ____
ROOT
ATOM      5  C   UNL     1      -3.657   2.762  24.949  0.00  0.00    +0.095 C 
ATOM      6  N   UNL     1      -2.833   2.778  24.905  0.00  0.00    -0.207 NA
ATOM      7  C   UNL     1      -2.314   2.153  24.759  0.00  0.00    +0.155 C 
ATOM      8  C   UNL     1      -2.491   1.359  24.621  0.00  0.00    +0.055 C 
ATOM      9  C   UNL     1      -3.230   0.994  24.594  0.00  0.00    -0.002 A 
ATOM     10  C   UNL     1      -3.335   0.188  24.450  0.00  0.00    +0.072 A 
ATOM     11  N   UNL     1      -4.144   0.029  24.466  0.00  0.00    -0.320 N 
ATOM     19  C   UNL     1      -4.540   0.736  24.621  0.00  0.00    +0.060 A 
ATOM     20  C   UNL     1      -3.975   1.332  24.700  0.00  0.00    +0.011 A 
ATOM     21  C   UNL     1      -4.164   2.120  24.858  0.00  0.00    -0.005 A 
ATOM     22  C   UNL     1      -5.014   2.284  24.937  0.00  0.00    -0.003 A 
ATOM     23  C   UNL     1      -5.579   1.688  24.858  0.00  0.00    +0.001 A 
ATOM     24  C   UNL     1      -5.341   0.914  24.699  0.00  0.00    +0.017 A 
ENDROOT
BRANCH   7  25
ATOM     25  C   UNL     1      -1.512   2.348  24.750  0.00  0.00    +0.258 C 
ATOM     26  O   UNL     1      -1.157   2.601  24.050  0.00  0.00    -0.272 OA
ATOM     27  N   UNL     1      -1.066   2.290  25.442  0.00  0.00    -0.204 NA
BRANCH  27  28
ATOM     28  C   UNL     1      -0.265   2.485  25.433  0.00  0.00    +0.115 C 
BRANCH  28  29
ATOM     29  C   UNL     1       0.155   2.534  26.142  0.00  0.00    +0.022 C 
ATOM     30  C   UNL     1       0.831   2.760  26.558  0.00  0.00    +0.002 C 
ATOM     31  C   UNL     1       0.208   2.391  26.952  0.00  0.00    +0.002 C 
ENDBRANCH  28  29
ENDBRANCH  27  28
ENDBRANCH   7  25
BRANCH   5   4
ATOM      4  C   UNL     1      -4.019   3.487  25.105  0.00  0.00    +0.022 C 
BRANCH   4   2
ATOM      1  C   UNL     1      -3.264   4.700  25.077  0.00  0.00    +0.000 C 
ATOM      2  C   UNL     1      -3.603   4.079  25.502  0.00  0.00    +0.002 C 
ATOM      3  C   UNL     1      -3.526   4.051  26.323  0.00  0.00    +0.000 C 
ENDBRANCH   4   2
ENDBRANCH   5   4
BRANCH  11  12
ATOM     12  C   UNL     1      -4.496  -0.708  24.348  0.00  0.00    +0.155 C 
BRANCH  12  13
ATOM     13  C   UNL     1      -4.110  -1.394  24.593  0.00  0.00    +0.123 A 
ATOM     14  N   UNL     1      -3.876  -1.570  25.365  0.00  0.00    -0.080 NA
ATOM     15  O   UNL     1      -3.511  -2.310  25.358  0.00  0.00    -0.358 OA
ATOM     16  C   UNL     1      -3.519  -2.591  24.583  0.00  0.00    +0.155 A 
ATOM     17  C   UNL     1      -3.212  -3.312  24.325  0.00  0.00    +0.075 C 
ATOM     18  C   UNL     1      -3.889  -2.025  24.110  0.00  0.00    +0.056 A 
ENDBRANCH  12  13
ENDBRANCH  11  12
TORSDOF 7
ENDMDL
MODEL 5
REMARK VINA RESULT:     -10.9      0.965      4.231
REMARK  Name = 
REMARK  7 active torsions:
REMARK  status: ('A' for Active; 'I' for Inactive)
REMARK    1  A    between atoms: C_2  and  C_4
REMARK    2  A    between atoms: C_4  and  C_5
REMARK    3  A    between atoms: C_7  and  C_25
REMARK    4  A    between atoms: N_11  and  C_12
REMARK    5  A    between atoms: C_12  and  C_13
REMARK    6  A    between atoms: N_27  and  C_28
REMARK    7  A    between atoms: C_28  and  C_29
REMARK                            x       y       z     vdW  Elec       q    Type
REMARK                         _______ _______ _______ _____ _____    ______ ____
ROOT
ATOM      5  C   UNL     1      -4.347   1.226  25.081  0.00  0.00    +0.095 C 
ATOM      6  N   UNL     1      -4.088   1.983  24.882  0.00  0.00    -0.207 NA
ATOM      7  C   UNL     1      -3.363   2.211  24.560  0.00  0.00    +0.155 C 
ATOM      8  C   UNL     1      -2.719   1.738  24.358  0.00  0.00    +0.055 C 
ATOM      9  C   UNL     1      -2.640   0.919  24.427  0.00  0.00    -0.002 A 
ATOM     10  C   UNL     1      -1.961   0.507  24.204  0.00  0.00    +0.072 A 
ATOM     11  N   UNL     1      -2.087  -0.294  24.354  0.00  0.00    -0.320 N 
ATOM     19  C   UNL     1      -2.844  -0.378  24.671  0.00  0.00    +0.060 A 
ATOM     20  C   UNL     1      -3.186   0.372  24.717  0.00  0.00    +0.011 A 
ATOM     21  C   UNL     1      -3.946   0.510  25.008  0.00  0.00    -0.005 A 
ATOM     22  C   UNL     1      -4.372  -0.201  25.268  0.00  0.00    -0.003 A 
ATOM     23  C   UNL     1      -4.031  -0.951  25.223  0.00  0.00    +0.001 A 
ATOM     24  C   UNL     1      -3.267  -1.039  24.925  0.00  0.00    +0.017 A 
ENDROOT
BRANCH   7  25
ATOM     25  C   UNL     1      -3.271   3.020  24.422  0.00  0.00    +0.258 C 
ATOM     26  O   UNL     1      -3.690   3.384  23.812  0.00  0.00    -0.272 OA
ATOM     27  N   UNL     1      -2.760   3.463  24.896  0.00  0.00    -0.204 NA
BRANCH  27  28
ATOM     28  C   UNL     1      -2.668   4.270  24.758  0.00  0.00    +0.115 C 
BRANCH  28  29
ATOM     29  C   UNL     1      -2.000   4.663  25.041  0.00  0.00    +0.022 C 
ATOM     30  C   UNL     1      -1.549   5.351  25.105  0.00  0.00    +0.002 C 
ATOM     31  C   UNL     1      -1.294   4.656  25.467  0.00  0.00    +0.002 C 
ENDBRANCH  28  29
ENDBRANCH  27  28
ENDBRANCH   7  25
BRANCH   5   4
ATOM      4  C   UNL     1      -5.108   1.179  25.395  0.00  0.00    +0.022 C 
BRANCH   4   2
ATOM      1  C   UNL     1      -6.072   1.968  24.693  0.00  0.00    +0.000 C 
ATOM      2  C   UNL     1      -5.609   1.836  25.362  0.00  0.00    +0.002 C 
ATOM      3  C   UNL     1      -5.645   2.359  26.000  0.00  0.00    +0.000 C 
ENDBRANCH   4   2
ENDBRANCH   5   4
BRANCH  11  12
ATOM     12  C   UNL     1      -1.551  -0.905  24.213  0.00  0.00    +0.155 C 
BRANCH  12  13
ATOM     13  C   UNL     1      -0.750  -0.736  24.110  0.00  0.00    +0.123 A 
ATOM     14  N   UNL     1      -0.188  -0.667  24.710  0.00  0.00    -0.080 NA
ATOM     15  O   UNL     1       0.538  -0.495  24.360  0.00  0.00    -0.358 OA
ATOM     16  C   UNL     1       0.426  -0.458  23.544  0.00  0.00    +0.155 A 
ATOM     17  C   UNL     1       1.008  -0.300  22.980  0.00  0.00    +0.075 C 
ATOM     18  C   UNL     1      -0.371  -0.607  23.389  0.00  0.00    +0.056 A 
ENDBRANCH  12  13
ENDBRANCH  11  12
TORSDOF 7
ENDMDL
MODEL 6
REMARK VINA RESULT:     -10.8      1.608      3.604
REMARK  Name = 
REMARK  7 active torsions:
REMARK  status: ('A' for Active; 'I' for Inactive)
REMARK    1  A    between atoms: C_2  and  C_4
REMARK    2  A    between atoms: C_4  and  C_5
REMARK    3  A    between atoms: C_7  and  C_25
REMARK    4  A    between atoms: N_11  and  C_12
REMARK    5  A    between atoms: C_12  and  C_13
REMARK    6  A    between atoms: N_27  and  C_28
REMARK    7  A    between atoms: C_28  and  C_29
REMARK                            x       y       z     vdW  Elec       q    Type
REMARK                         _______ _______ _______ _____ _____    ______ ____
ROOT
ATOM      5  C   UNL     1      -2.581  -1.049  24.587  0.00  0.00    +0.095 C 
ATOM      6  N   UNL     1      -3.319  -0.680  24.574  0.00  0.00    -0.207 NA
ATOM      7  C   UNL     1      -3.490   0.127  24.557  0.00  0.00    +0.155 C 
ATOM      8  C   UNL     1      -2.965   0.764  24.550  0.00  0.00    +0.055 C 
ATOM      9  C   UNL     1      -2.141   0.751  24.558  0.00  0.00    -0.002 A 
ATOM     10  C   UNL     1      -1.675   1.432  24.550  0.00  0.00    +0.072 A 
ATOM     11  N   UNL     1      -0.883   1.201  24.561  0.00  0.00    -0.320 N 
ATOM     19  C   UNL     1      -0.859   0.376  24.577  0.00  0.00    +0.060 A 
ATOM     20  C   UNL     1      -1.636   0.098  24.575  0.00  0.00    +0.011 A 
ATOM     21  C   UNL     1      -1.833  -0.703  24.588  0.00  0.00    -0.005 A 
ATOM     22  C   UNL     1      -1.156  -1.247  24.604  0.00  0.00    -0.003 A 
ATOM     23  C   UNL     1      -0.379  -0.970  24.606  0.00  0.00    +0.001 A 
ATOM     24  C   UNL     1      -0.231  -0.158  24.593  0.00  0.00    +0.017 A 
ENDROOT
BRANCH   7  25
ATOM     25  C   UNL     1      -4.291   0.323  24.546  0.00  0.00    +0.258 C 
ATOM     26  O   UNL     1      -4.793  -0.026  23.993  0.00  0.00    -0.272 OA
ATOM     27  N   UNL     1      -4.590   0.868  25.089  0.00  0.00    -0.204 NA
BRANCH  27  28
ATOM     28  C   UNL     1      -5.391   1.063  25.078  0.00  0.00    +0.115 C 
BRANCH  28  29
ATOM     29  C   UNL     1      -5.666   1.701  25.525  0.00  0.00    +0.022 C 
ATOM     30  C   UNL     1      -6.199   2.013  26.072  0.00  0.00    +0.002 C 
ATOM     31  C   UNL     1      -5.609   2.491  25.752  0.00  0.00    +0.002 C 
ENDBRANCH  28  29
ENDBRANCH  27  28
ENDBRANCH   7  25
BRANCH   5   4
ATOM      4  C   UNL     1      -2.595  -1.874  24.602  0.00  0.00    +0.022 C 
BRANCH   4   2
ATOM      1  C   UNL     1      -3.789  -2.635  24.411  0.00  0.00    +0.000 C 
ATOM      2  C   UNL     1      -3.248  -2.270  24.915  0.00  0.00    +0.002 C 
ATOM      3  C   UNL     1      -3.359  -2.301  25.733  0.00  0.00    +0.000 C 
ENDBRANCH   4   2
ENDBRANCH   5   4
BRANCH  11  12
ATOM     12  C   UNL     1      -0.230   1.704  24.558  0.00  0.00    +0.155 C 
BRANCH  12  13
ATOM     13  C   UNL     1      -0.288   2.458  24.887  0.00  0.00    +0.123 A 
ATOM     14  N   UNL     1      -0.180   2.650  25.682  0.00  0.00    -0.080 NA
ATOM     15  O   UNL     1      -0.289   3.463  25.765  0.00  0.00    -0.358 OA
ATOM     16  C   UNL     1      -0.466   3.774  25.022  0.00  0.00    +0.155 A 
ATOM     17  C   UNL     1      -0.617   4.567  24.851  0.00  0.00    +0.075 C 
ATOM     18  C   UNL     1      -0.465   3.153  24.479  0.00  0.00    +0.056 A 
ENDBRANCH  12  13
ENDBRANCH  11  12
TORSDOF 7
ENDMDL
MODEL 7
REMARK VINA RESULT:     -10.6      1.873      3.608
REMARK  Name = 
REMARK  7 active torsions:
REMARK  status: ('A' for Active; 'I' for Inactive)
REMARK    1  A    between atoms: C_2  and  C_4
REMARK    2  A    between atoms: C_4  and  C_5
REMARK    3  A    between atoms: C_7  and  C_25
REMARK    4  A    between atoms: N_11  and  C_12
REMARK    5  A    between atoms: C_12  and  C_13
REMARK    6  A    between atoms: N_27  and  C_28
REMARK    7  A    between atoms: C_28  and  C_29
REMARK                            x       y       z     vdW  Elec       q    Type
REMARK                         _______ _______ _______ _____ _____    ______ ____
ROOT
ATOM      5  C   UNL     1      -1.211   2.719  25.199  0.00  0.00    +0.095 C 
ATOM      6  N   UNL     1      -1.084   1.993  24.829  0.00  0.00    -0.207 NA
ATOM      7  C   UNL     1      -1.638   1.488  24.482  0.00  0.00    +0.155 C 
ATOM      8  C   UNL     1      -2.454   1.585  24.421  0.00  0.00    +0.055 C 
ATOM      9  C   UNL     1      -2.920   2.210  24.691  0.00  0.00    -0.002 A 
ATOM     10  C   UNL     1      -3.739   2.242  24.595  0.00  0.00    +0.072 A 
ATOM     11  N   UNL     1      -4.009   2.945  24.934  0.00  0.00    -0.320 N 
ATOM     19  C   UNL     1      -3.356   3.347  25.239  0.00  0.00    +0.060 A 
ATOM     20  C   UNL     1      -2.683   2.893  25.090  0.00  0.00    +0.011 A 
ATOM     21  C   UNL     1      -1.922   3.119  25.315  0.00  0.00    -0.005 A 
ATOM     22  C   UNL     1      -1.874   3.881  25.730  0.00  0.00    -0.003 A 
ATOM     23  C   UNL     1      -2.546   4.335  25.880  0.00  0.00    +0.001 A 
ATOM     24  C   UNL     1      -3.287   4.068  25.634  0.00  0.00    +0.017 A 
ENDROOT
BRANCH   7  25
ATOM     25  C   UNL     1      -1.334   0.795  24.153  0.00  0.00    +0.258 C 
ATOM     26  O   UNL     1      -1.024   0.802  23.389  0.00  0.00    -0.272 OA
ATOM     27  N   UNL     1      -1.339   0.094  24.590  0.00  0.00    -0.204 NA
BRANCH  27  28
ATOM     28  C   UNL     1      -1.035  -0.598  24.262  0.00  0.00    +0.115 C 
BRANCH  28  29
ATOM     29  C   UNL     1      -1.017  -1.292  24.708  0.00  0.00    +0.022 C 
ATOM     30  C   UNL     1      -1.217  -2.087  24.801  0.00  0.00    +0.002 C 
ATOM     31  C   UNL     1      -0.785  -1.699  25.387  0.00  0.00    +0.002 C 
ENDBRANCH  28  29
ENDBRANCH  27  28
ENDBRANCH   7  25
BRANCH   5   4
ATOM      4  C   UNL     1      -0.537   3.093  25.493  0.00  0.00    +0.022 C 
BRANCH   4   2
ATOM      1  C   UNL     1       0.733   2.449  25.374  0.00  0.00    +0.000 C 
ATOM      2  C   UNL     1       0.071   2.645  25.826  0.00  0.00    +0.002 C 
ATOM      3  C   UNL     1       0.016   2.394  26.610  0.00  0.00    +0.000 C 
ENDBRANCH   4   2
ENDBRANCH   5   4
BRANCH  11  12
ATOM     12  C   UNL     1      -4.792   3.201  24.963  0.00  0.00    +0.155 C 
BRANCH  12  13
ATOM     13  C   UNL     1      -5.389   2.679  25.192  0.00  0.00    +0.123 A 
ATOM     14  N   UNL     1      -5.824   2.189  24.690  0.00  0.00    -0.080 NA
ATOM     15  O   UNL     1      -6.359   1.764  25.151  0.00  0.00    -0.358 OA
ATOM     16  C   UNL     1      -6.255   1.991  25.938  0.00  0.00    +0.155 A 
ATOM     17  C   UNL     1      -6.677   1.702  26.586  0.00  0.00    +0.075 C 
ATOM     18  C   UNL     1      -5.655   2.557  25.962  0.00  0.00    +0.056 A 
ENDBRANCH  12  13
ENDBRANCH  11  12
TORSDOF 7
ENDMDL
MODEL 8
REMARK VINA RESULT:     -10.5      1.562      2.020
REMARK  Name = 
REMARK  7 active torsions:
REMARK  status: ('A' for Active; 'I' for Inactive)
REMARK    1  A    between atoms: C_2  and  C_4
REMARK    2  A    between atoms: C_4  and  C_5
REMARK    3  A    between atoms: C_7  and  C_25
REMARK    4  A    between atoms: N_11  and  C_12
REMARK    5  A    between atoms: C_12  and  C_13
REMARK    6  A    between atoms: N_27  and  C_28
REMARK    7  A    between atoms: C_28  and  C_29
REMARK                            x       y       z     vdW  Elec       q    Type
REMARK                         _______ _______ _______ _____ _____    ______ ____
ROOT
ATOM      5  C   UNL     1      -1.952  -0.722  24.973  0.00  0.00    +0.095 C 
ATOM      6  N   UNL     1      -1.245  -0.346  24.774  0.00  0.00    -0.207 NA
ATOM      7  C   UNL     1      -1.135   0.414  24.471  0.00  0.00    +0.155 C 
ATOM      8  C   UNL     1      -1.704   0.984  24.292  0.00  0.00    +0.055 C 
ATOM      9  C   UNL     1      -2.524   0.935  24.373  0.00  0.00    -0.002 A 
ATOM     10  C   UNL     1      -3.037   1.549  24.173  0.00  0.00    +0.072 A 
ATOM     11  N   UNL     1      -3.808   1.298  24.328  0.00  0.00    -0.320 N 
ATOM     19  C   UNL     1      -3.771   0.529  24.624  0.00  0.00    +0.060 A 
ATOM     20  C   UNL     1      -2.977   0.304  24.651  0.00  0.00    +0.011 A 
ATOM     21  C   UNL     1      -2.721  -0.433  24.919  0.00  0.00    -0.005 A 
ATOM     22  C   UNL     1      -3.355  -0.970  25.174  0.00  0.00    -0.003 A 
ATOM     23  C   UNL     1      -4.149  -0.746  25.147  0.00  0.00    +0.001 A 
ATOM     24  C   UNL     1      -4.356   0.004  24.871  0.00  0.00    +0.017 A 
ENDROOT
BRANCH   7  25
ATOM     25  C   UNL     1      -0.352   0.632  24.328  0.00  0.00    +0.258 C 
ATOM     26  O   UNL     1       0.051   1.102  24.872  0.00  0.00    -0.272 OA
ATOM     27  N   UNL     1       0.027   0.379  23.639  0.00  0.00    -0.204 NA
BRANCH  27  28
ATOM     28  C   UNL     1       0.809   0.597  23.496  0.00  0.00    +0.115 C 
BRANCH  28  29
ATOM     29  C   UNL     1       1.246   0.205  22.916  0.00  0.00    +0.022 C 
ATOM     30  C   UNL     1       1.970   0.044  22.554  0.00  0.00    +0.002 C 
ATOM     31  C   UNL     1       1.281  -0.313  22.275  0.00  0.00    +0.002 C 
ENDBRANCH  28  29
ENDBRANCH  27  28
ENDBRANCH   7  25
BRANCH   5   4
ATOM      4  C   UNL     1      -1.877  -1.490  25.266  0.00  0.00    +0.022 C 
BRANCH   4   2
ATOM      1  C   UNL     1      -0.599  -2.128  25.327  0.00  0.00    +0.000 C 
ATOM      2  C   UNL     1      -1.317  -2.003  24.940  0.00  0.00    +0.002 C 
ATOM      3  C   UNL     1      -1.477  -2.389  24.229  0.00  0.00    +0.000 C 
ENDBRANCH   4   2
ENDBRANCH   5   4
BRANCH  11  12
ATOM     12  C   UNL     1      -4.495   1.738  24.209  0.00  0.00    +0.155 C 
BRANCH  12  13
ATOM     13  C   UNL     1      -4.535   2.520  24.468  0.00  0.00    +0.123 A 
ATOM     14  N   UNL     1      -4.176   3.170  24.108  0.00  0.00    -0.080 NA
ATOM     15  O   UNL     1      -4.361   3.841  24.551  0.00  0.00    -0.358 OA
ATOM     16  C   UNL     1      -4.834   3.606  25.185  0.00  0.00    +0.155 A 
ATOM     17  C   UNL     1      -5.145   4.101  25.767  0.00  0.00    +0.075 C 
ATOM     18  C   UNL     1      -4.942   2.790  25.133  0.00  0.00    +0.056 A 
ENDBRANCH  12  13
ENDBRANCH  11  12
TORSDOF 7
ENDMDL
MODEL 9
REMARK VINA RESULT:     -10.5      1.294      3.245
REMARK  Name = 
REMARK  7 active torsions:
REMARK  status: ('A' for Active; 'I' for Inactive)
REMARK    1  A    between atoms: C_2  and  C_4
REMARK    2  A    between atoms: C_4  and  C_5
REMARK    3  A    between atoms: C_7  and  C_25
REMARK    4  A    between atoms: N_11  and  C_12
REMARK    5  A    between atoms: C_12  and  C_13
REMARK    6  A    between atoms: N_27  and  C_28
REMARK    7  A    between atoms: C_28  and  C_29
REMARK                            x       y       z     vdW  Elec       q    Type
REMARK                         _______ _______ _______ _____ _____    ______ ____
ROOT
ATOM      5  C   UNL     1      -0.583   0.829  24.419  0.00  0.00    +0.095 C 
ATOM      6  N   UNL     1      -1.019   0.161  24.629  0.00  0.00    -0.207 NA
ATOM      7  C   UNL     1      -1.776   0.122  24.955  0.00  0.00    +0.155 C 
ATOM      8  C   UNL     1      -2.283   0.742  25.151  0.00  0.00    +0.055 C 
ATOM      9  C   UNL     1      -2.160   1.553  25.071  0.00  0.00    -0.002 A 
ATOM     10  C   UNL     1      -2.715   2.122  25.290  0.00  0.00    +0.072 A 
ATOM     11  N   UNL     1      -2.397   2.866  25.128  0.00  0.00    -0.320 N 
ATOM     19  C   UNL     1      -1.644   2.757  24.809  0.00  0.00    +0.060 A 
ATOM     20  C   UNL     1      -1.497   1.946  24.773  0.00  0.00    +0.011 A 
ATOM     21  C   UNL     1      -0.795   1.622  24.483  0.00  0.00    -0.005 A 
ATOM     22  C   UNL     1      -0.209   2.203  24.212  0.00  0.00    -0.003 A 
ATOM     23  C   UNL     1      -0.356   3.014  24.247  0.00  0.00    +0.001 A 
ATOM     24  C   UNL     1      -1.074   3.291  24.546  0.00  0.00    +0.017 A 
ENDROOT
BRANCH   7  25
ATOM     25  C   UNL     1      -2.063  -0.638  25.104  0.00  0.00    +0.258 C 
ATOM     26  O   UNL     1      -1.784  -1.064  25.752  0.00  0.00    -0.272 OA
ATOM     27  N   UNL     1      -2.629  -0.970  24.603  0.00  0.00    -0.204 NA
BRANCH  27  28
ATOM     28  C   UNL     1      -2.916  -1.728  24.752  0.00  0.00    +0.115 C 
BRANCH  28  29
ATOM     29  C   UNL     1      -3.537  -2.030  24.300  0.00  0.00    +0.022 C 
ATOM     30  C   UNL     1      -3.900  -2.665  23.917  0.00  0.00    +0.002 C 
ATOM     31  C   UNL     1      -4.249  -1.918  23.900  0.00  0.00    +0.002 C 
ENDBRANCH  28  29
ENDBRANCH  27  28
ENDBRANCH   7  25
BRANCH   5   4
ATOM      4  C   UNL     1       0.165   0.683  24.103  0.00  0.00    +0.022 C 
BRANCH   4   2
ATOM      1  C   UNL     1       0.052   0.076  22.814  0.00  0.00    +0.000 C 
ATOM      2  C   UNL     1       0.283   0.035  23.605  0.00  0.00    +0.002 C 
ATOM      3  C   UNL     1       0.633  -0.653  23.899  0.00  0.00    +0.000 C 
ENDBRANCH   4   2
ENDBRANCH   5   4
BRANCH  11  12
ATOM     12  C   UNL     1      -2.766   3.591  25.262  0.00  0.00    +0.155 C 
BRANCH  12  13
ATOM     13  C   UNL     1      -3.576   3.673  25.130  0.00  0.00    +0.123 A 
ATOM     14  N   UNL     1      -3.940   3.772  24.396  0.00  0.00    -0.080 NA
ATOM     15  O   UNL     1      -4.753   3.831  24.521  0.00  0.00    -0.358 OA
ATOM     16  C   UNL     1      -4.892   3.768  25.331  0.00  0.00    +0.155 A 
ATOM     17  C   UNL     1      -5.629   3.798  25.701  0.00  0.00    +0.075 C 
ATOM     18  C   UNL     1      -4.164   3.671  25.708  0.00  0.00    +0.056 A 
ENDBRANCH  12  13
ENDBRANCH  11  12
TORSDOF 7
ENDMDL
