MODEL 1
REMARK VINA RESULT:      -8.7      0.000      0.000
REMARK  Name = 
REMARK  10 active torsions:
REMARK  status: ('A' for Active; 'I' for Inactive)
REMARK    1  A    between atoms: C_2  and  C_3
REMARK    2  A    between atoms: C_3  and  C_4
REMARK    3  A    between atoms: C_3  and  C_6
REMARK    4  A    between atoms: C_8  and  C_33
REMARK    5  A    between atoms: C_10  and  C_12
REMARK    6  A    between atoms: C_19  and  C_20
REMARK    7  A    between atoms: C_20  and  N_21
REMARK    8  A    between atoms: N_21  and  S_22
REMARK    9  A    between atoms: S_22  and  C_25
REMARK   10  A    between atoms: C_30  and  C_31
REMARK                            x       y       z     vdW  Elec       q    Type
REMARK                         _______ _______ _______ _____ _____    ______ ____
ROOT
ATOM     12  C   UNL     1      -1.558   0.703  24.243  0.00  0.00    +0.056 C 
ATOM     13  C   UNL     1      -1.315   0.739  23.505  0.00  0.00    +0.078 C 
ATOM     14  N   UNL     1      -0.843   0.816  24.178  0.00  0.00    -0.272 NA
ATOM     15  C   UNL     1      -1.474   0.718  25.010  0.00  0.00    +0.072 C 
ATOM     16  C   UNL     1      -1.563   0.706  25.657  0.00  0.00    +0.018 C 
ATOM     17  C   UNL     1      -1.090   0.779  24.899  0.00  0.00    +0.010 C 
ATOM     18  C   UNL     1      -0.228   0.916  24.993  0.00  0.00    +0.018 C 
ATOM     19  C   UNL     1       0.052   0.959  24.284  0.00  0.00    +0.077 C 
ENDROOT
BRANCH  12  10
ATOM      6  C   UNL     1      -3.470  -0.321  24.495  0.00  0.00    +0.061 A 
ATOM      7  N   UNL     1      -3.975   0.319  24.620  0.00  0.00    -0.231 NA
ATOM      8  C   UNL     1      -3.675   1.088  24.618  0.00  0.00    +0.162 A 
ATOM      9  N   UNL     1      -2.870   1.216  24.493  0.00  0.00    -0.231 NA
ATOM     10  C   UNL     1      -2.365   0.575  24.369  0.00  0.00    +0.063 A 
ATOM     11  C   UNL     1      -2.665  -0.193  24.370  0.00  0.00    +0.030 A 
BRANCH   8  33
ATOM     33  C   UNL     1      -4.179   1.729  24.742  0.00  0.00    +0.039 A 
ATOM     34  C   UNL     1      -4.652   1.757  25.418  0.00  0.00    +0.024 A 
ATOM     35  C   UNL     1      -5.157   2.398  25.542  0.00  0.00    +0.099 A 
ATOM     36  N   UNL     1      -5.188   3.011  24.990  0.00  0.00    -0.242 NA
ATOM     37  C   UNL     1      -4.716   2.983  24.315  0.00  0.00    +0.099 A 
ATOM     38  C   UNL     1      -4.211   2.342  24.191  0.00  0.00    +0.024 A 
ENDBRANCH   8  33
BRANCH   6   3
ATOM      3  C   UNL     1      -3.771  -1.089  24.497  0.00  0.00    +0.040 C 
BRANCH   3   2
ATOM      1  C   UNL     1      -4.406  -2.159  23.795  0.00  0.00    +0.000 C 
ATOM      2  C   UNL     1      -3.988  -1.448  23.786  0.00  0.00    +0.006 C 
ENDBRANCH   3   2
BRANCH   3   4
ATOM      4  C   UNL     1      -3.855  -1.498  25.208  0.00  0.00    +0.006 C 
ATOM      5  C   UNL     1      -3.579  -2.272  25.275  0.00  0.00    +0.000 C 
ENDBRANCH   3   4
ENDBRANCH   6   3
ENDBRANCH  12  10
BRANCH  19  20
ATOM     20  C   UNL     1       0.751   1.069  23.862  0.00  0.00    +0.131 C 
BRANCH  20  21
ATOM     21  N   UNL     1       1.045   0.465  23.384  0.00  0.00    -0.076 NA
BRANCH  21  22
ATOM     22  S   UNL     1       1.828   0.487  23.126  0.00  0.00    +0.078 S 
ATOM     23  O   UNL     1       1.756   1.294  22.974  0.00  0.00    -0.152 OA
ATOM     24  O   UNL     1       1.900  -0.321  23.277  0.00  0.00    -0.152 OA
BRANCH  22  25
ATOM     25  C   UNL     1       2.612   0.509  22.868  0.00  0.00    +0.133 A 
ATOM     26  C   UNL     1       3.192   0.855  23.340  0.00  0.00    +0.021 A 
ATOM     27  C   UNL     1       3.976   0.877  23.082  0.00  0.00    +0.001 A 
ATOM     28  C   UNL     1       4.179   0.552  22.352  0.00  0.00    +0.001 A 
ATOM     29  C   UNL     1       3.598   0.205  21.879  0.00  0.00    +0.012 A 
ATOM     30  C   UNL     1       2.815   0.184  22.137  0.00  0.00    +0.087 A 
BRANCH  30  31
ATOM     31  C   UNL     1       2.234  -0.163  21.664  0.00  0.00    +0.102 C 
ATOM     32  N   UNL     1       1.654  -0.510  21.192  0.00  0.00    -0.191 NA
ENDBRANCH  30  31
ENDBRANCH  22  25
ENDBRANCH  21  22
ENDBRANCH  20  21
ENDBRANCH  19  20
TORSDOF 10
ENDMDL
MODEL 2
REMARK VINA RESULT:      -8.1      0.629      2.387
REMARK  Name = 
REMARK  10 active torsions:
REMARK  status: ('A' for Active; 'I' for Inactive)
REMARK    1  A    between atoms: C_2  and  C_3
REMARK    2  A    between atoms: C_3  and  C_4
REMARK    3  A    between atoms: C_3  and  C_6
REMARK    4  A    between atoms: C_8  and  C_33
REMARK    5  A    between atoms: C_10  and  C_12
REMARK    6  A    between atoms: C_19  and  C_20
REMARK    7  A    between atoms: C_20  and  N_21
REMARK    8  A    between atoms: N_21  and  S_22
REMARK    9  A    between atoms: S_22  and  C_25
REMARK   10  A    between atoms: C_30  and  C_31
REMARK                            x       y       z     vdW  Elec       q    Type
REMARK                         _______ _______ _______ _____ _____    ______ ____
ROOT
ATOM     12  C   UNL     1      -1.316   0.947  24.126  0.00  0.00    +0.056 C 
ATOM     13  C   UNL     1      -1.052   0.925  23.394  0.00  0.00    +0.078 C 
ATOM     14  N   UNL     1      -0.597   1.038  24.073  0.00  0.00    -0.272 NA
ATOM     15  C   UNL     1      -1.250   1.015  24.892  0.00  0.00    +0.072 C 
ATOM     16  C   UNL     1      -1.356   1.050  25.536  0.00  0.00    +0.018 C 
ATOM     17  C   UNL     1      -0.862   1.058  24.787  0.00  0.00    +0.010 C 
ATOM     18  C   UNL     1       0.000   1.180  24.895  0.00  0.00    +0.018 C 
ATOM     19  C   UNL     1       0.299   1.165  24.193  0.00  0.00    +0.077 C 
ENDROOT
BRANCH  12  10
ATOM      6  C   UNL     1      -3.430   1.409  24.407  0.00  0.00    +0.061 A 
ATOM      7  N   UNL     1      -3.751   0.651  24.462  0.00  0.00    -0.231 NA
ATOM      8  C   UNL     1      -3.259  -0.009  24.405  0.00  0.00    +0.162 A 
ATOM      9  N   UNL     1      -2.448   0.089  24.293  0.00  0.00    -0.231 NA
ATOM     10  C   UNL     1      -2.128   0.848  24.238  0.00  0.00    +0.063 A 
ATOM     11  C   UNL     1      -2.619   1.508  24.295  0.00  0.00    +0.030 A 
BRANCH   8  33
ATOM     33  C   UNL     1      -3.578  -0.768  24.460  0.00  0.00    +0.039 A 
ATOM     34  C   UNL     1      -3.525  -1.187  25.169  0.00  0.00    +0.024 A 
ATOM     35  C   UNL     1      -3.844  -1.946  25.224  0.00  0.00    +0.099 A 
ATOM     36  N   UNL     1      -4.217  -2.285  24.570  0.00  0.00    -0.242 NA
ATOM     37  C   UNL     1      -4.270  -1.866  23.862  0.00  0.00    +0.099 A 
ATOM     38  C   UNL     1      -3.951  -1.107  23.807  0.00  0.00    +0.024 A 
ENDBRANCH   8  33
BRANCH   6   3
ATOM      3  C   UNL     1      -3.923   2.069  24.464  0.00  0.00    +0.040 C 
BRANCH   3   2
ATOM      1  C   UNL     1      -5.035   2.530  25.233  0.00  0.00    +0.000 C 
ATOM      2  C   UNL     1      -4.251   2.276  25.192  0.00  0.00    +0.006 C 
ENDBRANCH   3   2
BRANCH   3   4
ATOM      4  C   UNL     1      -4.087   2.521  23.794  0.00  0.00    +0.006 C 
ATOM      5  C   UNL     1      -4.050   3.344  23.832  0.00  0.00    +0.000 C 
ENDBRANCH   3   4
ENDBRANCH   6   3
ENDBRANCH  12  10
BRANCH  19  20
ATOM     20  C   UNL     1       1.012   1.228  23.784  0.00  0.00    +0.131 C 
BRANCH  20  21
ATOM     21  N   UNL     1       1.329   0.569  23.403  0.00  0.00    -0.076 NA
BRANCH  21  22
ATOM     22  S   UNL     1       2.118   0.572  23.161  0.00  0.00    +0.078 S 
ATOM     23  O   UNL     1       2.078   1.386  23.038  0.00  0.00    -0.152 OA
ATOM     24  O   UNL     1       2.158  -0.243  23.284  0.00  0.00    -0.152 OA
BRANCH  22  25
ATOM     25  C   UNL     1       2.907   0.574  22.920  0.00  0.00    +0.133 A 
ATOM     26  C   UNL     1       3.489   0.885  23.415  0.00  0.00    +0.021 A 
ATOM     27  C   UNL     1       4.278   0.888  23.174  0.00  0.00    +0.001 A 
ATOM     28  C   UNL     1       4.485   0.580  22.437  0.00  0.00    +0.001 A 
ATOM     29  C   UNL     1       3.903   0.269  21.942  0.00  0.00    +0.012 A 
ATOM     30  C   UNL     1       3.114   0.266  22.183  0.00  0.00    +0.087 A 
BRANCH  30  31
ATOM     31  C   UNL     1       2.532  -0.045  21.688  0.00  0.00    +0.102 C 
ATOM     32  N   UNL     1       1.950  -0.355  21.193  0.00  0.00    -0.191 NA
ENDBRANCH  30  31
ENDBRANCH  22  25
ENDBRANCH  21  22
ENDBRANCH  20  21
ENDBRANCH  19  20
TORSDOF 10
ENDMDL
MODEL 3
REMARK VINA RESULT:      -7.4      2.421      6.056
REMARK  Name = 
REMARK  10 active torsions:
REMARK  status: ('A' for Active; 'I' for Inactive)
REMARK    1  A    between atoms: C_2  and  C_3
REMARK    2  A    between atoms: C_3  and  C_4
REMARK    3  A    between atoms: C_3  and  C_6
REMARK    4  A    between atoms: C_8  and  C_33
REMARK    5  A    between atoms: C_10  and  C_12
REMARK    6  A    between atoms: C_19  and  C_20
REMARK    7  A    between atoms: C_20  and  N_21
REMARK    8  A    between atoms: N_21  and  S_22
REMARK    9  A    between atoms: S_22  and  C_25
REMARK   10  A    between atoms: C_30  and  C_31
REMARK                            x       y       z     vdW  Elec       q    Type
REMARK                         _______ _______ _______ _____ _____    ______ ____
ROOT
ATOM     12  C   UNL     1      -1.330   1.017  24.347  0.00  0.00    +0.056 C 
ATOM     13  C   UNL     1      -1.974   1.080  23.915  0.00  0.00    +0.078 C 
ATOM     14  N   UNL     1      -1.734   1.598  24.512  0.00  0.00    -0.272 NA
ATOM     15  C   UNL     1      -0.830   1.233  24.895  0.00  0.00    +0.072 C 
ATOM     16  C   UNL     1      -0.327   1.281  25.310  0.00  0.00    +0.018 C 
ATOM     17  C   UNL     1      -1.101   1.530  24.931  0.00  0.00    +0.010 C 
ATOM     18  C   UNL     1      -1.467   2.263  25.246  0.00  0.00    +0.018 C 
ATOM     19  C   UNL     1      -2.109   2.361  24.845  0.00  0.00    +0.077 C 
ENDROOT
BRANCH  12  10
ATOM      6  C   UNL     1      -0.503  -1.002  24.396  0.00  0.00    +0.061 A 
ATOM      7  N   UNL     1       0.150  -0.916  23.899  0.00  0.00    -0.231 NA
ATOM      8  C   UNL     1       0.310  -0.185  23.551  0.00  0.00    +0.162 A 
ATOM      9  N   UNL     1      -0.183   0.459  23.701  0.00  0.00    -0.231 NA
ATOM     10  C   UNL     1      -0.836   0.372  24.198  0.00  0.00    +0.063 A 
ATOM     11  C   UNL     1      -0.996  -0.358  24.545  0.00  0.00    +0.030 A 
BRANCH   8  33
ATOM     33  C   UNL     1       0.963  -0.098  23.054  0.00  0.00    +0.039 A 
ATOM     34  C   UNL     1       0.908  -0.312  22.260  0.00  0.00    +0.024 A 
ATOM     35  C   UNL     1       1.561  -0.225  21.763  0.00  0.00    +0.099 A 
ATOM     36  N   UNL     1       2.269   0.077  22.061  0.00  0.00    -0.242 NA
ATOM     37  C   UNL     1       2.324   0.291  22.856  0.00  0.00    +0.099 A 
ATOM     38  C   UNL     1       1.671   0.204  23.353  0.00  0.00    +0.024 A 
ENDBRANCH   8  33
BRANCH   6   3
ATOM      3  C   UNL     1      -0.662  -1.733  24.743  0.00  0.00    +0.040 C 
BRANCH   3   2
ATOM      1  C   UNL     1       0.065  -2.634  25.581  0.00  0.00    +0.000 C 
ATOM      2  C   UNL     1      -0.336  -1.921  25.477  0.00  0.00    +0.006 C 
ENDBRANCH   3   2
BRANCH   3   4
ATOM      4  C   UNL     1      -1.146  -2.277  24.356  0.00  0.00    +0.006 C 
ATOM      5  C   UNL     1      -1.817  -2.574  24.733  0.00  0.00    +0.000 C 
ENDBRANCH   3   4
ENDBRANCH   6   3
ENDBRANCH  12  10
BRANCH  19  20
ATOM     20  C   UNL     1      -2.759   2.862  24.761  0.00  0.00    +0.131 C 
BRANCH  20  21
ATOM     21  N   UNL     1      -3.524   2.556  24.804  0.00  0.00    -0.076 NA
BRANCH  21  22
ATOM     22  S   UNL     1      -4.153   3.048  25.011  0.00  0.00    +0.078 S 
ATOM     23  O   UNL     1      -3.994   2.918  25.809  0.00  0.00    -0.152 OA
ATOM     24  O   UNL     1      -4.312   3.179  24.212  0.00  0.00    -0.152 OA
BRANCH  22  25
ATOM     25  C   UNL     1      -4.782   3.541  25.217  0.00  0.00    +0.133 A 
ATOM     26  C   UNL     1      -4.674   4.358  25.247  0.00  0.00    +0.021 A 
ATOM     27  C   UNL     1      -5.303   4.851  25.453  0.00  0.00    +0.001 A 
ATOM     28  C   UNL     1      -6.041   4.526  25.629  0.00  0.00    +0.001 A 
ATOM     29  C   UNL     1      -6.149   3.709  25.599  0.00  0.00    +0.012 A 
ATOM     30  C   UNL     1      -5.520   3.216  25.393  0.00  0.00    +0.087 A 
BRANCH  30  31
ATOM     31  C   UNL     1      -5.628   2.399  25.363  0.00  0.00    +0.102 C 
ATOM     32  N   UNL     1      -5.737   1.582  25.333  0.00  0.00    -0.191 NA
ENDBRANCH  30  31
ENDBRANCH  22  25
ENDBRANCH  21  22
ENDBRANCH  20  21
ENDBRANCH  19  20
TORSDOF 10
ENDMDL
