MODEL 1
REMARK VINA RESULT:      -9.7      0.000      0.000
REMARK  Name = 
REMARK  5 active torsions:
REMARK  status: ('A' for Active; 'I' for Inactive)
REMARK    1  A    between atoms: C_3  and  C_4
REMARK    2  A    between atoms: C_4  and  N_5
REMARK    3  A    between atoms: C_6  and  C_8
REMARK    4  A    between atoms: C_16  and  N_17
REMARK    5  A    between atoms: N_17  and  C_18
REMARK                            x       y       z     vdW  Elec       q    Type
REMARK                         _______ _______ _______ _____ _____    ______ ____
ROOT
ATOM      1  O   UNL     1      -3.942   3.178  25.713  0.00  0.00    -0.219 OA
ATOM      2  C   UNL     1      -3.309   2.923  25.249  0.00  0.00    +0.199 C 
ATOM      3  C   UNL     1      -3.271   2.214  24.828  0.00  0.00    +0.169 C 
ATOM     14  O   UNL     1      -2.541   2.186  24.444  0.00  0.00    -0.350 OA
ATOM     15  C   UNL     1      -2.129   2.877  24.626  0.00  0.00    +0.162 C 
ATOM     16  C   UNL     1      -2.604   3.333  25.124  0.00  0.00    +0.135 C 
ENDROOT
BRANCH   3   4
ATOM      4  C   UNL     1      -3.857   1.635  24.798  0.00  0.00    +0.148 C 
BRANCH   4   5
ATOM      5  N   UNL     1      -3.650   0.837  24.779  0.00  0.00    -0.199 NA
ATOM      6  C   UNL     1      -4.237   0.258  24.766  0.00  0.00    +0.265 C 
ATOM      7  O   UNL     1      -5.032   0.477  24.772  0.00  0.00    -0.268 OA
BRANCH   6   8
ATOM      8  C   UNL     1      -4.030  -0.540  24.747  0.00  0.00    +0.055 A 
ATOM      9  C   UNL     1      -4.156  -0.984  24.064  0.00  0.00    +0.005 A 
ATOM     10  C   UNL     1      -3.949  -1.781  24.045  0.00  0.00    +0.000 A 
ATOM     11  C   UNL     1      -3.614  -2.137  24.710  0.00  0.00    +0.000 A 
ATOM     12  C   UNL     1      -3.487  -1.693  25.394  0.00  0.00    +0.000 A 
ATOM     13  C   UNL     1      -3.694  -0.895  25.413  0.00  0.00    +0.005 A 
ENDBRANCH   6   8
ENDBRANCH   4   5
ENDBRANCH   3   4
BRANCH  16  17
ATOM     17  N   UNL     1      -2.408   4.068  25.440  0.00  0.00    -0.211 NA
BRANCH  17  18
ATOM     18  C   UNL     1      -1.693   4.427  25.238  0.00  0.00    +0.132 C 
ATOM     19  C   UNL     1      -0.898   4.206  25.275  0.00  0.00    +0.162 C 
ATOM     20  O   UNL     1      -0.682   4.934  24.952  0.00  0.00    -0.351 OA
ATOM     21  C   UNL     1      -1.476   5.154  24.914  0.00  0.00    +0.162 C 
ENDBRANCH  17  18
ENDBRANCH  16  17
TORSDOF 5
ENDMDL
MODEL 2
REMARK VINA RESULT:      -9.2      1.874      5.363
REMARK  Name = 
REMARK  5 active torsions:
REMARK  status: ('A' for Active; 'I' for Inactive)
REMARK    1  A    between atoms: C_3  and  C_4
REMARK    2  A    between atoms: C_4  and  N_5
REMARK    3  A    between atoms: C_6  and  C_8
REMARK    4  A    between atoms: C_16  and  N_17
REMARK    5  A    between atoms: N_17  and  C_18
REMARK                            x       y       z     vdW  Elec       q    Type
REMARK                         _______ _______ _______ _____ _____    ______ ____
ROOT
ATOM      1  O   UNL     1      -0.712  -0.585  25.442  0.00  0.00    -0.219 OA
ATOM      2  C   UNL     1      -1.430  -0.267  25.189  0.00  0.00    +0.199 C 
ATOM      3  C   UNL     1      -1.637   0.532  25.199  0.00  0.00    +0.169 C 
ATOM     14  O   UNL     1      -2.401   0.600  24.897  0.00  0.00    -0.350 OA
ATOM     15  C   UNL     1      -2.667  -0.156  24.699  0.00  0.00    +0.162 C 
ATOM     16  C   UNL     1      -2.066  -0.692  24.880  0.00  0.00    +0.135 C 
ENDROOT
BRANCH   3   4
ATOM      4  C   UNL     1      -1.164   1.152  25.466  0.00  0.00    +0.148 C 
BRANCH   4   5
ATOM      5  N   UNL     1      -1.386   1.933  25.320  0.00  0.00    -0.199 NA
ATOM      6  C   UNL     1      -0.957   2.554  25.654  0.00  0.00    +0.265 C 
ATOM      7  O   UNL     1      -0.306   2.393  26.135  0.00  0.00    -0.268 OA
BRANCH   6   8
ATOM      8  C   UNL     1      -1.179   3.334  25.508  0.00  0.00    +0.055 A 
ATOM      9  C   UNL     1      -1.889   3.625  25.812  0.00  0.00    +0.005 A 
ATOM     10  C   UNL     1      -2.111   4.406  25.666  0.00  0.00    +0.000 A 
ATOM     11  C   UNL     1      -1.623   4.897  25.216  0.00  0.00    +0.000 A 
ATOM     12  C   UNL     1      -0.913   4.605  24.912  0.00  0.00    +0.000 A 
ATOM     13  C   UNL     1      -0.691   3.825  25.058  0.00  0.00    +0.005 A 
ENDBRANCH   6   8
ENDBRANCH   4   5
ENDBRANCH   3   4
BRANCH  16  17
ATOM     17  N   UNL     1      -2.096  -1.508  24.770  0.00  0.00    -0.211 NA
BRANCH  17  18
ATOM     18  C   UNL     1      -2.824  -1.895  24.752  0.00  0.00    +0.132 C 
ATOM     19  C   UNL     1      -3.329  -2.164  24.156  0.00  0.00    +0.162 C 
ATOM     20  O   UNL     1      -3.855  -2.443  24.728  0.00  0.00    -0.351 OA
ATOM     21  C   UNL     1      -3.351  -2.175  25.323  0.00  0.00    +0.162 C 
ENDBRANCH  17  18
ENDBRANCH  16  17
TORSDOF 5
ENDMDL
MODEL 3
REMARK VINA RESULT:      -9.1      1.476      1.830
REMARK  Name = 
REMARK  5 active torsions:
REMARK  status: ('A' for Active; 'I' for Inactive)
REMARK    1  A    between atoms: C_3  and  C_4
REMARK    2  A    between atoms: C_4  and  N_5
REMARK    3  A    between atoms: C_6  and  C_8
REMARK    4  A    between atoms: C_16  and  N_17
REMARK    5  A    between atoms: N_17  and  C_18
REMARK                            x       y       z     vdW  Elec       q    Type
REMARK                         _______ _______ _______ _____ _____    ______ ____
ROOT
ATOM      1  O   UNL     1      -0.508   1.487  25.800  0.00  0.00    -0.219 OA
ATOM      2  C   UNL     1      -1.216   1.713  25.442  0.00  0.00    +0.199 C 
ATOM      3  C   UNL     1      -1.730   1.217  25.029  0.00  0.00    +0.169 C 
ATOM     14  O   UNL     1      -2.365   1.672  24.765  0.00  0.00    -0.350 OA
ATOM     15  C   UNL     1      -2.244   2.449  25.014  0.00  0.00    +0.162 C 
ATOM     16  C   UNL     1      -1.533   2.474  25.432  0.00  0.00    +0.135 C 
ENDROOT
BRANCH   3   4
ATOM      4  C   UNL     1      -1.627   0.408  24.903  0.00  0.00    +0.148 C 
BRANCH   4   5
ATOM      5  N   UNL     1      -2.283  -0.077  24.783  0.00  0.00    -0.199 NA
ATOM      6  C   UNL     1      -2.178  -0.880  24.619  0.00  0.00    +0.265 C 
ATOM      7  O   UNL     1      -1.417  -1.195  24.577  0.00  0.00    -0.268 OA
BRANCH   6   8
ATOM      8  C   UNL     1      -2.834  -1.365  24.499  0.00  0.00    +0.055 A 
ATOM      9  C   UNL     1      -3.461  -1.103  24.032  0.00  0.00    +0.005 A 
ATOM     10  C   UNL     1      -4.117  -1.589  23.911  0.00  0.00    +0.000 A 
ATOM     11  C   UNL     1      -4.146  -2.337  24.257  0.00  0.00    +0.000 A 
ATOM     12  C   UNL     1      -3.518  -2.599  24.725  0.00  0.00    +0.000 A 
ATOM     13  C   UNL     1      -2.862  -2.114  24.845  0.00  0.00    +0.005 A 
ENDBRANCH   6   8
ENDBRANCH   4   5
ENDBRANCH   3   4
BRANCH  16  17
ATOM     17  N   UNL     1      -1.199   3.143  25.780  0.00  0.00    -0.211 NA
BRANCH  17  18
ATOM     18  C   UNL     1      -1.380   3.893  25.488  0.00  0.00    +0.132 C 
ATOM     19  C   UNL     1      -2.020   4.410  25.563  0.00  0.00    +0.162 C 
ATOM     20  O   UNL     1      -1.637   4.954  25.076  0.00  0.00    -0.351 OA
ATOM     21  C   UNL     1      -0.998   4.438  25.001  0.00  0.00    +0.162 C 
ENDBRANCH  17  18
ENDBRANCH  16  17
TORSDOF 5
ENDMDL
MODEL 4
REMARK VINA RESULT:      -9.1      1.046      4.978
REMARK  Name = 
REMARK  5 active torsions:
REMARK  status: ('A' for Active; 'I' for Inactive)
REMARK    1  A    between atoms: C_3  and  C_4
REMARK    2  A    between atoms: C_4  and  N_5
REMARK    3  A    between atoms: C_6  and  C_8
REMARK    4  A    between atoms: C_16  and  N_17
REMARK    5  A    between atoms: N_17  and  C_18
REMARK                            x       y       z     vdW  Elec       q    Type
REMARK                         _______ _______ _______ _____ _____    ______ ____
ROOT
ATOM      1  O   UNL     1      -4.913   1.006  25.385  0.00  0.00    -0.219 OA
ATOM      2  C   UNL     1      -4.253   0.889  24.904  0.00  0.00    +0.199 C 
ATOM      3  C   UNL     1      -3.665   1.445  24.744  0.00  0.00    +0.169 C 
ATOM     14  O   UNL     1      -3.114   1.094  24.240  0.00  0.00    -0.350 OA
ATOM     15  C   UNL     1      -3.361   0.322  24.088  0.00  0.00    +0.162 C 
ATOM     16  C   UNL     1      -4.066   0.195  24.499  0.00  0.00    +0.135 C 
ENDROOT
BRANCH   3   4
ATOM      4  C   UNL     1      -3.634   2.215  25.036  0.00  0.00    +0.148 C 
BRANCH   4   5
ATOM      5  N   UNL     1      -2.946   2.662  24.950  0.00  0.00    -0.199 NA
ATOM      6  C   UNL     1      -2.882   3.398  25.318  0.00  0.00    +0.265 C 
ATOM      7  O   UNL     1      -3.507   3.686  25.773  0.00  0.00    -0.268 OA
BRANCH   6   8
ATOM      8  C   UNL     1      -2.194   3.844  25.232  0.00  0.00    +0.055 A 
ATOM      9  C   UNL     1      -2.240   4.665  25.171  0.00  0.00    +0.005 A 
ATOM     10  C   UNL     1      -1.552   5.112  25.084  0.00  0.00    +0.000 A 
ATOM     11  C   UNL     1      -0.817   4.737  25.059  0.00  0.00    +0.000 A 
ATOM     12  C   UNL     1      -0.771   3.915  25.120  0.00  0.00    +0.000 A 
ATOM     13  C   UNL     1      -1.459   3.469  25.206  0.00  0.00    +0.005 A 
ENDBRANCH   6   8
ENDBRANCH   4   5
ENDBRANCH   3   4
BRANCH  16  17
ATOM     17  N   UNL     1      -4.504  -0.503  24.504  0.00  0.00    -0.211 NA
BRANCH  17  18
ATOM     18  C   UNL     1      -4.129  -1.227  24.375  0.00  0.00    +0.132 C 
ATOM     19  C   UNL     1      -3.657  -1.728  24.830  0.00  0.00    +0.162 C 
ATOM     20  O   UNL     1      -3.599  -2.250  24.194  0.00  0.00    -0.351 OA
ATOM     21  C   UNL     1      -4.071  -1.749  23.740  0.00  0.00    +0.162 C 
ENDBRANCH  17  18
ENDBRANCH  16  17
TORSDOF 5
ENDMDL
