MODEL 1
REMARK VINA RESULT:     -10.7      0.000      0.000
REMARK  Name = 
REMARK  5 active torsions:
REMARK  status: ('A' for Active; 'I' for Inactive)
REMARK    1  A    between atoms: N_6  and  C_7
REMARK    2  A    between atoms: C_7  and  C_8
REMARK    3  A    between atoms: C_20  and  C_21
REMARK    4  A    between atoms: C_21  and  C_22
REMARK    5  A    between atoms: C_22  and  C_23
REMARK                            x       y       z     vdW  Elec       q    Type
REMARK                         _______ _______ _______ _____ _____    ______ ____
ROOT
ATOM      1  C   UNL     1      -2.845   2.144  23.315  0.00  0.00    +0.090 C 
ATOM      2  N   UNL     1      -3.347   1.877  23.914  0.00  0.00    -0.271 NA
ATOM      3  C   UNL     1      -3.520   1.070  23.902  0.00  0.00    +0.083 C 
ATOM      4  C   UNL     1      -3.221   0.550  23.335  0.00  0.00    +0.035 C 
ATOM      5  C   UNL     1      -3.514  -0.203  23.501  0.00  0.00    +0.074 C 
ATOM      6  N   UNL     1      -3.994  -0.148  24.170  0.00  0.00    -0.262 NA
ATOM     15  C   UNL     1      -3.998   0.639  24.418  0.00  0.00    +0.151 C 
ATOM     16  C   UNL     1      -4.420   0.908  25.073  0.00  0.00    +0.257 C 
ATOM     17  O   UNL     1      -4.850   0.333  25.482  0.00  0.00    -0.272 OA
ATOM     18  N   UNL     1      -4.469   1.673  25.375  0.00  0.00    -0.203 NA
ATOM     19  C   UNL     1      -4.107   2.361  25.096  0.00  0.00    +0.131 C 
ATOM     20  C   UNL     1      -3.608   2.451  24.445  0.00  0.00    +0.080 C 
ENDROOT
BRANCH   6   7
ATOM      7  C   UNL     1      -4.399  -0.771  24.529  0.00  0.00    +0.100 C 
BRANCH   7   8
ATOM      8  C   UNL     1      -4.131  -1.546  24.435  0.00  0.00    -0.005 A 
ATOM      9  C   UNL     1      -4.395  -2.000  23.799  0.00  0.00    -0.003 A 
ATOM     10  C   UNL     1      -4.126  -2.773  23.706  0.00  0.00    +0.001 A 
ATOM     11  C   UNL     1      -3.594  -3.095  24.248  0.00  0.00    +0.011 A 
ATOM     12  C   UNL     1      -3.331  -2.640  24.885  0.00  0.00    +0.057 A 
ATOM     13 CL   UNL     1      -2.798  -2.960  25.428  0.00  0.00    -0.082 Cl
ATOM     14  C   UNL     1      -3.599  -1.866  24.979  0.00  0.00    +0.008 A 
ENDBRANCH   7   8
ENDBRANCH   6   7
BRANCH  20  21
ATOM     21  C   UNL     1      -3.334   3.217  24.309  0.00  0.00    +0.027 C 
BRANCH  21  22
ATOM     22  C   UNL     1      -2.805   3.566  24.838  0.00  0.00    +0.087 C 
BRANCH  22  23
ATOM     23  C   UNL     1      -2.651   4.375  24.793  0.00  0.00    +0.226 C 
ATOM     24  O   UNL     1      -3.265   4.905  24.641  0.00  0.00    -0.275 OA
ATOM     25  N   UNL     1      -1.881   4.655  24.899  0.00  0.00    -0.280 N 
ATOM     26  C   UNL     1      -1.644   5.444  24.870  0.00  0.00    +0.093 C 
ATOM     27  C   UNL     1      -0.831   5.471  25.007  0.00  0.00    +0.023 C 
ATOM     28  C   UNL     1      -0.566   4.699  25.120  0.00  0.00    +0.023 C 
ATOM     29  C   UNL     1      -1.215   4.194  25.054  0.00  0.00    +0.093 C 
ENDBRANCH  22  23
ENDBRANCH  21  22
ENDBRANCH  20  21
TORSDOF 5
ENDMDL
MODEL 2
REMARK VINA RESULT:     -10.6      1.585      1.827
REMARK  Name = 
REMARK  5 active torsions:
REMARK  status: ('A' for Active; 'I' for Inactive)
REMARK    1  A    between atoms: N_6  and  C_7
REMARK    2  A    between atoms: C_7  and  C_8
REMARK    3  A    between atoms: C_20  and  C_21
REMARK    4  A    between atoms: C_21  and  C_22
REMARK    5  A    between atoms: C_22  and  C_23
REMARK                            x       y       z     vdW  Elec       q    Type
REMARK                         _______ _______ _______ _____ _____    ______ ____
ROOT
ATOM      1  C   UNL     1      -0.544   0.915  24.774  0.00  0.00    +0.090 C 
ATOM      2  N   UNL     1      -1.362   0.981  24.863  0.00  0.00    -0.271 NA
ATOM      3  C   UNL     1      -1.770   0.269  24.954  0.00  0.00    +0.083 C 
ATOM      4  C   UNL     1      -1.401  -0.469  24.959  0.00  0.00    +0.035 C 
ATOM      5  C   UNL     1      -1.982  -1.044  25.062  0.00  0.00    +0.074 C 
ATOM      6  N   UNL     1      -2.712  -0.662  25.121  0.00  0.00    -0.262 NA
ATOM     15  C   UNL     1      -2.580   0.150  25.054  0.00  0.00    +0.151 C 
ATOM     16  C   UNL     1      -3.182   0.713  25.087  0.00  0.00    +0.257 C 
ATOM     17  O   UNL     1      -3.945   0.415  25.193  0.00  0.00    -0.272 OA
ATOM     18  N   UNL     1      -3.124   1.533  25.029  0.00  0.00    -0.203 NA
ATOM     19  C   UNL     1      -2.447   1.994  24.922  0.00  0.00    +0.131 C 
ATOM     20  C   UNL     1      -1.663   1.748  24.848  0.00  0.00    +0.080 C 
ENDROOT
BRANCH   6   7
ATOM      7  C   UNL     1      -3.444  -1.027  25.228  0.00  0.00    +0.100 C 
BRANCH   7   8
ATOM      8  C   UNL     1      -3.581  -1.776  24.910  0.00  0.00    -0.005 A 
ATOM      9  C   UNL     1      -3.316  -2.448  25.308  0.00  0.00    -0.003 A 
ATOM     10  C   UNL     1      -3.454  -3.196  24.990  0.00  0.00    +0.001 A 
ATOM     11  C   UNL     1      -3.856  -3.274  24.274  0.00  0.00    +0.011 A 
ATOM     12  C   UNL     1      -4.120  -2.601  23.876  0.00  0.00    +0.057 A 
ATOM     13 CL   UNL     1      -4.523  -2.677  23.160  0.00  0.00    -0.082 Cl
ATOM     14  C   UNL     1      -3.983  -1.853  24.194  0.00  0.00    +0.008 A 
ENDBRANCH   7   8
ENDBRANCH   6   7
BRANCH  20  21
ATOM     21  C   UNL     1      -1.108   2.350  24.747  0.00  0.00    +0.027 C 
BRANCH  21  22
ATOM     22  C   UNL     1      -1.302   3.127  24.945  0.00  0.00    +0.087 C 
BRANCH  22  23
ATOM     23  C   UNL     1      -0.810   3.747  24.710  0.00  0.00    +0.226 C 
ATOM     24  O   UNL     1      -0.090   3.586  24.340  0.00  0.00    -0.275 OA
ATOM     25  N   UNL     1      -1.038   4.528  24.846  0.00  0.00    -0.280 N 
ATOM     26  C   UNL     1      -0.606   5.201  24.644  0.00  0.00    +0.093 C 
ATOM     27  C   UNL     1      -1.039   5.862  24.881  0.00  0.00    +0.023 C 
ATOM     28  C   UNL     1      -1.737   5.598  25.230  0.00  0.00    +0.023 C 
ATOM     29  C   UNL     1      -1.737   4.773  25.208  0.00  0.00    +0.093 C 
ENDBRANCH  22  23
ENDBRANCH  21  22
ENDBRANCH  20  21
TORSDOF 5
ENDMDL
MODEL 3
REMARK VINA RESULT:     -10.6      2.641      6.040
REMARK  Name = 
REMARK  5 active torsions:
REMARK  status: ('A' for Active; 'I' for Inactive)
REMARK    1  A    between atoms: N_6  and  C_7
REMARK    2  A    between atoms: C_7  and  C_8
REMARK    3  A    between atoms: C_20  and  C_21
REMARK    4  A    between atoms: C_21  and  C_22
REMARK    5  A    between atoms: C_22  and  C_23
REMARK                            x       y       z     vdW  Elec       q    Type
REMARK                         _______ _______ _______ _____ _____    ______ ____
ROOT
ATOM      1  C   UNL     1      -1.256   0.384  23.414  0.00  0.00    +0.090 C 
ATOM      2  N   UNL     1      -1.082   0.617  24.187  0.00  0.00    -0.271 NA
ATOM      3  C   UNL     1      -0.974   1.427  24.300  0.00  0.00    +0.083 C 
ATOM      4  C   UNL     1      -1.032   1.983  23.692  0.00  0.00    +0.035 C 
ATOM      5  C   UNL     1      -0.890   2.728  24.015  0.00  0.00    +0.074 C 
ATOM      6  N   UNL     1      -0.744   2.634  24.822  0.00  0.00    -0.262 NA
ATOM     15  C   UNL     1      -0.796   1.829  24.997  0.00  0.00    +0.151 C 
ATOM     16  C   UNL     1      -0.682   1.521  25.754  0.00  0.00    +0.257 C 
ATOM     17  O   UNL     1      -0.510   2.073  26.343  0.00  0.00    -0.272 OA
ATOM     18  N   UNL     1      -0.719   0.735  26.000  0.00  0.00    -0.203 NA
ATOM     19  C   UNL     1      -0.877   0.062  25.550  0.00  0.00    +0.131 C 
ATOM     20  C   UNL     1      -1.039   0.009  24.743  0.00  0.00    +0.080 C 
ENDROOT
BRANCH   6   7
ATOM      7  C   UNL     1      -0.576   3.238  25.358  0.00  0.00    +0.100 C 
BRANCH   7   8
ATOM      8  C   UNL     1      -0.923   3.981  25.265  0.00  0.00    -0.005 A 
ATOM      9  C   UNL     1      -0.515   4.580  24.871  0.00  0.00    -0.003 A 
ATOM     10  C   UNL     1      -0.863   5.321  24.777  0.00  0.00    +0.001 A 
ATOM     11  C   UNL     1      -1.617   5.466  25.078  0.00  0.00    +0.011 A 
ATOM     12  C   UNL     1      -2.024   4.866  25.472  0.00  0.00    +0.057 A 
ATOM     13 CL   UNL     1      -2.779   5.009  25.773  0.00  0.00    -0.082 Cl
ATOM     14  C   UNL     1      -1.678   4.124  25.566  0.00  0.00    +0.008 A 
ENDBRANCH   7   8
ENDBRANCH   6   7
BRANCH  20  21
ATOM     21  C   UNL     1      -1.176  -0.752  24.454  0.00  0.00    +0.027 C 
BRANCH  21  22
ATOM     22  C   UNL     1      -1.756  -1.225  24.800  0.00  0.00    +0.087 C 
BRANCH  22  23
ATOM     23  C   UNL     1      -1.880  -1.993  24.524  0.00  0.00    +0.226 C 
ATOM     24  O   UNL     1      -1.240  -2.449  24.271  0.00  0.00    -0.275 OA
ATOM     25  N   UNL     1      -2.644  -2.305  24.502  0.00  0.00    -0.280 N 
ATOM     26  C   UNL     1      -2.852  -3.059  24.242  0.00  0.00    +0.093 C 
ATOM     27  C   UNL     1      -3.669  -3.137  24.315  0.00  0.00    +0.023 C 
ATOM     28  C   UNL     1      -3.967  -2.432  24.620  0.00  0.00    +0.023 C 
ATOM     29  C   UNL     1      -3.332  -1.917  24.736  0.00  0.00    +0.093 C 
ENDBRANCH  22  23
ENDBRANCH  21  22
ENDBRANCH  20  21
TORSDOF 5
ENDMDL
MODEL 4
REMARK VINA RESULT:     -10.4      2.075      5.869
REMARK  Name = 
REMARK  5 active torsions:
REMARK  status: ('A' for Active; 'I' for Inactive)
REMARK    1  A    between atoms: N_6  and  C_7
REMARK    2  A    between atoms: C_7  and  C_8
REMARK    3  A    between atoms: C_20  and  C_21
REMARK    4  A    between atoms: C_21  and  C_22
REMARK    5  A    between atoms: C_22  and  C_23
REMARK                            x       y       z     vdW  Elec       q    Type
REMARK                         _______ _______ _______ _____ _____    ______ ____
ROOT
ATOM      1  C   UNL     1      -4.331   1.390  24.269  0.00  0.00    +0.090 C 
ATOM      2  N   UNL     1      -3.573   1.337  24.593  0.00  0.00    -0.271 NA
ATOM      3  C   UNL     1      -3.221   2.055  24.798  0.00  0.00    +0.083 C 
ATOM      4  C   UNL     1      -3.588   2.787  24.693  0.00  0.00    +0.035 C 
ATOM      5  C   UNL     1      -3.071   3.372  24.960  0.00  0.00    +0.074 C 
ATOM      6  N   UNL     1      -2.384   3.001  25.230  0.00  0.00    -0.262 NA
ATOM     15  C   UNL     1      -2.478   2.187  25.130  0.00  0.00    +0.151 C 
ATOM     16  C   UNL     1      -1.902   1.634  25.338  0.00  0.00    +0.257 C 
ATOM     17  O   UNL     1      -1.208   1.944  25.661  0.00  0.00    -0.272 OA
ATOM     18  N   UNL     1      -1.928   0.813  25.267  0.00  0.00    -0.203 NA
ATOM     19  C   UNL     1      -2.536   0.341  24.969  0.00  0.00    +0.131 C 
ATOM     20  C   UNL     1      -3.268   0.575  24.669  0.00  0.00    +0.080 C 
ENDROOT
BRANCH   6   7
ATOM      7  C   UNL     1      -1.721   3.378  25.545  0.00  0.00    +0.100 C 
BRANCH   7   8
ATOM      8  C   UNL     1      -1.538   4.150  25.317  0.00  0.00    -0.005 A 
ATOM      9  C   UNL     1      -2.008   4.778  25.573  0.00  0.00    -0.003 A 
ATOM     10  C   UNL     1      -1.825   5.548  25.345  0.00  0.00    +0.001 A 
ATOM     11  C   UNL     1      -1.173   5.692  24.861  0.00  0.00    +0.011 A 
ATOM     12  C   UNL     1      -0.704   5.063  24.604  0.00  0.00    +0.057 A 
ATOM     13 CL   UNL     1      -0.052   5.207  24.119  0.00  0.00    -0.082 Cl
ATOM     14  C   UNL     1      -0.886   4.293  24.832  0.00  0.00    +0.008 A 
ENDBRANCH   7   8
ENDBRANCH   6   7
BRANCH  20  21
ATOM     21  C   UNL     1      -3.760  -0.036  24.411  0.00  0.00    +0.027 C 
BRANCH  21  22
ATOM     22  C   UNL     1      -3.549  -0.821  24.550  0.00  0.00    +0.087 C 
BRANCH  22  23
ATOM     23  C   UNL     1      -4.003  -1.432  24.232  0.00  0.00    +0.226 C 
ATOM     24  O   UNL     1      -4.710  -1.261  23.841  0.00  0.00    -0.275 OA
ATOM     25  N   UNL     1      -3.751  -2.214  24.306  0.00  0.00    -0.280 N 
ATOM     26  C   UNL     1      -4.145  -2.880  24.019  0.00  0.00    +0.093 C 
ATOM     27  C   UNL     1      -3.699  -3.545  24.216  0.00  0.00    +0.023 C 
ATOM     28  C   UNL     1      -3.030  -3.291  24.624  0.00  0.00    +0.023 C 
ATOM     29  C   UNL     1      -3.062  -2.468  24.681  0.00  0.00    +0.093 C 
ENDBRANCH  22  23
ENDBRANCH  21  22
ENDBRANCH  20  21
TORSDOF 5
ENDMDL
MODEL 5
REMARK VINA RESULT:      -9.7      3.350      4.639
REMARK  Name = 
REMARK  5 active torsions:
REMARK  status: ('A' for Active; 'I' for Inactive)
REMARK    1  A    between atoms: N_6  and  C_7
REMARK    2  A    between atoms: C_7  and  C_8
REMARK    3  A    between atoms: C_20  and  C_21
REMARK    4  A    between atoms: C_21  and  C_22
REMARK    5  A    between atoms: C_22  and  C_23
REMARK                            x       y       z     vdW  Elec       q    Type
REMARK                         _______ _______ _______ _____ _____    ______ ____
ROOT
ATOM      1  C   UNL     1      -1.278  -0.186  24.770  0.00  0.00    +0.090 C 
ATOM      2  N   UNL     1      -1.454   0.497  24.341  0.00  0.00    -0.271 NA
ATOM      3  C   UNL     1      -2.191   0.834  24.494  0.00  0.00    +0.083 C 
ATOM      4  C   UNL     1      -2.730   0.523  25.036  0.00  0.00    +0.035 C 
ATOM      5  C   UNL     1      -3.399   1.007  25.037  0.00  0.00    +0.074 C 
ATOM      6  N   UNL     1      -3.273   1.617  24.496  0.00  0.00    -0.262 NA
ATOM     15  C   UNL     1      -2.527   1.510  24.160  0.00  0.00    +0.151 C 
ATOM     16  C   UNL     1      -2.208   2.015  23.591  0.00  0.00    +0.257 C 
ATOM     17  O   UNL     1      -2.686   2.650  23.368  0.00  0.00    -0.272 OA
ATOM     18  N   UNL     1      -1.475   1.969  23.215  0.00  0.00    -0.203 NA
ATOM     19  C   UNL     1      -0.880   1.407  23.316  0.00  0.00    +0.131 C 
ATOM     20  C   UNL     1      -0.871   0.752  23.817  0.00  0.00    +0.080 C 
ENDROOT
BRANCH   6   7
ATOM      7  C   UNL     1      -3.801   2.226  24.320  0.00  0.00    +0.100 C 
BRANCH   7   8
ATOM      8  C   UNL     1      -4.466   2.345  24.795  0.00  0.00    -0.005 A 
ATOM      9  C   UNL     1      -4.427   2.858  25.440  0.00  0.00    -0.003 A 
ATOM     10  C   UNL     1      -5.091   2.975  25.913  0.00  0.00    +0.001 A 
ATOM     11  C   UNL     1      -5.796   2.581  25.743  0.00  0.00    +0.011 A 
ATOM     12  C   UNL     1      -5.834   2.068  25.097  0.00  0.00    +0.057 A 
ATOM     13 CL   UNL     1      -6.538   1.673  24.926  0.00  0.00    -0.082 Cl
ATOM     14  C   UNL     1      -5.170   1.950  24.623  0.00  0.00    +0.008 A 
ENDBRANCH   7   8
ENDBRANCH   6   7
BRANCH  20  21
ATOM     21  C   UNL     1      -0.187   0.290  23.790  0.00  0.00    +0.027 C 
BRANCH  21  22
ATOM     22  C   UNL     1       0.489   0.578  23.414  0.00  0.00    +0.087 C 
BRANCH  22  23
ATOM     23  C   UNL     1       1.028   0.052  23.076  0.00  0.00    +0.226 C 
ATOM     24  O   UNL     1       0.784  -0.706  22.859  0.00  0.00    -0.275 OA
ATOM     25  N   UNL     1       1.810   0.284  22.954  0.00  0.00    -0.280 N 
ATOM     26  C   UNL     1       2.407  -0.179  22.623  0.00  0.00    +0.093 C 
ATOM     27  C   UNL     1       3.098   0.271  22.606  0.00  0.00    +0.023 C 
ATOM     28  C   UNL     1       2.928   1.011  22.926  0.00  0.00    +0.023 C 
ATOM     29  C   UNL     1       2.131   1.020  23.141  0.00  0.00    +0.093 C 
ENDBRANCH  22  23
ENDBRANCH  21  22
ENDBRANCH  20  21
TORSDOF 5
ENDMDL
