MODEL 1
REMARK VINA RESULT:      -9.9      0.000      0.000
REMARK  Name = 
REMARK  8 active torsions:
REMARK  status: ('A' for Active; 'I' for Inactive)
REMARK    1  A    between atoms: O_2  and  C_3
REMARK    2  A    between atoms: C_3  and  C_4
REMARK    3  A    between atoms: C_4  and  O_5
REMARK    4  A    between atoms: O_5  and  C_6
REMARK    5  A    between atoms: C_9  and  C_12
REMARK    6  A    between atoms: C_15  and  C_17
REMARK    7  A    between atoms: N_21  and  C_22
REMARK    8  A    between atoms: C_22  and  C_23
REMARK                            x       y       z     vdW  Elec       q    Type
REMARK                         _______ _______ _______ _____ _____    ______ ____
ROOT
ATOM     12  C   UNL     1      -0.832   0.701  24.483  0.00  0.00    +0.205 A 
ATOM     13  N   UNL     1      -0.874   0.876  25.289  0.00  0.00    -0.056 NA
ATOM     14  O   UNL     1      -1.671   0.912  25.501  0.00  0.00    -0.336 OA
ATOM     15  C   UNL     1      -2.121   0.759  24.827  0.00  0.00    +0.251 A 
ATOM     16  N   UNL     1      -1.603   0.629  24.198  0.00  0.00    -0.190 NA
ENDROOT
BRANCH  12   9
ATOM      6  C   UNL     1       1.241   0.440  23.156  0.00  0.00    +0.225 A 
ATOM      7  C   UNL     1       0.722  -0.197  23.242  0.00  0.00    +0.058 A 
ATOM      8  C   UNL     1       0.031  -0.110  23.684  0.00  0.00    +0.010 A 
ATOM      9  C   UNL     1      -0.141   0.614  24.041  0.00  0.00    +0.058 A 
ATOM     10  C   UNL     1       0.376   1.250  23.955  0.00  0.00    +0.105 A 
ATOM     11  N   UNL     1       1.067   1.163  23.513  0.00  0.00    -0.210 NA
BRANCH   6   5
ATOM      5  O   UNL     1       1.932   0.352  22.714  0.00  0.00    -0.457 OA
BRANCH   5   4
ATOM      4  C   UNL     1       2.656   0.584  23.032  0.00  0.00    +0.239 C 
BRANCH   4   3
ATOM      3  C   UNL     1       3.355   0.430  22.621  0.00  0.00    +0.189 C 
BRANCH   3   2
ATOM      1  C   UNL     1       4.719   0.407  23.048  0.00  0.00    +0.174 C 
ATOM      2  O   UNL     1       4.048   0.831  22.821  0.00  0.00    -0.347 OA
ENDBRANCH   3   2
ENDBRANCH   4   3
ENDBRANCH   5   4
ENDBRANCH   6   5
ENDBRANCH  12   9
BRANCH  15  17
ATOM     17  C   UNL     1      -2.945   0.740  24.788  0.00  0.00    +0.138 C 
ATOM     18  C   UNL     1      -3.439   1.385  24.643  0.00  0.00    +0.027 C 
ATOM     19  C   UNL     1      -4.219   1.116  24.653  0.00  0.00    +0.019 C 
ATOM     20  C   UNL     1      -4.207   0.306  24.804  0.00  0.00    +0.073 C 
ATOM     21  N   UNL     1      -3.420   0.073  24.888  0.00  0.00    -0.263 NA
BRANCH  21  22
ATOM     22  C   UNL     1      -3.155  -0.692  25.044  0.00  0.00    +0.099 C 
BRANCH  22  23
ATOM     23  C   UNL     1      -3.518  -1.337  24.681  0.00  0.00    -0.010 A 
ATOM     24  C   UNL     1      -3.978  -1.225  24.005  0.00  0.00    -0.003 A 
ATOM     25  C   UNL     1      -4.341  -1.870  23.642  0.00  0.00    -0.000 A 
ATOM     26  C   UNL     1      -4.247  -2.627  23.954  0.00  0.00    -0.000 A 
ATOM     27  C   UNL     1      -3.788  -2.740  24.631  0.00  0.00    -0.005 A 
ATOM     28  C   UNL     1      -3.423  -2.094  24.994  0.00  0.00    -0.024 A 
ATOM     29  C   UNL     1      -2.965  -2.207  25.670  0.00  0.00    +0.031 C 
ENDBRANCH  22  23
ENDBRANCH  21  22
ENDBRANCH  15  17
TORSDOF 8
ENDMDL
MODEL 2
REMARK VINA RESULT:      -9.9      0.885      2.393
REMARK  Name = 
REMARK  8 active torsions:
REMARK  status: ('A' for Active; 'I' for Inactive)
REMARK    1  A    between atoms: O_2  and  C_3
REMARK    2  A    between atoms: C_3  and  C_4
REMARK    3  A    between atoms: C_4  and  O_5
REMARK    4  A    between atoms: O_5  and  C_6
REMARK    5  A    between atoms: C_9  and  C_12
REMARK    6  A    between atoms: C_15  and  C_17
REMARK    7  A    between atoms: N_21  and  C_22
REMARK    8  A    between atoms: C_22  and  C_23
REMARK                            x       y       z     vdW  Elec       q    Type
REMARK                         _______ _______ _______ _____ _____    ______ ____
ROOT
ATOM     12  C   UNL     1      -0.984  -0.053  24.432  0.00  0.00    +0.205 A 
ATOM     13  N   UNL     1      -1.061   0.010  25.251  0.00  0.00    -0.056 NA
ATOM     14  O   UNL     1      -1.851  -0.128  25.445  0.00  0.00    -0.336 OA
ATOM     15  C   UNL     1      -2.263  -0.276  24.745  0.00  0.00    +0.251 A 
ATOM     16  N   UNL     1      -1.727  -0.230  24.119  0.00  0.00    -0.190 NA
ENDROOT
BRANCH  12   9
ATOM      6  C   UNL     1       1.107   0.237  23.140  0.00  0.00    +0.225 A 
ATOM      7  C   UNL     1       0.683   0.898  23.394  0.00  0.00    +0.058 A 
ATOM      8  C   UNL     1      -0.014   0.802  23.825  0.00  0.00    +0.010 A 
ATOM      9  C   UNL     1      -0.287   0.043  24.001  0.00  0.00    +0.058 A 
ATOM     10  C   UNL     1       0.135  -0.618  23.747  0.00  0.00    +0.105 A 
ATOM     11  N   UNL     1       0.832  -0.521  23.317  0.00  0.00    -0.210 NA
BRANCH   6   5
ATOM      5  O   UNL     1       1.804   0.333  22.709  0.00  0.00    -0.457 OA
BRANCH   5   4
ATOM      4  C   UNL     1       2.502   0.538  23.096  0.00  0.00    +0.239 C 
BRANCH   4   3
ATOM      3  C   UNL     1       3.215   0.555  22.680  0.00  0.00    +0.189 C 
BRANCH   3   2
ATOM      1  C   UNL     1       4.597   0.556  23.046  0.00  0.00    +0.174 C 
ATOM      2  O   UNL     1       3.870   0.943  22.999  0.00  0.00    -0.347 OA
ENDBRANCH   3   2
ENDBRANCH   4   3
ENDBRANCH   5   4
ENDBRANCH   6   5
ENDBRANCH  12   9
BRANCH  15  17
ATOM     17  C   UNL     1      -3.068  -0.442  24.682  0.00  0.00    +0.138 C 
ATOM     18  C   UNL     1      -3.409  -1.194  24.668  0.00  0.00    +0.027 C 
ATOM     19  C   UNL     1      -4.226  -1.101  24.599  0.00  0.00    +0.019 C 
ATOM     20  C   UNL     1      -4.390  -0.294  24.571  0.00  0.00    +0.073 C 
ATOM     21  N   UNL     1      -3.675   0.114  24.623  0.00  0.00    -0.263 NA
BRANCH  21  22
ATOM     22  C   UNL     1      -3.582   0.934  24.615  0.00  0.00    +0.099 C 
BRANCH  22  23
ATOM     23  C   UNL     1      -4.230   1.423  24.759  0.00  0.00    -0.010 A 
ATOM     24  C   UNL     1      -4.818   1.185  25.287  0.00  0.00    -0.003 A 
ATOM     25  C   UNL     1      -5.466   1.674  25.431  0.00  0.00    -0.000 A 
ATOM     26  C   UNL     1      -5.526   2.403  25.048  0.00  0.00    -0.000 A 
ATOM     27  C   UNL     1      -4.938   2.642  24.521  0.00  0.00    -0.005 A 
ATOM     28  C   UNL     1      -4.290   2.151  24.377  0.00  0.00    -0.024 A 
ATOM     29  C   UNL     1      -3.702   2.391  23.850  0.00  0.00    +0.031 C 
ENDBRANCH  22  23
ENDBRANCH  21  22
ENDBRANCH  15  17
TORSDOF 8
ENDMDL
MODEL 3
REMARK VINA RESULT:      -8.9      2.571      4.759
REMARK  Name = 
REMARK  8 active torsions:
REMARK  status: ('A' for Active; 'I' for Inactive)
REMARK    1  A    between atoms: O_2  and  C_3
REMARK    2  A    between atoms: C_3  and  C_4
REMARK    3  A    between atoms: C_4  and  O_5
REMARK    4  A    between atoms: O_5  and  C_6
REMARK    5  A    between atoms: C_9  and  C_12
REMARK    6  A    between atoms: C_15  and  C_17
REMARK    7  A    between atoms: N_21  and  C_22
REMARK    8  A    between atoms: C_22  and  C_23
REMARK                            x       y       z     vdW  Elec       q    Type
REMARK                         _______ _______ _______ _____ _____    ______ ____
ROOT
ATOM     12  C   UNL     1      -0.587   1.673  25.450  0.00  0.00    +0.205 A 
ATOM     13  N   UNL     1      -0.059   1.978  26.006  0.00  0.00    -0.056 NA
ATOM     14  O   UNL     1      -0.124   2.801  25.994  0.00  0.00    -0.336 OA
ATOM     15  C   UNL     1      -0.691   3.004  25.431  0.00  0.00    +0.251 A 
ATOM     16  N   UNL     1      -0.978   2.307  25.095  0.00  0.00    -0.190 NA
ENDROOT
BRANCH  12   9
ATOM      6  C   UNL     1      -0.936  -0.723  24.939  0.00  0.00    +0.225 A 
ATOM      7  C   UNL     1      -1.198  -0.412  25.657  0.00  0.00    +0.058 A 
ATOM      8  C   UNL     1      -1.082   0.387  25.827  0.00  0.00    +0.010 A 
ATOM      9  C   UNL     1      -0.703   0.874  25.280  0.00  0.00    +0.058 A 
ATOM     10  C   UNL     1      -0.441   0.563  24.563  0.00  0.00    +0.105 A 
ATOM     11  N   UNL     1      -0.557  -0.235  24.392  0.00  0.00    -0.210 NA
BRANCH   6   5
ATOM      5  O   UNL     1      -1.052  -1.522  24.769  0.00  0.00    -0.457 OA
BRANCH   5   4
ATOM      4  C   UNL     1      -1.776  -1.778  24.467  0.00  0.00    +0.239 C 
BRANCH   4   3
ATOM      3  C   UNL     1      -1.986  -2.574  24.520  0.00  0.00    +0.189 C 
BRANCH   3   2
ATOM      1  C   UNL     1      -3.349  -3.003  24.493  0.00  0.00    +0.174 C 
ATOM      2  O   UNL     1      -2.638  -2.857  24.101  0.00  0.00    -0.347 OA
ENDBRANCH   3   2
ENDBRANCH   4   3
ENDBRANCH   5   4
ENDBRANCH   6   5
ENDBRANCH  12   9
BRANCH  15  17
ATOM     17  C   UNL     1      -0.931   3.769  25.238  0.00  0.00    +0.138 C 
ATOM     18  C   UNL     1      -0.472   4.340  24.857  0.00  0.00    +0.027 C 
ATOM     19  C   UNL     1      -0.929   5.022  24.775  0.00  0.00    +0.019 C 
ATOM     20  C   UNL     1      -1.671   4.873  25.104  0.00  0.00    +0.073 C 
ATOM     21  N   UNL     1      -1.672   4.098  25.390  0.00  0.00    -0.263 NA
BRANCH  21  22
ATOM     22  C   UNL     1      -2.303   3.721  25.763  0.00  0.00    +0.099 C 
BRANCH  22  23
ATOM     23  C   UNL     1      -3.066   3.794  25.459  0.00  0.00    -0.010 A 
ATOM     24  C   UNL     1      -3.187   3.786  24.643  0.00  0.00    -0.003 A 
ATOM     25  C   UNL     1      -3.950   3.859  24.338  0.00  0.00    -0.000 A 
ATOM     26  C   UNL     1      -4.592   3.941  24.849  0.00  0.00    -0.000 A 
ATOM     27  C   UNL     1      -4.472   3.949  25.666  0.00  0.00    -0.005 A 
ATOM     28  C   UNL     1      -3.708   3.876  25.970  0.00  0.00    -0.024 A 
ATOM     29  C   UNL     1      -3.588   3.884  26.786  0.00  0.00    +0.031 C 
ENDBRANCH  22  23
ENDBRANCH  21  22
ENDBRANCH  15  17
TORSDOF 8
ENDMDL
MODEL 4
REMARK VINA RESULT:      -8.9      1.944      2.733
REMARK  Name = 
REMARK  8 active torsions:
REMARK  status: ('A' for Active; 'I' for Inactive)
REMARK    1  A    between atoms: O_2  and  C_3
REMARK    2  A    between atoms: C_3  and  C_4
REMARK    3  A    between atoms: C_4  and  O_5
REMARK    4  A    between atoms: O_5  and  C_6
REMARK    5  A    between atoms: C_9  and  C_12
REMARK    6  A    between atoms: C_15  and  C_17
REMARK    7  A    between atoms: N_21  and  C_22
REMARK    8  A    between atoms: C_22  and  C_23
REMARK                            x       y       z     vdW  Elec       q    Type
REMARK                         _______ _______ _______ _____ _____    ______ ____
ROOT
ATOM     12  C   UNL     1      -0.696   1.916  24.857  0.00  0.00    +0.205 A 
ATOM     13  N   UNL     1      -0.844   1.788  25.659  0.00  0.00    -0.056 NA
ATOM     14  O   UNL     1      -1.465   2.282  25.886  0.00  0.00    -0.336 OA
ATOM     15  C   UNL     1      -1.701   2.715  25.224  0.00  0.00    +0.251 A 
ATOM     16  N   UNL     1      -1.226   2.488  24.588  0.00  0.00    -0.190 NA
ENDROOT
BRANCH  12   9
ATOM      6  C   UNL     1       1.033   0.781  23.498  0.00  0.00    +0.225 A 
ATOM      7  C   UNL     1       0.280   0.450  23.567  0.00  0.00    +0.058 A 
ATOM      8  C   UNL     1      -0.297   0.829  24.020  0.00  0.00    +0.010 A 
ATOM      9  C   UNL     1      -0.120   1.538  24.404  0.00  0.00    +0.058 A 
ATOM     10  C   UNL     1       0.632   1.868  24.335  0.00  0.00    +0.105 A 
ATOM     11  N   UNL     1       1.209   1.489  23.882  0.00  0.00    -0.210 NA
BRANCH   6   5
ATOM      5  O   UNL     1       1.609   0.402  23.045  0.00  0.00    -0.457 OA
BRANCH   5   4
ATOM      4  C   UNL     1       2.383   0.687  23.041  0.00  0.00    +0.239 C 
BRANCH   4   3
ATOM      3  C   UNL     1       2.971   0.279  22.630  0.00  0.00    +0.189 C 
BRANCH   3   2
ATOM      1  C   UNL     1       4.388   0.426  22.745  0.00  0.00    +0.174 C 
ATOM      2  O   UNL     1       3.669   0.664  22.417  0.00  0.00    -0.347 OA
ENDBRANCH   3   2
ENDBRANCH   4   3
ENDBRANCH   5   4
ENDBRANCH   6   5
ENDBRANCH  12   9
BRANCH  15  17
ATOM     17  C   UNL     1      -2.306   3.275  25.201  0.00  0.00    +0.138 C 
ATOM     18  C   UNL     1      -2.212   4.093  25.266  0.00  0.00    +0.027 C 
ATOM     19  C   UNL     1      -2.959   4.440  25.214  0.00  0.00    +0.019 C 
ATOM     20  C   UNL     1      -3.514   3.837  25.119  0.00  0.00    +0.073 C 
ATOM     21  N   UNL     1      -3.110   3.117  25.111  0.00  0.00    -0.263 NA
BRANCH  21  22
ATOM     22  C   UNL     1      -3.452   2.371  25.026  0.00  0.00    +0.099 C 
BRANCH  22  23
ATOM     23  C   UNL     1      -4.265   2.277  25.123  0.00  0.00    -0.010 A 
ATOM     24  C   UNL     1      -4.690   2.807  25.592  0.00  0.00    -0.003 A 
ATOM     25  C   UNL     1      -5.503   2.712  25.688  0.00  0.00    -0.000 A 
ATOM     26  C   UNL     1      -5.893   2.088  25.316  0.00  0.00    -0.000 A 
ATOM     27  C   UNL     1      -5.469   1.557  24.847  0.00  0.00    -0.005 A 
ATOM     28  C   UNL     1      -4.655   1.652  24.751  0.00  0.00    -0.024 A 
ATOM     29  C   UNL     1      -4.231   1.122  24.282  0.00  0.00    +0.031 C 
ENDBRANCH  22  23
ENDBRANCH  21  22
ENDBRANCH  15  17
TORSDOF 8
ENDMDL
MODEL 5
REMARK VINA RESULT:      -8.8      2.505      3.043
REMARK  Name = 
REMARK  8 active torsions:
REMARK  status: ('A' for Active; 'I' for Inactive)
REMARK    1  A    between atoms: O_2  and  C_3
REMARK    2  A    between atoms: C_3  and  C_4
REMARK    3  A    between atoms: C_4  and  O_5
REMARK    4  A    between atoms: O_5  and  C_6
REMARK    5  A    between atoms: C_9  and  C_12
REMARK    6  A    between atoms: C_15  and  C_17
REMARK    7  A    between atoms: N_21  and  C_22
REMARK    8  A    between atoms: C_22  and  C_23
REMARK                            x       y       z     vdW  Elec       q    Type
REMARK                         _______ _______ _______ _____ _____    ______ ____
ROOT
ATOM     12  C   UNL     1      -1.880   1.908  24.954  0.00  0.00    +0.205 A 
ATOM     13  N   UNL     1      -1.970   2.000  24.138  0.00  0.00    -0.056 NA
ATOM     14  O   UNL     1      -2.717   1.716  23.931  0.00  0.00    -0.336 OA
ATOM     15  C   UNL     1      -3.088   1.449  24.617  0.00  0.00    +0.251 A 
ATOM     16  N   UNL     1      -2.570   1.567  25.250  0.00  0.00    -0.190 NA
ENDROOT
BRANCH  12   9
ATOM      6  C   UNL     1       0.112   2.544  26.278  0.00  0.00    +0.225 A 
ATOM      7  C   UNL     1      -0.554   3.032  26.273  0.00  0.00    +0.058 A 
ATOM      8  C   UNL     1      -1.218   2.820  25.832  0.00  0.00    +0.010 A 
ATOM      9  C   UNL     1      -1.216   2.120  25.395  0.00  0.00    +0.058 A 
ATOM     10  C   UNL     1      -0.552   1.632  25.400  0.00  0.00    +0.105 A 
ATOM     11  N   UNL     1       0.112   1.844  25.841  0.00  0.00    -0.210 NA
BRANCH   6   5
ATOM      5  O   UNL     1       0.776   2.755  26.719  0.00  0.00    -0.457 OA
BRANCH   5   4
ATOM      4  C   UNL     1       0.802   2.594  27.527  0.00  0.00    +0.239 C 
BRANCH   4   3
ATOM      3  C   UNL     1       1.501   2.715  27.949  0.00  0.00    +0.189 C 
BRANCH   3   2
ATOM      1  C   UNL     1       2.218   2.700  29.186  0.00  0.00    +0.174 C 
ATOM      2  O   UNL     1       1.527   2.556  28.759  0.00  0.00    -0.347 OA
ENDBRANCH   3   2
ENDBRANCH   4   3
ENDBRANCH   5   4
ENDBRANCH   6   5
ENDBRANCH  12   9
BRANCH  15  17
ATOM     17  C   UNL     1      -3.843   1.120  24.664  0.00  0.00    +0.138 C 
ATOM     18  C   UNL     1      -4.555   1.535  24.625  0.00  0.00    +0.027 C 
ATOM     19  C   UNL     1      -5.171   0.990  24.695  0.00  0.00    +0.019 C 
ATOM     20  C   UNL     1      -4.840   0.239  24.777  0.00  0.00    +0.073 C 
ATOM     21  N   UNL     1      -4.018   0.320  24.758  0.00  0.00    -0.263 NA
BRANCH  21  22
ATOM     22  C   UNL     1      -3.470  -0.293  24.822  0.00  0.00    +0.099 C 
BRANCH  22  23
ATOM     23  C   UNL     1      -3.678  -1.058  24.595  0.00  0.00    -0.010 A 
ATOM     24  C   UNL     1      -4.112  -1.180  23.904  0.00  0.00    -0.003 A 
ATOM     25  C   UNL     1      -4.320  -1.945  23.677  0.00  0.00    -0.000 A 
ATOM     26  C   UNL     1      -4.094  -2.589  24.141  0.00  0.00    -0.000 A 
ATOM     27  C   UNL     1      -3.660  -2.468  24.832  0.00  0.00    -0.005 A 
ATOM     28  C   UNL     1      -3.452  -1.702  25.059  0.00  0.00    -0.024 A 
ATOM     29  C   UNL     1      -3.018  -1.581  25.750  0.00  0.00    +0.031 C 
ENDBRANCH  22  23
ENDBRANCH  21  22
ENDBRANCH  15  17
TORSDOF 8
ENDMDL
MODEL 6
REMARK VINA RESULT:      -8.8      2.027      3.324
REMARK  Name = 
REMARK  8 active torsions:
REMARK  status: ('A' for Active; 'I' for Inactive)
REMARK    1  A    between atoms: O_2  and  C_3
REMARK    2  A    between atoms: C_3  and  C_4
REMARK    3  A    between atoms: C_4  and  O_5
REMARK    4  A    between atoms: O_5  and  C_6
REMARK    5  A    between atoms: C_9  and  C_12
REMARK    6  A    between atoms: C_15  and  C_17
REMARK    7  A    between atoms: N_21  and  C_22
REMARK    8  A    between atoms: C_22  and  C_23
REMARK                            x       y       z     vdW  Elec       q    Type
REMARK                         _______ _______ _______ _____ _____    ______ ____
ROOT
ATOM     12  C   UNL     1      -0.377   0.637  23.845  0.00  0.00    +0.205 A 
ATOM     13  N   UNL     1      -0.674   0.281  24.528  0.00  0.00    -0.056 NA
ATOM     14  O   UNL     1      -1.444   0.553  24.644  0.00  0.00    -0.336 OA
ATOM     15  C   UNL     1      -1.624   1.077  24.033  0.00  0.00    +0.251 A 
ATOM     16  N   UNL     1      -0.964   1.129  23.539  0.00  0.00    -0.190 NA
ENDROOT
BRANCH  12   9
ATOM      6  C   UNL     1       1.877   0.291  22.885  0.00  0.00    +0.225 A 
ATOM      7  C   UNL     1       1.282  -0.265  22.752  0.00  0.00    +0.058 A 
ATOM      8  C   UNL     1       0.530  -0.150  23.072  0.00  0.00    +0.010 A 
ATOM      9  C   UNL     1       0.374   0.522  23.525  0.00  0.00    +0.058 A 
ATOM     10  C   UNL     1       0.968   1.077  23.658  0.00  0.00    +0.105 A 
ATOM     11  N   UNL     1       1.720   0.962  23.338  0.00  0.00    -0.210 NA
BRANCH   6   5
ATOM      5  O   UNL     1       2.629   0.175  22.565  0.00  0.00    -0.457 OA
BRANCH   5   4
ATOM      4  C   UNL     1       3.282   0.550  22.901  0.00  0.00    +0.239 C 
BRANCH   4   3
ATOM      3  C   UNL     1       4.044   0.336  22.670  0.00  0.00    +0.189 C 
BRANCH   3   2
ATOM      1  C   UNL     1       5.304   0.165  23.324  0.00  0.00    +0.174 C 
ATOM      2  O   UNL     1       4.699   0.658  23.056  0.00  0.00    -0.347 OA
ENDBRANCH   3   2
ENDBRANCH   4   3
ENDBRANCH   5   4
ENDBRANCH   6   5
ENDBRANCH  12   9
BRANCH  15  17
ATOM     17  C   UNL     1      -2.337   1.479  23.932  0.00  0.00    +0.138 C 
ATOM     18  C   UNL     1      -2.987   1.212  23.498  0.00  0.00    +0.027 C 
ATOM     19  C   UNL     1      -3.578   1.787  23.546  0.00  0.00    +0.019 C 
ATOM     20  C   UNL     1      -3.294   2.407  24.009  0.00  0.00    +0.073 C 
ATOM     21  N   UNL     1      -2.527   2.217  24.248  0.00  0.00    -0.263 NA
BRANCH  21  22
ATOM     22  C   UNL     1      -2.036   2.684  24.719  0.00  0.00    +0.099 C 
BRANCH  22  23
ATOM     23  C   UNL     1      -2.358   3.288  25.178  0.00  0.00    -0.010 A 
ATOM     24  C   UNL     1      -3.110   3.201  25.507  0.00  0.00    -0.003 A 
ATOM     25  C   UNL     1      -3.432   3.805  25.966  0.00  0.00    -0.000 A 
ATOM     26  C   UNL     1      -3.004   4.498  26.096  0.00  0.00    -0.000 A 
ATOM     27  C   UNL     1      -2.252   4.586  25.767  0.00  0.00    -0.005 A 
ATOM     28  C   UNL     1      -1.930   3.981  25.307  0.00  0.00    -0.024 A 
ATOM     29  C   UNL     1      -1.179   4.069  24.978  0.00  0.00    +0.031 C 
ENDBRANCH  22  23
ENDBRANCH  21  22
ENDBRANCH  15  17
TORSDOF 8
ENDMDL
MODEL 7
REMARK VINA RESULT:      -8.8      3.355      5.600
REMARK  Name = 
REMARK  8 active torsions:
REMARK  status: ('A' for Active; 'I' for Inactive)
REMARK    1  A    between atoms: O_2  and  C_3
REMARK    2  A    between atoms: C_3  and  C_4
REMARK    3  A    between atoms: C_4  and  O_5
REMARK    4  A    between atoms: O_5  and  C_6
REMARK    5  A    between atoms: C_9  and  C_12
REMARK    6  A    between atoms: C_15  and  C_17
REMARK    7  A    between atoms: N_21  and  C_22
REMARK    8  A    between atoms: C_22  and  C_23
REMARK                            x       y       z     vdW  Elec       q    Type
REMARK                         _______ _______ _______ _____ _____    ______ ____
ROOT
ATOM     12  C   UNL     1      -4.194   1.686  24.579  0.00  0.00    +0.205 A 
ATOM     13  N   UNL     1      -4.569   2.247  24.104  0.00  0.00    -0.056 NA
ATOM     14  O   UNL     1      -4.447   2.990  24.443  0.00  0.00    -0.336 OA
ATOM     15  C   UNL     1      -3.998   2.887  25.128  0.00  0.00    +0.251 A 
ATOM     16  N   UNL     1      -3.842   2.081  25.211  0.00  0.00    -0.190 NA
ENDROOT
BRANCH  12   9
ATOM      6  C   UNL     1      -4.140  -0.756  24.177  0.00  0.00    +0.225 A 
ATOM      7  C   UNL     1      -4.553  -0.453  24.825  0.00  0.00    +0.058 A 
ATOM      8  C   UNL     1      -4.571   0.361  24.959  0.00  0.00    +0.010 A 
ATOM      9  C   UNL     1      -4.176   0.872  24.445  0.00  0.00    +0.058 A 
ATOM     10  C   UNL     1      -3.764   0.570  23.799  0.00  0.00    +0.105 A 
ATOM     11  N   UNL     1      -3.746  -0.244  23.665  0.00  0.00    -0.210 NA
BRANCH   6   5
ATOM      5  O   UNL     1      -4.122  -1.570  24.043  0.00  0.00    -0.457 OA
BRANCH   5   4
ATOM      4  C   UNL     1      -3.653  -2.055  24.516  0.00  0.00    +0.239 C 
BRANCH   4   3
ATOM      3  C   UNL     1      -3.279  -2.713  24.189  0.00  0.00    +0.189 C 
BRANCH   3   2
ATOM      1  C   UNL     1      -1.902  -2.991  24.455  0.00  0.00    +0.174 C 
ATOM      2  O   UNL     1      -2.701  -3.116  24.619  0.00  0.00    -0.347 OA
ENDBRANCH   3   2
ENDBRANCH   4   3
ENDBRANCH   5   4
ENDBRANCH   6   5
ENDBRANCH  12   9
BRANCH  15  17
ATOM     17  C   UNL     1      -3.748   3.485  25.638  0.00  0.00    +0.138 C 
ATOM     18  C   UNL     1      -4.218   3.877  26.192  0.00  0.00    +0.027 C 
ATOM     19  C   UNL     1      -3.745   4.430  26.582  0.00  0.00    +0.019 C 
ATOM     20  C   UNL     1      -2.984   4.380  26.268  0.00  0.00    +0.073 C 
ATOM     21  N   UNL     1      -2.986   3.796  25.685  0.00  0.00    -0.263 NA
BRANCH  21  22
ATOM     22  C   UNL     1      -2.339   3.564  25.229  0.00  0.00    +0.099 C 
BRANCH  22  23
ATOM     23  C   UNL     1      -1.714   4.088  25.103  0.00  0.00    -0.010 A 
ATOM     24  C   UNL     1      -1.862   4.897  25.030  0.00  0.00    -0.003 A 
ATOM     25  C   UNL     1      -1.237   5.420  24.904  0.00  0.00    -0.000 A 
ATOM     26  C   UNL     1      -0.465   5.136  24.850  0.00  0.00    -0.000 A 
ATOM     27  C   UNL     1      -0.316   4.327  24.923  0.00  0.00    -0.005 A 
ATOM     28  C   UNL     1      -0.942   3.804  25.050  0.00  0.00    -0.024 A 
ATOM     29  C   UNL     1      -0.793   2.995  25.123  0.00  0.00    +0.031 C 
ENDBRANCH  22  23
ENDBRANCH  21  22
ENDBRANCH  15  17
TORSDOF 8
ENDMDL
MODEL 8
REMARK VINA RESULT:      -8.5      2.207      3.673
REMARK  Name = 
REMARK  8 active torsions:
REMARK  status: ('A' for Active; 'I' for Inactive)
REMARK    1  A    between atoms: O_2  and  C_3
REMARK    2  A    between atoms: C_3  and  C_4
REMARK    3  A    between atoms: C_4  and  O_5
REMARK    4  A    between atoms: O_5  and  C_6
REMARK    5  A    between atoms: C_9  and  C_12
REMARK    6  A    between atoms: C_15  and  C_17
REMARK    7  A    between atoms: N_21  and  C_22
REMARK    8  A    between atoms: C_22  and  C_23
REMARK                            x       y       z     vdW  Elec       q    Type
REMARK                         _______ _______ _______ _____ _____    ______ ____
ROOT
ATOM     12  C   UNL     1      -0.401   0.699  24.430  0.00  0.00    +0.205 A 
ATOM     13  N   UNL     1      -0.069   0.327  23.773  0.00  0.00    -0.056 NA
ATOM     14  O   UNL     1      -0.215  -0.483  23.838  0.00  0.00    -0.336 OA
ATOM     15  C   UNL     1      -0.638  -0.610  24.535  0.00  0.00    +0.251 A 
ATOM     16  N   UNL     1      -0.752   0.120  24.901  0.00  0.00    -0.190 NA
ENDROOT
BRANCH  12   9
ATOM      6  C   UNL     1      -0.351   3.128  24.906  0.00  0.00    +0.225 A 
ATOM      7  C   UNL     1      -0.194   2.586  25.509  0.00  0.00    +0.058 A 
ATOM      8  C   UNL     1      -0.211   1.776  25.350  0.00  0.00    +0.010 A 
ATOM      9  C   UNL     1      -0.384   1.509  24.589  0.00  0.00    +0.058 A 
ATOM     10  C   UNL     1      -0.541   2.050  23.987  0.00  0.00    +0.105 A 
ATOM     11  N   UNL     1      -0.524   2.859  24.145  0.00  0.00    -0.210 NA
BRANCH   6   5
ATOM      5  O   UNL     1      -0.334   3.937  25.064  0.00  0.00    -0.457 OA
BRANCH   5   4
ATOM      4  C   UNL     1      -1.023   4.385  24.995  0.00  0.00    +0.239 C 
BRANCH   4   3
ATOM      3  C   UNL     1      -0.977   5.208  24.954  0.00  0.00    +0.189 C 
BRANCH   3   2
ATOM      1  C   UNL     1      -2.295   5.752  25.064  0.00  0.00    +0.174 C 
ATOM      2  O   UNL     1      -1.528   5.673  25.357  0.00  0.00    -0.347 OA
ENDBRANCH   3   2
ENDBRANCH   4   3
ENDBRANCH   5   4
ENDBRANCH   6   5
ENDBRANCH  12   9
BRANCH  15  17
ATOM     17  C   UNL     1      -0.899  -1.340  24.816  0.00  0.00    +0.138 C 
ATOM     18  C   UNL     1      -0.430  -1.920  25.170  0.00  0.00    +0.027 C 
ATOM     19  C   UNL     1      -0.918  -2.557  25.366  0.00  0.00    +0.019 C 
ATOM     20  C   UNL     1      -1.687  -2.370  25.134  0.00  0.00    +0.073 C 
ATOM     21  N   UNL     1      -1.676  -1.618  24.794  0.00  0.00    -0.263 NA
BRANCH  21  22
ATOM     22  C   UNL     1      -2.326  -1.216  24.486  0.00  0.00    +0.099 C 
BRANCH  22  23
ATOM     23  C   UNL     1      -3.020  -1.627  24.311  0.00  0.00    -0.010 A 
ATOM     24  C   UNL     1      -3.015  -2.451  24.281  0.00  0.00    -0.003 A 
ATOM     25  C   UNL     1      -3.709  -2.862  24.106  0.00  0.00    -0.000 A 
ATOM     26  C   UNL     1      -4.407  -2.448  23.961  0.00  0.00    -0.000 A 
ATOM     27  C   UNL     1      -4.413  -1.624  23.992  0.00  0.00    -0.005 A 
ATOM     28  C   UNL     1      -3.719  -1.213  24.167  0.00  0.00    -0.024 A 
ATOM     29  C   UNL     1      -3.725  -0.389  24.197  0.00  0.00    +0.031 C 
ENDBRANCH  22  23
ENDBRANCH  21  22
ENDBRANCH  15  17
TORSDOF 8
ENDMDL
