MODEL 1
REMARK VINA RESULT:     -11.9      0.000      0.000
REMARK  Name = 
REMARK  6 active torsions:
REMARK  status: ('A' for Active; 'I' for Inactive)
REMARK    1  A    between atoms: N_2  and  C_4
REMARK    2  A    between atoms: C_7  and  C_10
REMARK    3  A    between atoms: N_12  and  C_13
REMARK    4  A    between atoms: C_18  and  C_19
REMARK    5  A    between atoms: C_19  and  C_20
REMARK    6  A    between atoms: C_20  and  C_21
REMARK                            x       y       z     vdW  Elec       q    Type
REMARK                         _______ _______ _______ _____ _____    ______ ____
ROOT
ATOM     13  C   UNL     1      -4.744   1.248  24.930  0.00  0.00    +0.113 C 
ATOM     14  C   UNL     1      -5.358   1.500  25.420  0.00  0.00    +0.048 C 
ATOM     15  C   UNL     1      -5.276   2.313  25.534  0.00  0.00    +0.138 C 
ATOM     16  N   UNL     1      -4.611   2.563  25.114  0.00  0.00    -0.265 NA
ATOM     17  C   UNL     1      -4.283   1.904  24.741  0.00  0.00    +0.094 C 
ATOM     18  C   UNL     1      -4.391   3.358  25.126  0.00  0.00    +0.080 C 
ATOM     32  C   UNL     1      -4.836   3.903  25.558  0.00  0.00    +0.131 C 
ATOM     33  N   UNL     1      -5.500   3.653  25.977  0.00  0.00    -0.203 NA
ATOM     34  C   UNL     1      -5.721   2.858  25.966  0.00  0.00    +0.256 C 
ATOM     35  O   UNL     1      -6.385   2.607  26.385  0.00  0.00    -0.272 OA
ENDROOT
BRANCH  13  12
ATOM     10  C   UNL     1      -4.095  -0.015  25.087  0.00  0.00    +0.265 C 
ATOM     11  O   UNL     1      -3.704   0.269  25.756  0.00  0.00    -0.268 OA
ATOM     12  N   UNL     1      -4.615   0.474  24.674  0.00  0.00    -0.202 NA
BRANCH  10   7
ATOM      4  C   UNL     1      -3.707  -2.335  24.319  0.00  0.00    +0.048 A 
ATOM      5  C   UNL     1      -3.439  -2.098  25.061  0.00  0.00    +0.015 A 
ATOM      6  C   UNL     1      -3.569  -1.324  25.318  0.00  0.00    +0.006 A 
ATOM      7  C   UNL     1      -3.965  -0.789  24.831  0.00  0.00    +0.055 A 
ATOM      8  C   UNL     1      -4.232  -1.028  24.088  0.00  0.00    +0.006 A 
ATOM      9  C   UNL     1      -4.103  -1.801  23.832  0.00  0.00    +0.015 A 
BRANCH   4   2
ATOM      1  C   UNL     1      -4.199  -3.548  23.745  0.00  0.00    +0.112 C 
ATOM      2  N   UNL     1      -3.577  -3.110  24.062  0.00  0.00    -0.304 N 
ATOM      3  C   UNL     1      -2.825  -3.444  24.125  0.00  0.00    +0.112 C 
ENDBRANCH   4   2
ENDBRANCH  10   7
ENDBRANCH  13  12
BRANCH  18  19
ATOM     19  C   UNL     1      -3.727   3.608  24.706  0.00  0.00    +0.027 C 
BRANCH  19  20
ATOM     20  C   UNL     1      -3.020   3.758  25.104  0.00  0.00    +0.087 C 
BRANCH  20  21
ATOM     21  C   UNL     1      -2.511   4.349  24.833  0.00  0.00    +0.229 C 
ATOM     22  O   UNL     1      -2.816   5.008  24.441  0.00  0.00    -0.275 OA
ATOM     23  N   UNL     1      -1.698   4.281  24.954  0.00  0.00    -0.259 N 
ATOM     24  C   UNL     1      -1.125   4.824  24.716  0.00  0.00    +0.103 C 
ATOM     25  C   UNL     1      -0.388   4.536  24.950  0.00  0.00    +0.049 C 
ATOM     26  C   UNL     1      -0.505   3.815  25.332  0.00  0.00    -0.007 A 
ATOM     27  C   UNL     1       0.020   3.281  25.678  0.00  0.00    -0.003 A 
ATOM     28  C   UNL     1      -0.264   2.591  26.027  0.00  0.00    -0.000 A 
ATOM     29  C   UNL     1      -1.074   2.433  26.030  0.00  0.00    +0.001 A 
ATOM     30  C   UNL     1      -1.600   2.966  25.684  0.00  0.00    +0.015 A 
ATOM     31  C   UNL     1      -1.315   3.657  25.335  0.00  0.00    +0.050 A 
ENDBRANCH  20  21
ENDBRANCH  19  20
ENDBRANCH  18  19
TORSDOF 6
ENDMDL
MODEL 2
REMARK VINA RESULT:     -10.0      2.779      4.423
REMARK  Name = 
REMARK  6 active torsions:
REMARK  status: ('A' for Active; 'I' for Inactive)
REMARK    1  A    between atoms: N_2  and  C_4
REMARK    2  A    between atoms: C_7  and  C_10
REMARK    3  A    between atoms: N_12  and  C_13
REMARK    4  A    between atoms: C_18  and  C_19
REMARK    5  A    between atoms: C_19  and  C_20
REMARK    6  A    between atoms: C_20  and  C_21
REMARK                            x       y       z     vdW  Elec       q    Type
REMARK                         _______ _______ _______ _____ _____    ______ ____
ROOT
ATOM     13  C   UNL     1      -1.631  -0.405  24.173  0.00  0.00    +0.113 C 
ATOM     14  C   UNL     1      -1.863  -1.016  24.678  0.00  0.00    +0.048 C 
ATOM     15  C   UNL     1      -2.622  -0.845  24.954  0.00  0.00    +0.138 C 
ATOM     16  N   UNL     1      -2.859  -0.129  24.619  0.00  0.00    -0.265 NA
ATOM     17  C   UNL     1      -2.247   0.142  24.136  0.00  0.00    +0.094 C 
ATOM     18  C   UNL     1      -3.602   0.182  24.796  0.00  0.00    +0.080 C 
ATOM     32  C   UNL     1      -4.108  -0.221  25.308  0.00  0.00    +0.131 C 
ATOM     33  N   UNL     1      -3.870  -0.937  25.643  0.00  0.00    -0.203 NA
ATOM     34  C   UNL     1      -3.127  -1.249  25.466  0.00  0.00    +0.256 C 
ATOM     35  O   UNL     1      -2.890  -1.964  25.801  0.00  0.00    -0.272 OA
ENDROOT
BRANCH  13  12
ATOM     10  C   UNL     1      -0.307   0.123  24.077  0.00  0.00    +0.265 C 
ATOM     11  O   UNL     1      -0.425   0.546  24.776  0.00  0.00    -0.268 OA
ATOM     12  N   UNL     1      -0.911  -0.353  23.775  0.00  0.00    -0.202 NA
BRANCH  10   7
ATOM      4  C   UNL     1       1.854   0.281  22.883  0.00  0.00    +0.048 A 
ATOM      5  C   UNL     1       1.626   0.880  23.402  0.00  0.00    +0.015 A 
ATOM      6  C   UNL     1       0.905   0.827  23.800  0.00  0.00    +0.006 A 
ATOM      7  C   UNL     1       0.413   0.176  23.679  0.00  0.00    +0.055 A 
ATOM      8  C   UNL     1       0.643  -0.423  23.159  0.00  0.00    +0.006 A 
ATOM      9  C   UNL     1       1.364  -0.370  22.761  0.00  0.00    +0.015 A 
BRANCH   4   2
ATOM      1  C   UNL     1       2.678  -0.052  21.763  0.00  0.00    +0.112 C 
ATOM      2  N   UNL     1       2.576   0.334  22.484  0.00  0.00    -0.304 N 
ATOM      3  C   UNL     1       3.194   0.774  22.809  0.00  0.00    +0.112 C 
ENDBRANCH   4   2
ENDBRANCH  10   7
ENDBRANCH  13  12
BRANCH  18  19
ATOM     19  C   UNL     1      -3.839   0.898  24.461  0.00  0.00    +0.027 C 
BRANCH  19  20
ATOM     20  C   UNL     1      -3.821   1.590  24.910  0.00  0.00    +0.087 C 
BRANCH  20  21
ATOM     21  C   UNL     1      -4.397   2.170  24.797  0.00  0.00    +0.229 C 
ATOM     22  O   UNL     1      -5.129   1.968  24.476  0.00  0.00    -0.275 OA
ATOM     23  N   UNL     1      -4.240   2.953  25.007  0.00  0.00    -0.259 N 
ATOM     24  C   UNL     1      -4.759   3.589  24.927  0.00  0.00    +0.103 C 
ATOM     25  C   UNL     1      -4.377   4.266  25.203  0.00  0.00    +0.049 C 
ATOM     26  C   UNL     1      -3.622   4.048  25.453  0.00  0.00    -0.007 A 
ATOM     27  C   UNL     1      -3.000   4.483  25.776  0.00  0.00    -0.003 A 
ATOM     28  C   UNL     1      -2.294   4.108  25.978  0.00  0.00    -0.000 A 
ATOM     29  C   UNL     1      -2.210   3.296  25.856  0.00  0.00    +0.001 A 
ATOM     30  C   UNL     1      -2.831   2.860  25.533  0.00  0.00    +0.015 A 
ATOM     31  C   UNL     1      -3.538   3.236  25.332  0.00  0.00    +0.050 A 
ENDBRANCH  20  21
ENDBRANCH  19  20
ENDBRANCH  18  19
TORSDOF 6
ENDMDL
MODEL 3
REMARK VINA RESULT:      -9.7      2.024      5.937
REMARK  Name = 
REMARK  6 active torsions:
REMARK  status: ('A' for Active; 'I' for Inactive)
REMARK    1  A    between atoms: N_2  and  C_4
REMARK    2  A    between atoms: C_7  and  C_10
REMARK    3  A    between atoms: N_12  and  C_13
REMARK    4  A    between atoms: C_18  and  C_19
REMARK    5  A    between atoms: C_19  and  C_20
REMARK    6  A    between atoms: C_20  and  C_21
REMARK                            x       y       z     vdW  Elec       q    Type
REMARK                         _______ _______ _______ _____ _____    ______ ____
ROOT
ATOM     13  C   UNL     1      -1.892   1.723  24.928  0.00  0.00    +0.113 C 
ATOM     14  C   UNL     1      -1.234   1.982  24.503  0.00  0.00    +0.048 C 
ATOM     15  C   UNL     1      -0.733   1.335  24.389  0.00  0.00    +0.138 C 
ATOM     16  N   UNL     1      -1.083   0.677  24.743  0.00  0.00    -0.265 NA
ATOM     17  C   UNL     1      -1.799   0.917  25.076  0.00  0.00    +0.094 C 
ATOM     18  C   UNL     1      -0.704  -0.055  24.717  0.00  0.00    +0.080 C 
ATOM     32  C   UNL     1       0.025  -0.130  24.337  0.00  0.00    +0.131 C 
ATOM     33  N   UNL     1       0.374   0.528  23.982  0.00  0.00    -0.203 NA
ATOM     34  C   UNL     1      -0.005   1.261  24.008  0.00  0.00    +0.256 C 
ATOM     35  O   UNL     1       0.344   1.919  23.654  0.00  0.00    -0.272 OA
ENDROOT
BRANCH  13  12
ATOM     10  C   UNL     1      -3.164   2.310  24.647  0.00  0.00    +0.265 C 
ATOM     11  O   UNL     1      -3.158   1.965  23.897  0.00  0.00    -0.268 OA
ATOM     12  N   UNL     1      -2.531   2.189  25.162  0.00  0.00    -0.202 NA
BRANCH  10   7
ATOM      4  C   UNL     1      -5.081   3.707  25.351  0.00  0.00    +0.048 A 
ATOM      5  C   UNL     1      -5.187   2.901  25.217  0.00  0.00    +0.015 A 
ATOM      6  C   UNL     1      -4.548   2.434  24.982  0.00  0.00    +0.006 A 
ATOM      7  C   UNL     1      -3.803   2.775  24.882  0.00  0.00    +0.055 A 
ATOM      8  C   UNL     1      -3.698   3.582  25.017  0.00  0.00    +0.006 A 
ATOM      9  C   UNL     1      -4.337   4.048  25.252  0.00  0.00    +0.015 A 
BRANCH   4   2
ATOM      1  C   UNL     1      -6.393   3.820  25.907  0.00  0.00    +0.112 C 
ATOM      2  N   UNL     1      -5.721   4.174  25.586  0.00  0.00    -0.304 N 
ATOM      3  C   UNL     1      -5.687   4.993  25.500  0.00  0.00    +0.112 C 
ENDBRANCH   4   2
ENDBRANCH  10   7
ENDBRANCH  13  12
BRANCH  18  19
ATOM     19  C   UNL     1      -1.053  -0.713  25.072  0.00  0.00    +0.027 C 
BRANCH  19  20
ATOM     20  C   UNL     1      -1.542  -1.209  24.630  0.00  0.00    +0.087 C 
BRANCH  20  21
ATOM     21  C   UNL     1      -1.596  -2.010  24.819  0.00  0.00    +0.229 C 
ATOM     22  O   UNL     1      -0.950  -2.401  25.151  0.00  0.00    -0.275 OA
ATOM     23  N   UNL     1      -2.297  -2.422  24.675  0.00  0.00    -0.259 N 
ATOM     24  C   UNL     1      -2.431  -3.220  24.835  0.00  0.00    +0.103 C 
ATOM     25  C   UNL     1      -3.204  -3.399  24.605  0.00  0.00    +0.049 C 
ATOM     26  C   UNL     1      -3.546  -2.711  24.304  0.00  0.00    -0.007 A 
ATOM     27  C   UNL     1      -4.295  -2.556  23.996  0.00  0.00    -0.003 A 
ATOM     28  C   UNL     1      -4.484  -1.798  23.731  0.00  0.00    -0.000 A 
ATOM     29  C   UNL     1      -3.923  -1.195  23.775  0.00  0.00    +0.001 A 
ATOM     30  C   UNL     1      -3.174  -1.349  24.083  0.00  0.00    +0.015 A 
ATOM     31  C   UNL     1      -2.985  -2.108  24.348  0.00  0.00    +0.050 A 
ENDBRANCH  20  21
ENDBRANCH  19  20
ENDBRANCH  18  19
TORSDOF 6
ENDMDL
MODEL 4
REMARK VINA RESULT:      -9.6      2.522      6.589
REMARK  Name = 
REMARK  6 active torsions:
REMARK  status: ('A' for Active; 'I' for Inactive)
REMARK    1  A    between atoms: N_2  and  C_4
REMARK    2  A    between atoms: C_7  and  C_10
REMARK    3  A    between atoms: N_12  and  C_13
REMARK    4  A    between atoms: C_18  and  C_19
REMARK    5  A    between atoms: C_19  and  C_20
REMARK    6  A    between atoms: C_20  and  C_21
REMARK                            x       y       z     vdW  Elec       q    Type
REMARK                         _______ _______ _______ _____ _____    ______ ____
ROOT
ATOM     13  C   UNL     1      -0.220   1.342  24.415  0.00  0.00    +0.113 C 
ATOM     14  C   UNL     1       0.364   1.223  23.844  0.00  0.00    +0.048 C 
ATOM     15  C   UNL     1       0.444   0.410  23.727  0.00  0.00    +0.138 C 
ATOM     16  N   UNL     1      -0.091   0.027  24.225  0.00  0.00    -0.265 NA
ATOM     17  C   UNL     1      -0.502   0.604  24.650  0.00  0.00    +0.094 C 
ATOM     18  C   UNL     1      -0.135  -0.796  24.228  0.00  0.00    +0.080 C 
ATOM     32  C   UNL     1       0.356  -1.238  23.732  0.00  0.00    +0.131 C 
ATOM     33  N   UNL     1       0.891  -0.855  23.235  0.00  0.00    -0.203 NA
ATOM     34  C   UNL     1       0.935  -0.031  23.232  0.00  0.00    +0.256 C 
ATOM     35  O   UNL     1       1.470   0.352  22.734  0.00  0.00    -0.272 OA
ENDROOT
BRANCH  13  12
ATOM     10  C   UNL     1      -1.086   2.474  24.312  0.00  0.00    +0.265 C 
ATOM     11  O   UNL     1      -1.436   2.146  23.641  0.00  0.00    -0.268 OA
ATOM     12  N   UNL     1      -0.478   2.073  24.699  0.00  0.00    -0.202 NA
BRANCH  10   7
ATOM      4  C   UNL     1      -1.859   4.665  25.165  0.00  0.00    +0.048 A 
ATOM      5  C   UNL     1      -1.083   4.577  24.902  0.00  0.00    +0.015 A 
ATOM      6  C   UNL     1      -0.825   3.846  24.617  0.00  0.00    +0.006 A 
ATOM      7  C   UNL     1      -1.344   3.205  24.596  0.00  0.00    +0.055 A 
ATOM      8  C   UNL     1      -2.120   3.294  24.861  0.00  0.00    +0.006 A 
ATOM      9  C   UNL     1      -2.378   4.025  25.145  0.00  0.00    +0.015 A 
BRANCH   4   2
ATOM      1  C   UNL     1      -1.763   6.091  25.183  0.00  0.00    +0.112 C 
ATOM      2  N   UNL     1      -2.117   5.396  25.450  0.00  0.00    -0.304 N 
ATOM      3  C   UNL     1      -2.730   5.430  26.002  0.00  0.00    +0.112 C 
ENDBRANCH   4   2
ENDBRANCH  10   7
ENDBRANCH  13  12
BRANCH  18  19
ATOM     19  C   UNL     1      -0.670  -1.179  24.726  0.00  0.00    +0.027 C 
BRANCH  19  20
ATOM     20  C   UNL     1      -1.396  -1.437  24.431  0.00  0.00    +0.087 C 
BRANCH  20  21
ATOM     21  C   UNL     1      -1.717  -2.150  24.693  0.00  0.00    +0.229 C 
ATOM     22  O   UNL     1      -1.228  -2.731  25.014  0.00  0.00    -0.275 OA
ATOM     23  N   UNL     1      -2.530  -2.283  24.634  0.00  0.00    -0.259 N 
ATOM     24  C   UNL     1      -2.928  -2.965  24.872  0.00  0.00    +0.103 C 
ATOM     25  C   UNL     1      -3.731  -2.861  24.712  0.00  0.00    +0.049 C 
ATOM     26  C   UNL     1      -3.828  -2.114  24.375  0.00  0.00    -0.007 A 
ATOM     27  C   UNL     1      -4.497  -1.712  24.106  0.00  0.00    -0.003 A 
ATOM     28  C   UNL     1      -4.423  -0.955  23.789  0.00  0.00    -0.000 A 
ATOM     29  C   UNL     1      -3.681  -0.598  23.741  0.00  0.00    +0.001 A 
ATOM     30  C   UNL     1      -3.012  -0.999  24.010  0.00  0.00    +0.015 A 
ATOM     31  C   UNL     1      -3.086  -1.757  24.327  0.00  0.00    +0.050 A 
ENDBRANCH  20  21
ENDBRANCH  19  20
ENDBRANCH  18  19
TORSDOF 6
ENDMDL
MODEL 5
REMARK VINA RESULT:      -9.5      2.860      5.355
REMARK  Name = 
REMARK  6 active torsions:
REMARK  status: ('A' for Active; 'I' for Inactive)
REMARK    1  A    between atoms: N_2  and  C_4
REMARK    2  A    between atoms: C_7  and  C_10
REMARK    3  A    between atoms: N_12  and  C_13
REMARK    4  A    between atoms: C_18  and  C_19
REMARK    5  A    between atoms: C_19  and  C_20
REMARK    6  A    between atoms: C_20  and  C_21
REMARK                            x       y       z     vdW  Elec       q    Type
REMARK                         _______ _______ _______ _____ _____    ______ ____
ROOT
ATOM     13  C   UNL     1      -1.074   1.746  23.941  0.00  0.00    +0.113 C 
ATOM     14  C   UNL     1      -1.245   2.340  24.487  0.00  0.00    +0.048 C 
ATOM     15  C   UNL     1      -2.049   2.295  24.670  0.00  0.00    +0.138 C 
ATOM     16  N   UNL     1      -2.374   1.673  24.236  0.00  0.00    -0.265 NA
ATOM     17  C   UNL     1      -1.771   1.334  23.786  0.00  0.00    +0.094 C 
ATOM     18  C   UNL     1      -3.176   1.496  24.307  0.00  0.00    +0.080 C 
ATOM     32  C   UNL     1      -3.654   1.941  24.812  0.00  0.00    +0.131 C 
ATOM     33  N   UNL     1      -3.329   2.563  25.246  0.00  0.00    -0.203 NA
ATOM     34  C   UNL     1      -2.526   2.740  25.175  0.00  0.00    +0.256 C 
ATOM     35  O   UNL     1      -2.201   3.362  25.608  0.00  0.00    -0.272 OA
ENDROOT
BRANCH  13  12
ATOM     10  C   UNL     1       0.097   0.933  23.853  0.00  0.00    +0.265 C 
ATOM     11  O   UNL     1      -0.209   0.429  24.431  0.00  0.00    -0.268 OA
ATOM     12  N   UNL     1      -0.335   1.591  23.608  0.00  0.00    -0.202 NA
BRANCH  10   7
ATOM      4  C   UNL     1       2.314   0.470  22.856  0.00  0.00    +0.048 A 
ATOM      5  C   UNL     1       1.690  -0.053  22.731  0.00  0.00    +0.015 A 
ATOM      6  C   UNL     1       0.950   0.101  23.064  0.00  0.00    +0.006 A 
ATOM      7  C   UNL     1       0.836   0.779  23.521  0.00  0.00    +0.055 A 
ATOM      8  C   UNL     1       1.463   1.301  23.645  0.00  0.00    +0.006 A 
ATOM      9  C   UNL     1       2.202   1.147  23.313  0.00  0.00    +0.015 A 
BRANCH   4   2
ATOM      1  C   UNL     1       3.111   0.081  21.734  0.00  0.00    +0.112 C 
ATOM      2  N   UNL     1       3.055   0.315  22.523  0.00  0.00    -0.304 N 
ATOM      3  C   UNL     1       3.736   0.395  22.980  0.00  0.00    +0.112 C 
ENDBRANCH   4   2
ENDBRANCH  10   7
ENDBRANCH  13  12
BRANCH  18  19
ATOM     19  C   UNL     1      -3.501   0.875  23.874  0.00  0.00    +0.027 C 
BRANCH  19  20
ATOM     20  C   UNL     1      -3.669   0.157  24.244  0.00  0.00    +0.087 C 
BRANCH  20  21
ATOM     21  C   UNL     1      -3.976  -0.472  23.806  0.00  0.00    +0.229 C 
ATOM     22  O   UNL     1      -4.333  -0.331  23.075  0.00  0.00    -0.275 OA
ATOM     23  N   UNL     1      -3.927  -1.242  24.099  0.00  0.00    -0.259 N 
ATOM     24  C   UNL     1      -4.208  -1.921  23.725  0.00  0.00    +0.103 C 
ATOM     25  C   UNL     1      -4.043  -2.567  24.212  0.00  0.00    +0.049 C 
ATOM     26  C   UNL     1      -3.660  -2.286  24.886  0.00  0.00    -0.007 A 
ATOM     27  C   UNL     1      -3.367  -2.669  25.556  0.00  0.00    -0.003 A 
ATOM     28  C   UNL     1      -3.003  -2.235  26.154  0.00  0.00    -0.000 A 
ATOM     29  C   UNL     1      -2.932  -1.416  26.084  0.00  0.00    +0.001 A 
ATOM     30  C   UNL     1      -3.224  -1.031  25.415  0.00  0.00    +0.015 A 
ATOM     31  C   UNL     1      -3.589  -1.467  24.816  0.00  0.00    +0.050 A 
ENDBRANCH  20  21
ENDBRANCH  19  20
ENDBRANCH  18  19
TORSDOF 6
ENDMDL
MODEL 6
REMARK VINA RESULT:      -8.9      1.732      3.566
REMARK  Name = 
REMARK  6 active torsions:
REMARK  status: ('A' for Active; 'I' for Inactive)
REMARK    1  A    between atoms: N_2  and  C_4
REMARK    2  A    between atoms: C_7  and  C_10
REMARK    3  A    between atoms: N_12  and  C_13
REMARK    4  A    between atoms: C_18  and  C_19
REMARK    5  A    between atoms: C_19  and  C_20
REMARK    6  A    between atoms: C_20  and  C_21
REMARK                            x       y       z     vdW  Elec       q    Type
REMARK                         _______ _______ _______ _____ _____    ______ ____
ROOT
ATOM     13  C   UNL     1      -1.034   0.619  25.021  0.00  0.00    +0.113 C 
ATOM     14  C   UNL     1      -0.324   0.794  24.639  0.00  0.00    +0.048 C 
ATOM     15  C   UNL     1      -0.145   1.587  24.784  0.00  0.00    +0.138 C 
ATOM     16  N   UNL     1      -0.745   1.901  25.255  0.00  0.00    -0.265 NA
ATOM     17  C   UNL     1      -1.294   1.303  25.401  0.00  0.00    +0.094 C 
ATOM     18  C   UNL     1      -0.713   2.691  25.490  0.00  0.00    +0.080 C 
ATOM     32  C   UNL     1      -0.081   3.167  25.255  0.00  0.00    +0.131 C 
ATOM     33  N   UNL     1       0.518   2.853  24.784  0.00  0.00    -0.203 NA
ATOM     34  C   UNL     1       0.487   2.062  24.548  0.00  0.00    +0.256 C 
ATOM     35  O   UNL     1       1.087   1.748  24.078  0.00  0.00    -0.272 OA
ENDROOT
BRANCH  13  12
ATOM     10  C   UNL     1      -2.047  -0.247  24.506  0.00  0.00    +0.265 C 
ATOM     11  O   UNL     1      -2.295   0.349  23.991  0.00  0.00    -0.268 OA
ATOM     12  N   UNL     1      -1.417  -0.111  25.021  0.00  0.00    -0.202 NA
BRANCH  10   7
ATOM      4  C   UNL     1      -3.195  -2.439  24.507  0.00  0.00    +0.048 A 
ATOM      5  C   UNL     1      -3.635  -1.744  24.558  0.00  0.00    +0.015 A 
ATOM      6  C   UNL     1      -3.253  -1.012  24.558  0.00  0.00    +0.006 A 
ATOM      7  C   UNL     1      -2.430  -0.978  24.506  0.00  0.00    +0.055 A 
ATOM      8  C   UNL     1      -1.991  -1.674  24.455  0.00  0.00    +0.006 A 
ATOM      9  C   UNL     1      -2.373  -2.405  24.455  0.00  0.00    +0.015 A 
BRANCH   4   2
ATOM      1  C   UNL     1      -3.478  -3.688  25.140  0.00  0.00    +0.112 C 
ATOM      2  N   UNL     1      -3.579  -3.171  24.507  0.00  0.00    -0.304 N 
ATOM      3  C   UNL     1      -4.062  -3.382  23.873  0.00  0.00    +0.112 C 
ENDBRANCH   4   2
ENDBRANCH  10   7
ENDBRANCH  13  12
BRANCH  18  19
ATOM     19  C   UNL     1      -1.313   3.005  25.961  0.00  0.00    +0.027 C 
BRANCH  19  20
ATOM     20  C   UNL     1      -1.945   3.404  25.613  0.00  0.00    +0.087 C 
BRANCH  20  21
ATOM     21  C   UNL     1      -2.546   3.716  26.083  0.00  0.00    +0.229 C 
ATOM     22  O   UNL     1      -2.395   3.913  26.870  0.00  0.00    -0.275 OA
ATOM     23  N   UNL     1      -3.300   3.831  25.767  0.00  0.00    -0.259 N 
ATOM     24  C   UNL     1      -3.952   4.137  26.169  0.00  0.00    +0.103 C 
ATOM     25  C   UNL     1      -4.589   4.156  25.644  0.00  0.00    +0.049 C 
ATOM     26  C   UNL     1      -4.330   3.863  24.919  0.00  0.00    -0.007 A 
ATOM     27  C   UNL     1      -4.715   3.752  24.198  0.00  0.00    -0.003 A 
ATOM     28  C   UNL     1      -4.305   3.441  23.554  0.00  0.00    -0.000 A 
ATOM     29  C   UNL     1      -3.509   3.240  23.630  0.00  0.00    +0.001 A 
ATOM     30  C   UNL     1      -3.122   3.351  24.350  0.00  0.00    +0.015 A 
ATOM     31  C   UNL     1      -3.533   3.662  24.995  0.00  0.00    +0.050 A 
ENDBRANCH  20  21
ENDBRANCH  19  20
ENDBRANCH  18  19
TORSDOF 6
ENDMDL
MODEL 7
REMARK VINA RESULT:      -8.8     14.095     16.614
REMARK  Name = 
REMARK  6 active torsions:
REMARK  status: ('A' for Active; 'I' for Inactive)
REMARK    1  A    between atoms: N_2  and  C_4
REMARK    2  A    between atoms: C_7  and  C_10
REMARK    3  A    between atoms: N_12  and  C_13
REMARK    4  A    between atoms: C_18  and  C_19
REMARK    5  A    between atoms: C_19  and  C_20
REMARK    6  A    between atoms: C_20  and  C_21
REMARK                            x       y       z     vdW  Elec       q    Type
REMARK                         _______ _______ _______ _____ _____    ______ ____
ROOT
ATOM     13  C   UNL     1      -3.604 -10.665  15.827  0.00  0.00    +0.113 C 
ATOM     14  C   UNL     1      -2.809 -10.447  15.848  0.00  0.00    +0.048 C 
ATOM     15  C   UNL     1      -2.537 -10.401  15.069  0.00  0.00    +0.138 C 
ATOM     16  N   UNL     1      -3.165 -10.590  14.569  0.00  0.00    -0.265 NA
ATOM     17  C   UNL     1      -3.824 -10.753  15.037  0.00  0.00    +0.094 C 
ATOM     18  C   UNL     1      -3.054 -10.589  13.752  0.00  0.00    +0.080 C 
ATOM     32  C   UNL     1      -2.317 -10.399  13.434  0.00  0.00    +0.131 C 
ATOM     33  N   UNL     1      -1.689 -10.210  13.935  0.00  0.00    -0.203 NA
ATOM     34  C   UNL     1      -1.799 -10.211  14.753  0.00  0.00    +0.256 C 
ATOM     35  O   UNL     1      -1.171 -10.022  15.254  0.00  0.00    -0.272 OA
ENDROOT
BRANCH  13  12
ATOM     10  C   UNL     1      -4.674 -10.216  16.661  0.00  0.00    +0.265 C 
ATOM     11  O   UNL     1      -4.766  -9.548  16.185  0.00  0.00    -0.268 OA
ATOM     12  N   UNL     1      -4.094 -10.775  16.482  0.00  0.00    -0.202 NA
BRANCH  10   7
ATOM      4  C   UNL     1      -6.143 -10.547  18.626  0.00  0.00    +0.048 A 
ATOM      5  C   UNL     1      -5.344 -10.373  18.733  0.00  0.00    +0.015 A 
ATOM      6  C   UNL     1      -4.854 -10.263  18.078  0.00  0.00    +0.006 A 
ATOM      7  C   UNL     1      -5.164 -10.327  17.316  0.00  0.00    +0.055 A 
ATOM      8  C   UNL     1      -5.963 -10.500  17.210  0.00  0.00    +0.006 A 
ATOM      9  C   UNL     1      -6.453 -10.610  17.864  0.00  0.00    +0.015 A 
BRANCH   4   2
ATOM      1  C   UNL     1      -6.302 -10.775  20.027  0.00  0.00    +0.112 C 
ATOM      2  N   UNL     1      -6.633 -10.657  19.282  0.00  0.00    -0.304 N 
ATOM      3  C   UNL     1      -7.452 -10.649  19.189  0.00  0.00    +0.112 C 
ENDBRANCH   4   2
ENDBRANCH  10   7
ENDBRANCH  13  12
BRANCH  18  19
ATOM     19  C   UNL     1      -3.682 -10.778  13.251  0.00  0.00    +0.027 C 
BRANCH  19  20
ATOM     20  C   UNL     1      -3.779 -10.373  12.539  0.00  0.00    +0.087 C 
BRANCH  20  21
ATOM     21  C   UNL     1      -4.508 -10.383  12.153  0.00  0.00    +0.229 C 
ATOM     22  O   UNL     1      -5.171 -10.697  12.532  0.00  0.00    -0.275 OA
ATOM     23  N   UNL     1      -4.575 -10.081  11.388  0.00  0.00    -0.259 N 
ATOM     24  C   UNL     1      -5.264 -10.054  10.936  0.00  0.00    +0.103 C 
ATOM     25  C   UNL     1      -5.079  -9.708  10.210  0.00  0.00    +0.049 C 
ATOM     26  C   UNL     1      -4.277  -9.521  10.214  0.00  0.00    -0.007 A 
ATOM     27  C   UNL     1      -3.788  -9.171   9.649  0.00  0.00    -0.003 A 
ATOM     28  C   UNL     1      -2.989  -9.051   9.811  0.00  0.00    -0.000 A 
ATOM     29  C   UNL     1      -2.677  -9.281  10.539  0.00  0.00    +0.001 A 
ATOM     30  C   UNL     1      -3.164  -9.631  11.105  0.00  0.00    +0.015 A 
ATOM     31  C   UNL     1      -3.965  -9.751  10.942  0.00  0.00    +0.050 A 
ENDBRANCH  20  21
ENDBRANCH  19  20
ENDBRANCH  18  19
TORSDOF 6
ENDMDL
MODEL 8
REMARK VINA RESULT:      -8.7     14.551     16.362
REMARK  Name = 
REMARK  6 active torsions:
REMARK  status: ('A' for Active; 'I' for Inactive)
REMARK    1  A    between atoms: N_2  and  C_4
REMARK    2  A    between atoms: C_7  and  C_10
REMARK    3  A    between atoms: N_12  and  C_13
REMARK    4  A    between atoms: C_18  and  C_19
REMARK    5  A    between atoms: C_19  and  C_20
REMARK    6  A    between atoms: C_20  and  C_21
REMARK                            x       y       z     vdW  Elec       q    Type
REMARK                         _______ _______ _______ _____ _____    ______ ____
ROOT
ATOM     13  C   UNL     1      -4.281 -10.778  16.100  0.00  0.00    +0.113 C 
ATOM     14  C   UNL     1      -3.534 -10.774  16.450  0.00  0.00    +0.048 C 
ATOM     15  C   UNL     1      -2.970 -10.774  15.847  0.00  0.00    +0.138 C 
ATOM     16  N   UNL     1      -3.369 -10.777  15.125  0.00  0.00    -0.265 NA
ATOM     17  C   UNL     1      -4.180 -10.779  15.282  0.00  0.00    +0.094 C 
ATOM     18  C   UNL     1      -2.944 -10.777  14.419  0.00  0.00    +0.080 C 
ATOM     32  C   UNL     1      -2.119 -10.774  14.434  0.00  0.00    +0.131 C 
ATOM     33  N   UNL     1      -1.719 -10.771  15.156  0.00  0.00    -0.203 NA
ATOM     34  C   UNL     1      -2.145 -10.771  15.863  0.00  0.00    +0.256 C 
ATOM     35  O   UNL     1      -1.746 -10.768  16.585  0.00  0.00    -0.272 OA
ENDROOT
BRANCH  13  12
ATOM     10  C   UNL     1      -5.422 -10.075  16.596  0.00  0.00    +0.265 C 
ATOM     11  O   UNL     1      -5.119  -9.369  16.294  0.00  0.00    -0.268 OA
ATOM     12  N   UNL     1      -5.003 -10.779  16.499  0.00  0.00    -0.202 NA
BRANCH  10   7
ATOM      4  C   UNL     1      -7.588 -10.079  17.794  0.00  0.00    +0.048 A 
ATOM      5  C   UNL     1      -6.898 -10.296  18.190  0.00  0.00    +0.015 A 
ATOM      6  C   UNL     1      -6.176 -10.295  17.791  0.00  0.00    +0.006 A 
ATOM      7  C   UNL     1      -6.144 -10.076  16.995  0.00  0.00    +0.055 A 
ATOM      8  C   UNL     1      -6.835  -9.860  16.600  0.00  0.00    +0.006 A 
ATOM      9  C   UNL     1      -7.557  -9.861  16.999  0.00  0.00    +0.015 A 
BRANCH   4   2
ATOM      1  C   UNL     1      -8.383 -10.477  18.912  0.00  0.00    +0.112 C 
ATOM      2  N   UNL     1      -8.311 -10.081  18.193  0.00  0.00    -0.304 N 
ATOM      3  C   UNL     1      -8.959  -9.685  17.872  0.00  0.00    +0.112 C 
ENDBRANCH   4   2
ENDBRANCH  10   7
ENDBRANCH  13  12
BRANCH  18  19
ATOM     19  C   UNL     1      -3.343 -10.780  13.697  0.00  0.00    +0.027 C 
BRANCH  19  20
ATOM     20  C   UNL     1      -2.984 -10.463  13.026  0.00  0.00    +0.087 C 
BRANCH  20  21
ATOM     21  C   UNL     1      -3.396 -10.434  12.312  0.00  0.00    +0.229 C 
ATOM     22  O   UNL     1      -4.159 -10.745  12.263  0.00  0.00    -0.275 OA
ATOM     23  N   UNL     1      -3.047 -10.092  11.647  0.00  0.00    -0.259 N 
ATOM     24  C   UNL     1      -3.390 -10.024  10.900  0.00  0.00    +0.103 C 
ATOM     25  C   UNL     1      -2.847  -9.649  10.404  0.00  0.00    +0.049 C 
ATOM     26  C   UNL     1      -2.170  -9.486  10.844  0.00  0.00    -0.007 A 
ATOM     27  C   UNL     1      -1.455  -9.124  10.645  0.00  0.00    -0.003 A 
ATOM     28  C   UNL     1      -0.865  -9.036  11.213  0.00  0.00    -0.000 A 
ATOM     29  C   UNL     1      -0.988  -9.310  11.982  0.00  0.00    +0.001 A 
ATOM     30  C   UNL     1      -1.701  -9.672  12.182  0.00  0.00    +0.015 A 
ATOM     31  C   UNL     1      -2.293  -9.760  11.612  0.00  0.00    +0.050 A 
ENDBRANCH  20  21
ENDBRANCH  19  20
ENDBRANCH  18  19
TORSDOF 6
ENDMDL
MODEL 9
REMARK VINA RESULT:      -8.7      1.904      3.989
REMARK  Name = 
REMARK  6 active torsions:
REMARK  status: ('A' for Active; 'I' for Inactive)
REMARK    1  A    between atoms: N_2  and  C_4
REMARK    2  A    between atoms: C_7  and  C_10
REMARK    3  A    between atoms: N_12  and  C_13
REMARK    4  A    between atoms: C_18  and  C_19
REMARK    5  A    between atoms: C_19  and  C_20
REMARK    6  A    between atoms: C_20  and  C_21
REMARK                            x       y       z     vdW  Elec       q    Type
REMARK                         _______ _______ _______ _____ _____    ______ ____
ROOT
ATOM     13  C   UNL     1      -0.966   2.266  25.352  0.00  0.00    +0.113 C 
ATOM     14  C   UNL     1      -0.497   2.831  24.977  0.00  0.00    +0.048 C 
ATOM     15  C   UNL     1      -0.880   3.560  25.033  0.00  0.00    +0.138 C 
ATOM     16  N   UNL     1      -1.587   3.445  25.444  0.00  0.00    -0.265 NA
ATOM     17  C   UNL     1      -1.639   2.645  25.641  0.00  0.00    +0.094 C 
ATOM     18  C   UNL     1      -2.090   4.082  25.585  0.00  0.00    +0.080 C 
ATOM     32  C   UNL     1      -1.887   4.836  25.316  0.00  0.00    +0.131 C 
ATOM     33  N   UNL     1      -1.181   4.951  24.905  0.00  0.00    -0.203 NA
ATOM     34  C   UNL     1      -0.677   4.312  24.764  0.00  0.00    +0.256 C 
ATOM     35  O   UNL     1       0.029   4.428  24.354  0.00  0.00    -0.272 OA
ENDROOT
BRANCH  13  12
ATOM     10  C   UNL     1      -1.068   0.928  24.861  0.00  0.00    +0.265 C 
ATOM     11  O   UNL     1      -1.517   1.196  24.223  0.00  0.00    -0.268 OA
ATOM     12  N   UNL     1      -0.793   1.463  25.426  0.00  0.00    -0.202 NA
BRANCH  10   7
ATOM      4  C   UNL     1      -0.547  -1.481  25.083  0.00  0.00    +0.048 A 
ATOM      5  C   UNL     1      -0.209  -1.041  24.473  0.00  0.00    +0.015 A 
ATOM      6  C   UNL     1      -0.383  -0.238  24.399  0.00  0.00    +0.006 A 
ATOM      7  C   UNL     1      -0.895   0.125  24.935  0.00  0.00    +0.055 A 
ATOM      8  C   UNL     1      -1.232  -0.316  25.545  0.00  0.00    +0.006 A 
ATOM      9  C   UNL     1      -1.059  -1.119  25.618  0.00  0.00    +0.015 A 
BRANCH   4   2
ATOM      1  C   UNL     1       0.350  -2.523  25.473  0.00  0.00    +0.112 C 
ATOM      2  N   UNL     1      -0.373  -2.286  25.156  0.00  0.00    -0.304 N 
ATOM      3  C   UNL     1      -0.924  -2.849  24.913  0.00  0.00    +0.112 C 
ENDBRANCH   4   2
ENDBRANCH  10   7
ENDBRANCH  13  12
BRANCH  18  19
ATOM     19  C   UNL     1      -2.796   3.967  25.995  0.00  0.00    +0.027 C 
BRANCH  19  20
ATOM     20  C   UNL     1      -3.486   3.779  25.585  0.00  0.00    +0.087 C 
BRANCH  20  21
ATOM     21  C   UNL     1      -4.216   4.050  25.858  0.00  0.00    +0.229 C 
ATOM     22  O   UNL     1      -4.263   4.760  26.275  0.00  0.00    -0.275 OA
ATOM     23  N   UNL     1      -4.900   3.611  25.714  0.00  0.00    -0.259 N 
ATOM     24  C   UNL     1      -5.663   3.811  25.951  0.00  0.00    +0.103 C 
ATOM     25  C   UNL     1      -6.175   3.218  25.691  0.00  0.00    +0.049 C 
ATOM     26  C   UNL     1      -5.727   2.652  25.293  0.00  0.00    -0.007 A 
ATOM     27  C   UNL     1      -5.934   1.946  24.918  0.00  0.00    -0.003 A 
ATOM     28  C   UNL     1      -5.354   1.484  24.559  0.00  0.00    -0.000 A 
ATOM     29  C   UNL     1      -4.566   1.727  24.573  0.00  0.00    +0.001 A 
ATOM     30  C   UNL     1      -4.358   2.432  24.946  0.00  0.00    +0.015 A 
ATOM     31  C   UNL     1      -4.939   2.895  25.307  0.00  0.00    +0.050 A 
ENDBRANCH  20  21
ENDBRANCH  19  20
ENDBRANCH  18  19
TORSDOF 6
ENDMDL
MODEL 10
REMARK VINA RESULT:      -8.3      1.278      5.316
REMARK  Name = 
REMARK  6 active torsions:
REMARK  status: ('A' for Active; 'I' for Inactive)
REMARK    1  A    between atoms: N_2  and  C_4
REMARK    2  A    between atoms: C_7  and  C_10
REMARK    3  A    between atoms: N_12  and  C_13
REMARK    4  A    between atoms: C_18  and  C_19
REMARK    5  A    between atoms: C_19  and  C_20
REMARK    6  A    between atoms: C_20  and  C_21
REMARK                            x       y       z     vdW  Elec       q    Type
REMARK                         _______ _______ _______ _____ _____    ______ ____
ROOT
ATOM     13  C   UNL     1      -3.962   2.483  24.881  0.00  0.00    +0.113 C 
ATOM     14  C   UNL     1      -4.649   2.593  25.326  0.00  0.00    +0.048 C 
ATOM     15  C   UNL     1      -5.068   1.881  25.327  0.00  0.00    +0.138 C 
ATOM     16  N   UNL     1      -4.640   1.333  24.883  0.00  0.00    -0.265 NA
ATOM     17  C   UNL     1      -3.957   1.706  24.608  0.00  0.00    +0.094 C 
ATOM     18  C   UNL     1      -4.927   0.566  24.788  0.00  0.00    +0.080 C 
ATOM     32  C   UNL     1      -5.643   0.347  25.136  0.00  0.00    +0.131 C 
ATOM     33  N   UNL     1      -6.071   0.895  25.579  0.00  0.00    -0.203 NA
ATOM     34  C   UNL     1      -5.783   1.663  25.675  0.00  0.00    +0.256 C 
ATOM     35  O   UNL     1      -6.211   2.211  26.119  0.00  0.00    -0.272 OA
ENDROOT
BRANCH  13  12
ATOM     10  C   UNL     1      -2.734   3.119  25.240  0.00  0.00    +0.265 C 
ATOM     11  O   UNL     1      -2.664   2.616  25.891  0.00  0.00    -0.268 OA
ATOM     12  N   UNL     1      -3.383   3.053  24.735  0.00  0.00    -0.202 NA
BRANCH  10   7
ATOM      4  C   UNL     1      -0.997   4.827  24.804  0.00  0.00    +0.048 A 
ATOM      5  C   UNL     1      -0.874   4.046  24.571  0.00  0.00    +0.015 A 
ATOM      6  C   UNL     1      -1.453   3.476  24.716  0.00  0.00    +0.006 A 
ATOM      7  C   UNL     1      -2.155   3.688  25.095  0.00  0.00    +0.055 A 
ATOM      8  C   UNL     1      -2.277   4.470  25.328  0.00  0.00    +0.006 A 
ATOM      9  C   UNL     1      -1.698   5.039  25.182  0.00  0.00    +0.015 A 
BRANCH   4   2
ATOM      1  C   UNL     1      -0.561   6.187  24.844  0.00  0.00    +0.112 C 
ATOM      2  N   UNL     1      -0.417   5.397  24.658  0.00  0.00    -0.304 N 
ATOM      3  C   UNL     1       0.304   5.175  24.327  0.00  0.00    +0.112 C 
ENDBRANCH   4   2
ENDBRANCH  10   7
ENDBRANCH  13  12
BRANCH  18  19
ATOM     19  C   UNL     1      -4.500   0.018  24.344  0.00  0.00    +0.027 C 
BRANCH  19  20
ATOM     20  C   UNL     1      -4.057  -0.565  24.724  0.00  0.00    +0.087 C 
BRANCH  20  21
ATOM     21  C   UNL     1      -3.970  -1.309  24.378  0.00  0.00    +0.229 C 
ATOM     22  O   UNL     1      -4.585  -1.631  23.932  0.00  0.00    -0.275 OA
ATOM     23  N   UNL     1      -3.269  -1.732  24.478  0.00  0.00    -0.259 N 
ATOM     24  C   UNL     1      -3.104  -2.477  24.167  0.00  0.00    +0.103 C 
ATOM     25  C   UNL     1      -2.342  -2.689  24.403  0.00  0.00    +0.049 C 
ATOM     26  C   UNL     1      -2.037  -2.075  24.860  0.00  0.00    -0.007 A 
ATOM     27  C   UNL     1      -1.311  -1.976  25.241  0.00  0.00    -0.003 A 
ATOM     28  C   UNL     1      -1.158  -1.287  25.666  0.00  0.00    -0.000 A 
ATOM     29  C   UNL     1      -1.731  -0.695  25.713  0.00  0.00    +0.001 A 
ATOM     30  C   UNL     1      -2.457  -0.792  25.333  0.00  0.00    +0.015 A 
ATOM     31  C   UNL     1      -2.610  -1.483  24.906  0.00  0.00    +0.050 A 
ENDBRANCH  20  21
ENDBRANCH  19  20
ENDBRANCH  18  19
TORSDOF 6
ENDMDL
