MODEL 1
REMARK VINA RESULT:     -11.4      0.000      0.000
REMARK  Name = 
REMARK  5 active torsions:
REMARK  status: ('A' for Active; 'I' for Inactive)
REMARK    1  A    between atoms: O_2  and  C_3
REMARK    2  A    between atoms: C_6  and  C_9
REMARK    3  A    between atoms: C_12  and  C_14
REMARK    4  A    between atoms: N_18  and  C_19
REMARK    5  A    between atoms: C_19  and  C_20
REMARK                            x       y       z     vdW  Elec       q    Type
REMARK                         _______ _______ _______ _____ _____    ______ ____
ROOT
ATOM      9  C   UNL     1      -4.152   0.366  24.942  0.00  0.00    +0.205 A 
ATOM     10  N   UNL     1      -4.626   0.740  25.504  0.00  0.00    -0.056 NA
ATOM     11  O   UNL     1      -4.635   1.547  25.334  0.00  0.00    -0.336 OA
ATOM     12  C   UNL     1      -4.166   1.673  24.667  0.00  0.00    +0.251 A 
ATOM     13  N   UNL     1      -3.867   0.943  24.425  0.00  0.00    -0.190 NA
ENDROOT
BRANCH   9   6
ATOM      3  C   UNL     1      -3.667  -2.058  24.828  0.00  0.00    +0.225 A 
ATOM      4  N   UNL     1      -3.460  -1.627  25.500  0.00  0.00    -0.210 NA
ATOM      5  C   UNL     1      -3.621  -0.819  25.538  0.00  0.00    +0.105 A 
ATOM      6  C   UNL     1      -3.990  -0.442  24.904  0.00  0.00    +0.058 A 
ATOM      7  C   UNL     1      -4.198  -0.872  24.231  0.00  0.00    +0.010 A 
ATOM      8  C   UNL     1      -4.036  -1.681  24.193  0.00  0.00    +0.058 A 
BRANCH   3   2
ATOM      1  C   UNL     1      -2.837  -3.134  24.385  0.00  0.00    +0.254 C 
ATOM      2  O   UNL     1      -3.505  -2.866  24.790  0.00  0.00    -0.456 OA
ENDBRANCH   3   2
ENDBRANCH   9   6
BRANCH  12  14
ATOM     14  C   UNL     1      -4.021   2.400  24.306  0.00  0.00    +0.138 C 
ATOM     15  C   UNL     1      -4.477   2.745  23.711  0.00  0.00    +0.027 C 
ATOM     16  C   UNL     1      -4.132   3.469  23.513  0.00  0.00    +0.019 C 
ATOM     17  C   UNL     1      -3.463   3.570  23.986  0.00  0.00    +0.073 C 
ATOM     18  N   UNL     1      -3.394   2.909  24.476  0.00  0.00    -0.263 NA
BRANCH  18  19
ATOM     19  C   UNL     1      -2.803   2.781  25.037  0.00  0.00    +0.102 C 
BRANCH  19  20
ATOM     20  C   UNL     1      -2.192   3.328  25.125  0.00  0.00    +0.021 A 
ATOM     21  C   UNL     1      -2.366   4.114  25.308  0.00  0.00    -0.001 A 
ATOM     22  C   UNL     1      -1.755   4.661  25.396  0.00  0.00    -0.000 A 
ATOM     23  C   UNL     1      -0.971   4.424  25.300  0.00  0.00    +0.002 A 
ATOM     24  C   UNL     1      -0.798   3.639  25.116  0.00  0.00    +0.029 A 
ATOM     25  C   UNL     1      -1.408   3.091  25.028  0.00  0.00    +0.137 A 
ATOM     26  F   UNL     1      -1.234   2.305  24.845  0.00  0.00    -0.204 F 
ENDBRANCH  19  20
ENDBRANCH  18  19
ENDBRANCH  12  14
TORSDOF 5
ENDMDL
MODEL 2
REMARK VINA RESULT:     -10.8      2.102      5.463
REMARK  Name = 
REMARK  5 active torsions:
REMARK  status: ('A' for Active; 'I' for Inactive)
REMARK    1  A    between atoms: O_2  and  C_3
REMARK    2  A    between atoms: C_6  and  C_9
REMARK    3  A    between atoms: C_12  and  C_14
REMARK    4  A    between atoms: N_18  and  C_19
REMARK    5  A    between atoms: C_19  and  C_20
REMARK                            x       y       z     vdW  Elec       q    Type
REMARK                         _______ _______ _______ _____ _____    ______ ____
ROOT
ATOM      9  C   UNL     1      -1.431   1.759  24.471  0.00  0.00    +0.205 A 
ATOM     10  N   UNL     1      -1.324   1.523  23.688  0.00  0.00    -0.056 NA
ATOM     11  O   UNL     1      -1.227   0.703  23.679  0.00  0.00    -0.336 OA
ATOM     12  C   UNL     1      -1.275   0.432  24.457  0.00  0.00    +0.251 A 
ATOM     13  N   UNL     1      -1.401   1.085  24.947  0.00  0.00    -0.190 NA
ENDROOT
BRANCH   9   6
ATOM      3  C   UNL     1      -1.783   4.079  25.257  0.00  0.00    +0.225 A 
ATOM      4  N   UNL     1      -2.430   3.610  25.052  0.00  0.00    -0.210 NA
ATOM      5  C   UNL     1      -2.313   2.836  24.790  0.00  0.00    +0.105 A 
ATOM      6  C   UNL     1      -1.549   2.532  24.733  0.00  0.00    +0.058 A 
ATOM      7  C   UNL     1      -0.901   3.000  24.938  0.00  0.00    +0.010 A 
ATOM      8  C   UNL     1      -1.018   3.774  25.200  0.00  0.00    +0.058 A 
BRANCH   3   2
ATOM      1  C   UNL     1      -1.536   5.480  25.126  0.00  0.00    +0.254 C 
ATOM      2  O   UNL     1      -1.900   4.852  25.519  0.00  0.00    -0.456 OA
ENDBRANCH   3   2
ENDBRANCH   9   6
BRANCH  12  14
ATOM     14  C   UNL     1      -1.208  -0.352  24.702  0.00  0.00    +0.138 C 
ATOM     15  C   UNL     1      -0.509  -0.735  24.917  0.00  0.00    +0.027 C 
ATOM     16  C   UNL     1      -0.698  -1.512  25.124  0.00  0.00    +0.019 C 
ATOM     17  C   UNL     1      -1.513  -1.608  25.037  0.00  0.00    +0.073 C 
ATOM     18  N   UNL     1      -1.828  -0.892  24.777  0.00  0.00    -0.263 NA
BRANCH  18  19
ATOM     19  C   UNL     1      -2.624  -0.741  24.618  0.00  0.00    +0.102 C 
BRANCH  19  20
ATOM     20  C   UNL     1      -3.142  -1.367  24.480  0.00  0.00    +0.021 A 
ATOM     21  C   UNL     1      -3.044  -2.080  24.884  0.00  0.00    -0.001 A 
ATOM     22  C   UNL     1      -3.562  -2.707  24.746  0.00  0.00    -0.000 A 
ATOM     23  C   UNL     1      -4.179  -2.621  24.205  0.00  0.00    +0.002 A 
ATOM     24  C   UNL     1      -4.278  -1.908  23.803  0.00  0.00    +0.029 A 
ATOM     25  C   UNL     1      -3.759  -1.281  23.940  0.00  0.00    +0.137 A 
ATOM     26  F   UNL     1      -3.858  -0.568  23.536  0.00  0.00    -0.204 F 
ENDBRANCH  19  20
ENDBRANCH  18  19
ENDBRANCH  12  14
TORSDOF 5
ENDMDL
MODEL 3
REMARK VINA RESULT:     -10.8      2.081      5.036
REMARK  Name = 
REMARK  5 active torsions:
REMARK  status: ('A' for Active; 'I' for Inactive)
REMARK    1  A    between atoms: O_2  and  C_3
REMARK    2  A    between atoms: C_6  and  C_9
REMARK    3  A    between atoms: C_12  and  C_14
REMARK    4  A    between atoms: N_18  and  C_19
REMARK    5  A    between atoms: C_19  and  C_20
REMARK                            x       y       z     vdW  Elec       q    Type
REMARK                         _______ _______ _______ _____ _____    ______ ____
ROOT
ATOM      9  C   UNL     1      -3.633   2.073  24.519  0.00  0.00    +0.205 A 
ATOM     10  N   UNL     1      -3.360   2.102  23.741  0.00  0.00    -0.056 NA
ATOM     11  O   UNL     1      -2.814   1.491  23.639  0.00  0.00    -0.336 OA
ATOM     12  C   UNL     1      -2.751   1.084  24.354  0.00  0.00    +0.251 A 
ATOM     13  N   UNL     1      -3.257   1.444  24.898  0.00  0.00    -0.190 NA
ENDROOT
BRANCH   9   6
ATOM      3  C   UNL     1      -5.290   3.604  25.537  0.00  0.00    +0.225 A 
ATOM      4  N   UNL     1      -4.507   3.845  25.445  0.00  0.00    -0.210 NA
ATOM      5  C   UNL     1      -3.954   3.335  25.106  0.00  0.00    +0.105 A 
ATOM      6  C   UNL     1      -4.185   2.583  24.858  0.00  0.00    +0.058 A 
ATOM      7  C   UNL     1      -4.969   2.341  24.949  0.00  0.00    +0.010 A 
ATOM      8  C   UNL     1      -5.521   2.851  25.289  0.00  0.00    +0.058 A 
BRANCH   3   2
ATOM      1  C   UNL     1      -6.010   4.838  25.517  0.00  0.00    +0.254 C 
ATOM      2  O   UNL     1      -5.843   4.114  25.876  0.00  0.00    -0.456 OA
ENDBRANCH   3   2
ENDBRANCH   9   6
BRANCH  12  14
ATOM     14  C   UNL     1      -2.267   0.432  24.500  0.00  0.00    +0.138 C 
ATOM     15  C   UNL     1      -1.449   0.450  24.609  0.00  0.00    +0.027 C 
ATOM     16  C   UNL     1      -1.193  -0.324  24.739  0.00  0.00    +0.019 C 
ATOM     17  C   UNL     1      -1.852  -0.819  24.710  0.00  0.00    +0.073 C 
ATOM     18  N   UNL     1      -2.516  -0.352  24.562  0.00  0.00    -0.263 NA
BRANCH  18  19
ATOM     19  C   UNL     1      -3.292  -0.622  24.490  0.00  0.00    +0.102 C 
BRANCH  19  20
ATOM     20  C   UNL     1      -3.449  -1.432  24.495  0.00  0.00    +0.021 A 
ATOM     21  C   UNL     1      -3.165  -1.903  25.110  0.00  0.00    -0.001 A 
ATOM     22  C   UNL     1      -3.322  -2.712  25.116  0.00  0.00    -0.000 A 
ATOM     23  C   UNL     1      -3.763  -3.052  24.507  0.00  0.00    +0.002 A 
ATOM     24  C   UNL     1      -4.047  -2.581  23.893  0.00  0.00    +0.029 A 
ATOM     25  C   UNL     1      -3.891  -1.771  23.886  0.00  0.00    +0.137 A 
ATOM     26  F   UNL     1      -4.176  -1.300  23.271  0.00  0.00    -0.204 F 
ENDBRANCH  19  20
ENDBRANCH  18  19
ENDBRANCH  12  14
TORSDOF 5
ENDMDL
MODEL 4
REMARK VINA RESULT:     -10.7      1.584      5.003
REMARK  Name = 
REMARK  5 active torsions:
REMARK  status: ('A' for Active; 'I' for Inactive)
REMARK    1  A    between atoms: O_2  and  C_3
REMARK    2  A    between atoms: C_6  and  C_9
REMARK    3  A    between atoms: C_12  and  C_14
REMARK    4  A    between atoms: N_18  and  C_19
REMARK    5  A    between atoms: C_19  and  C_20
REMARK                            x       y       z     vdW  Elec       q    Type
REMARK                         _______ _______ _______ _____ _____    ______ ____
ROOT
ATOM      9  C   UNL     1      -2.847   2.669  24.360  0.00  0.00    +0.205 A 
ATOM     10  N   UNL     1      -3.007   2.406  23.595  0.00  0.00    -0.056 NA
ATOM     11  O   UNL     1      -3.607   1.841  23.640  0.00  0.00    -0.336 OA
ATOM     12  C   UNL     1      -3.818   1.755  24.433  0.00  0.00    +0.251 A 
ATOM     13  N   UNL     1      -3.348   2.267  24.878  0.00  0.00    -0.190 NA
ENDROOT
BRANCH   9   6
ATOM      3  C   UNL     1      -1.160   4.367  24.992  0.00  0.00    +0.225 A 
ATOM      4  N   UNL     1      -0.926   3.674  24.609  0.00  0.00    -0.210 NA
ATOM      5  C   UNL     1      -1.489   3.109  24.398  0.00  0.00    +0.105 A 
ATOM      6  C   UNL     1      -2.285   3.235  24.571  0.00  0.00    +0.058 A 
ATOM      7  C   UNL     1      -2.520   3.927  24.954  0.00  0.00    +0.010 A 
ATOM      8  C   UNL     1      -1.958   4.493  25.164  0.00  0.00    +0.058 A 
BRANCH   3   2
ATOM      1  C   UNL     1      -0.567   5.652  24.800  0.00  0.00    +0.254 C 
ATOM      2  O   UNL     1      -0.598   4.932  25.203  0.00  0.00    -0.456 OA
ENDBRANCH   3   2
ENDBRANCH   9   6
BRANCH  12  14
ATOM     14  C   UNL     1      -4.397   1.247  24.728  0.00  0.00    +0.138 C 
ATOM     15  C   UNL     1      -5.165   1.459  24.940  0.00  0.00    +0.027 C 
ATOM     16  C   UNL     1      -5.552   0.780  25.207  0.00  0.00    +0.019 C 
ATOM     17  C   UNL     1      -5.022   0.149  25.160  0.00  0.00    +0.073 C 
ATOM     18  N   UNL     1      -4.308   0.438  24.864  0.00  0.00    -0.263 NA
BRANCH  18  19
ATOM     19  C   UNL     1      -3.625  -0.005  24.728  0.00  0.00    +0.102 C 
BRANCH  19  20
ATOM     20  C   UNL     1      -3.673  -0.825  24.658  0.00  0.00    +0.021 A 
ATOM     21  C   UNL     1      -4.104  -1.161  24.039  0.00  0.00    -0.001 A 
ATOM     22  C   UNL     1      -4.152  -1.982  23.969  0.00  0.00    -0.000 A 
ATOM     23  C   UNL     1      -3.770  -2.466  24.517  0.00  0.00    +0.002 A 
ATOM     24  C   UNL     1      -3.340  -2.130  25.135  0.00  0.00    +0.029 A 
ATOM     25  C   UNL     1      -3.291  -1.310  25.206  0.00  0.00    +0.137 A 
ATOM     26  F   UNL     1      -2.860  -0.973  25.824  0.00  0.00    -0.204 F 
ENDBRANCH  19  20
ENDBRANCH  18  19
ENDBRANCH  12  14
TORSDOF 5
ENDMDL
MODEL 5
REMARK VINA RESULT:     -10.7      1.866      2.590
REMARK  Name = 
REMARK  5 active torsions:
REMARK  status: ('A' for Active; 'I' for Inactive)
REMARK    1  A    between atoms: O_2  and  C_3
REMARK    2  A    between atoms: C_6  and  C_9
REMARK    3  A    between atoms: C_12  and  C_14
REMARK    4  A    between atoms: N_18  and  C_19
REMARK    5  A    between atoms: C_19  and  C_20
REMARK                            x       y       z     vdW  Elec       q    Type
REMARK                         _______ _______ _______ _____ _____    ______ ____
ROOT
ATOM      9  C   UNL     1      -1.742   0.195  24.654  0.00  0.00    +0.205 A 
ATOM     10  N   UNL     1      -1.293   0.464  24.016  0.00  0.00    -0.056 NA
ATOM     11  O   UNL     1      -0.828   1.094  24.278  0.00  0.00    -0.336 OA
ATOM     12  C   UNL     1      -0.990   1.214  25.078  0.00  0.00    +0.251 A 
ATOM     13  N   UNL     1      -1.555   0.659  25.311  0.00  0.00    -0.190 NA
ENDROOT
BRANCH   9   6
ATOM      3  C   UNL     1      -3.364  -1.673  24.607  0.00  0.00    +0.225 A 
ATOM      4  N   UNL     1      -2.558  -1.828  24.691  0.00  0.00    -0.210 NA
ATOM      5  C   UNL     1      -2.017  -1.205  24.706  0.00  0.00    +0.105 A 
ATOM      6  C   UNL     1      -2.282  -0.428  24.638  0.00  0.00    +0.058 A 
ATOM      7  C   UNL     1      -3.088  -0.272  24.554  0.00  0.00    +0.010 A 
ATOM      8  C   UNL     1      -3.629  -0.894  24.539  0.00  0.00    +0.058 A 
BRANCH   3   2
ATOM      1  C   UNL     1      -4.254  -2.521  23.878  0.00  0.00    +0.254 C 
ATOM      2  O   UNL     1      -3.905  -2.296  24.591  0.00  0.00    -0.456 OA
ENDBRANCH   3   2
ENDBRANCH   9   6
BRANCH  12  14
ATOM     14  C   UNL     1      -0.648   1.788  25.561  0.00  0.00    +0.138 C 
ATOM     15  C   UNL     1      -0.030   1.669  26.095  0.00  0.00    +0.027 C 
ATOM     16  C   UNL     1       0.136   2.390  26.459  0.00  0.00    +0.019 C 
ATOM     17  C   UNL     1      -0.380   2.956  26.150  0.00  0.00    +0.073 C 
ATOM     18  N   UNL     1      -0.864   2.584  25.595  0.00  0.00    -0.263 NA
BRANCH  18  19
ATOM     19  C   UNL     1      -1.459   2.945  25.152  0.00  0.00    +0.102 C 
BRANCH  19  20
ATOM     20  C   UNL     1      -1.535   3.766  25.155  0.00  0.00    +0.021 A 
ATOM     21  C   UNL     1      -0.908   4.239  24.899  0.00  0.00    -0.001 A 
ATOM     22  C   UNL     1      -0.984   5.060  24.901  0.00  0.00    -0.000 A 
ATOM     23  C   UNL     1      -1.685   5.410  25.160  0.00  0.00    +0.002 A 
ATOM     24  C   UNL     1      -2.311   4.938  25.416  0.00  0.00    +0.029 A 
ATOM     25  C   UNL     1      -2.236   4.116  25.414  0.00  0.00    +0.137 A 
ATOM     26  F   UNL     1      -2.862   3.644  25.670  0.00  0.00    -0.204 F 
ENDBRANCH  19  20
ENDBRANCH  18  19
ENDBRANCH  12  14
TORSDOF 5
ENDMDL
MODEL 6
REMARK VINA RESULT:      -9.8      2.175      3.152
REMARK  Name = 
REMARK  5 active torsions:
REMARK  status: ('A' for Active; 'I' for Inactive)
REMARK    1  A    between atoms: O_2  and  C_3
REMARK    2  A    between atoms: C_6  and  C_9
REMARK    3  A    between atoms: C_12  and  C_14
REMARK    4  A    between atoms: N_18  and  C_19
REMARK    5  A    between atoms: C_19  and  C_20
REMARK                            x       y       z     vdW  Elec       q    Type
REMARK                         _______ _______ _______ _____ _____    ______ ____
ROOT
ATOM      9  C   UNL     1      -1.293   1.246  24.623  0.00  0.00    +0.205 A 
ATOM     10  N   UNL     1      -1.138   1.674  23.935  0.00  0.00    -0.056 NA
ATOM     11  O   UNL     1      -1.453   2.431  24.029  0.00  0.00    -0.336 OA
ATOM     12  C   UNL     1      -1.802   2.471  24.775  0.00  0.00    +0.251 A 
ATOM     13  N   UNL     1      -1.704   1.739  25.143  0.00  0.00    -0.190 NA
ENDROOT
BRANCH   9   6
ATOM      3  C   UNL     1      -0.642  -1.102  25.055  0.00  0.00    +0.225 A 
ATOM      4  N   UNL     1      -0.302  -0.688  24.429  0.00  0.00    -0.210 NA
ATOM      5  C   UNL     1      -0.519   0.095  24.285  0.00  0.00    +0.105 A 
ATOM      6  C   UNL     1      -1.076   0.463  24.767  0.00  0.00    +0.058 A 
ATOM      7  C   UNL     1      -1.418   0.050  25.395  0.00  0.00    +0.010 A 
ATOM      8  C   UNL     1      -1.200  -0.733  25.539  0.00  0.00    +0.058 A 
BRANCH   3   2
ATOM      1  C   UNL     1      -0.954  -2.496  25.035  0.00  0.00    +0.254 C 
ATOM      2  O   UNL     1      -0.425  -1.885  25.200  0.00  0.00    -0.456 OA
ENDBRANCH   3   2
ENDBRANCH   9   6
BRANCH  12  14
ATOM     14  C   UNL     1      -2.183   3.128  25.097  0.00  0.00    +0.138 C 
ATOM     15  C   UNL     1      -1.831   3.717  25.554  0.00  0.00    +0.027 C 
ATOM     16  C   UNL     1      -2.414   4.265  25.758  0.00  0.00    +0.019 C 
ATOM     17  C   UNL     1      -3.127   4.013  25.427  0.00  0.00    +0.073 C 
ATOM     18  N   UNL     1      -2.984   3.311  25.018  0.00  0.00    -0.263 NA
BRANCH  18  19
ATOM     19  C   UNL     1      -3.544   2.869  24.604  0.00  0.00    +0.102 C 
BRANCH  19  20
ATOM     20  C   UNL     1      -4.318   2.815  24.885  0.00  0.00    +0.021 A 
ATOM     21  C   UNL     1      -4.608   3.387  25.405  0.00  0.00    -0.001 A 
ATOM     22  C   UNL     1      -5.381   3.333  25.687  0.00  0.00    -0.000 A 
ATOM     23  C   UNL     1      -5.865   2.709  25.449  0.00  0.00    +0.002 A 
ATOM     24  C   UNL     1      -5.575   2.138  24.930  0.00  0.00    +0.029 A 
ATOM     25  C   UNL     1      -4.802   2.191  24.647  0.00  0.00    +0.137 A 
ATOM     26  F   UNL     1      -4.512   1.619  24.127  0.00  0.00    -0.204 F 
ENDBRANCH  19  20
ENDBRANCH  18  19
ENDBRANCH  12  14
TORSDOF 5
ENDMDL
