MODEL 1
REMARK VINA RESULT:     -13.3      0.000      0.000
REMARK  Name = 
REMARK  6 active torsions:
REMARK  status: ('A' for Active; 'I' for Inactive)
REMARK    1  A    between atoms: O_2  and  C_3
REMARK    2  A    between atoms: C_3  and  C_5
REMARK    3  A    between atoms: C_12  and  C_14
REMARK    4  A    between atoms: N_17  and  C_18
REMARK    5  A    between atoms: C_18  and  C_19
REMARK    6  A    between atoms: C_22  and  C_25
REMARK                            x       y       z     vdW  Elec       q    Type
REMARK                         _______ _______ _______ _____ _____    ______ ____
ROOT
ATOM     14  C   UNL     1      -1.088   1.290  25.102  0.00  0.00    +0.094 C 
ATOM     15  C   UNL     1      -0.569   0.874  24.613  0.00  0.00    +0.028 C 
ATOM     16  C   UNL     1      -0.649   0.070  24.781  0.00  0.00    +0.073 C 
ATOM     17  N   UNL     1      -1.217  -0.011  25.374  0.00  0.00    -0.268 NA
ATOM     29  C   UNL     1      -1.489   0.743  25.572  0.00  0.00    +0.082 C 
ENDROOT
BRANCH  14  12
ATOM      5  C   UNL     1      -2.217   3.976  25.387  0.00  0.00    +0.112 A 
ATOM      6  C   UNL     1      -1.911   4.735  25.285  0.00  0.00    +0.010 A 
ATOM      7  C   UNL     1      -1.125   4.836  25.054  0.00  0.00    +0.002 A 
ATOM      8  C   UNL     1      -0.646   4.178  24.926  0.00  0.00    +0.022 A 
ATOM      9  C   UNL     1      -0.951   3.418  25.027  0.00  0.00    +0.119 A 
ATOM     10  C   UNL     1      -1.737   3.317  25.257  0.00  0.00    +0.171 A 
ATOM     11  O   UNL     1      -1.884   2.508  25.314  0.00  0.00    -0.438 OA
ATOM     12  C   UNL     1      -1.189   2.108  25.118  0.00  0.00    +0.207 A 
ATOM     13  N   UNL     1      -0.613   2.671  24.941  0.00  0.00    -0.212 NA
BRANCH   5   3
ATOM      3  C   UNL     1      -3.002   3.875  25.617  0.00  0.00    +0.344 C 
ATOM      4  O   UNL     1      -3.199   3.866  26.419  0.00  0.00    -0.245 OA
BRANCH   3   2
ATOM      1  C   UNL     1      -4.385   3.774  25.271  0.00  0.00    +0.256 C 
ATOM      2  O   UNL     1      -3.591   3.783  25.047  0.00  0.00    -0.441 OA
ENDBRANCH   3   2
ENDBRANCH   5   3
ENDBRANCH  14  12
BRANCH  17  18
ATOM     18  C   UNL     1      -1.470  -0.721  25.710  0.00  0.00    +0.099 C 
BRANCH  18  19
ATOM     19  C   UNL     1      -2.068  -1.158  25.348  0.00  0.00    -0.006 A 
ATOM     20  C   UNL     1      -2.857  -1.016  25.541  0.00  0.00    -0.003 A 
ATOM     21  C   UNL     1      -3.456  -1.454  25.179  0.00  0.00    +0.004 A 
ATOM     22  C   UNL     1      -3.265  -2.034  24.625  0.00  0.00    +0.071 A 
ATOM     23  C   UNL     1      -2.476  -2.177  24.432  0.00  0.00    +0.004 A 
ATOM     24  C   UNL     1      -1.877  -1.739  24.794  0.00  0.00    -0.003 A 
BRANCH  22  25
ATOM     25  C   UNL     1      -3.864  -2.472  24.263  0.00  0.00    +0.419 C 
ATOM     26  F   UNL     1      -4.462  -2.910  23.902  0.00  0.00    -0.166 F 
ATOM     27  F   UNL     1      -3.715  -3.100  24.777  0.00  0.00    -0.166 F 
ATOM     28  F   UNL     1      -4.013  -1.844  23.749  0.00  0.00    -0.166 F 
ENDBRANCH  22  25
ENDBRANCH  18  19
ENDBRANCH  17  18
TORSDOF 6
ENDMDL
MODEL 2
REMARK VINA RESULT:     -13.1      1.489      2.467
REMARK  Name = 
REMARK  6 active torsions:
REMARK  status: ('A' for Active; 'I' for Inactive)
REMARK    1  A    between atoms: O_2  and  C_3
REMARK    2  A    between atoms: C_3  and  C_5
REMARK    3  A    between atoms: C_12  and  C_14
REMARK    4  A    between atoms: N_17  and  C_18
REMARK    5  A    between atoms: C_18  and  C_19
REMARK    6  A    between atoms: C_22  and  C_25
REMARK                            x       y       z     vdW  Elec       q    Type
REMARK                         _______ _______ _______ _____ _____    ______ ____
ROOT
ATOM     14  C   UNL     1      -3.577   2.178  24.801  0.00  0.00    +0.094 C 
ATOM     15  C   UNL     1      -4.203   2.223  24.267  0.00  0.00    +0.028 C 
ATOM     16  C   UNL     1      -4.676   1.554  24.370  0.00  0.00    +0.073 C 
ATOM     17  N   UNL     1      -4.341   1.096  24.969  0.00  0.00    -0.268 NA
ATOM     29  C   UNL     1      -3.662   1.481  25.236  0.00  0.00    +0.082 C 
ENDROOT
BRANCH  14  12
ATOM      5  C   UNL     1      -0.957   3.455  25.081  0.00  0.00    +0.112 A 
ATOM      6  C   UNL     1      -0.712   4.239  25.162  0.00  0.00    +0.010 A 
ATOM      7  C   UNL     1      -1.270   4.846  25.175  0.00  0.00    +0.002 A 
ATOM      8  C   UNL     1      -2.072   4.671  25.107  0.00  0.00    +0.022 A 
ATOM      9  C   UNL     1      -2.318   3.887  25.026  0.00  0.00    +0.119 A 
ATOM     10  C   UNL     1      -1.761   3.279  25.013  0.00  0.00    +0.171 A 
ATOM     11  O   UNL     1      -2.164   2.565  24.927  0.00  0.00    -0.438 OA
ATOM     12  C   UNL     1      -2.971   2.732  24.887  0.00  0.00    +0.207 A 
ATOM     13  N   UNL     1      -3.066   3.549  24.948  0.00  0.00    -0.212 NA
BRANCH   5   3
ATOM      3  C   UNL     1      -0.400   2.848  25.067  0.00  0.00    +0.344 C 
ATOM      4  O   UNL     1      -0.162   2.490  25.773  0.00  0.00    -0.245 OA
BRANCH   3   2
ATOM      1  C   UNL     1       0.513   2.023  24.341  0.00  0.00    +0.256 C 
ATOM      2  O   UNL     1      -0.079   2.597  24.350  0.00  0.00    -0.441 OA
ENDBRANCH   3   2
ENDBRANCH   5   3
ENDBRANCH  14  12
BRANCH  17  18
ATOM     18  C   UNL     1      -4.634   0.379  25.252  0.00  0.00    +0.099 C 
BRANCH  18  19
ATOM     19  C   UNL     1      -4.269  -0.329  25.038  0.00  0.00    -0.006 A 
ATOM     20  C   UNL     1      -4.419  -0.664  24.299  0.00  0.00    -0.003 A 
ATOM     21  C   UNL     1      -4.054  -1.373  24.085  0.00  0.00    +0.004 A 
ATOM     22  C   UNL     1      -3.538  -1.746  24.610  0.00  0.00    +0.071 A 
ATOM     23  C   UNL     1      -3.388  -1.411  25.349  0.00  0.00    +0.004 A 
ATOM     24  C   UNL     1      -3.753  -0.703  25.563  0.00  0.00    -0.003 A 
BRANCH  22  25
ATOM     25  C   UNL     1      -3.173  -2.454  24.396  0.00  0.00    +0.419 C 
ATOM     26  F   UNL     1      -2.808  -3.162  24.182  0.00  0.00    -0.166 F 
ATOM     27  F   UNL     1      -2.502  -2.037  24.162  0.00  0.00    -0.166 F 
ATOM     28  F   UNL     1      -3.845  -2.872  24.631  0.00  0.00    -0.166 F 
ENDBRANCH  22  25
ENDBRANCH  18  19
ENDBRANCH  17  18
TORSDOF 6
ENDMDL
MODEL 3
REMARK VINA RESULT:     -13.0      3.011      5.748
REMARK  Name = 
REMARK  6 active torsions:
REMARK  status: ('A' for Active; 'I' for Inactive)
REMARK    1  A    between atoms: O_2  and  C_3
REMARK    2  A    between atoms: C_3  and  C_5
REMARK    3  A    between atoms: C_12  and  C_14
REMARK    4  A    between atoms: N_17  and  C_18
REMARK    5  A    between atoms: C_18  and  C_19
REMARK    6  A    between atoms: C_22  and  C_25
REMARK                            x       y       z     vdW  Elec       q    Type
REMARK                         _______ _______ _______ _____ _____    ______ ____
ROOT
ATOM     14  C   UNL     1      -4.432   0.860  24.837  0.00  0.00    +0.094 C 
ATOM     15  C   UNL     1      -5.037   1.081  25.352  0.00  0.00    +0.028 C 
ATOM     16  C   UNL     1      -5.123   1.901  25.308  0.00  0.00    +0.073 C 
ATOM     17  N   UNL     1      -4.571   2.186  24.765  0.00  0.00    -0.268 NA
ATOM     29  C   UNL     1      -4.144   1.543  24.474  0.00  0.00    +0.082 C 
ENDROOT
BRANCH  14  12
ATOM      5  C   UNL     1      -2.783  -1.557  24.723  0.00  0.00    +0.112 A 
ATOM      6  C   UNL     1      -2.915  -2.322  24.446  0.00  0.00    +0.010 A 
ATOM      7  C   UNL     1      -3.644  -2.523  24.117  0.00  0.00    +0.002 A 
ATOM      8  C   UNL     1      -4.242  -1.957  24.065  0.00  0.00    +0.022 A 
ATOM      9  C   UNL     1      -4.112  -1.191  24.342  0.00  0.00    +0.119 A 
ATOM     10  C   UNL     1      -3.382  -0.991  24.671  0.00  0.00    +0.171 A 
ATOM     11  O   UNL     1      -3.413  -0.198  24.897  0.00  0.00    -0.438 OA
ATOM     12  C   UNL     1      -4.162   0.091  24.707  0.00  0.00    +0.207 A 
ATOM     13  N   UNL     1      -4.593  -0.522  24.364  0.00  0.00    -0.212 NA
BRANCH   5   3
ATOM      3  C   UNL     1      -2.055  -1.357  25.052  0.00  0.00    +0.344 C 
ATOM      4  O   UNL     1      -1.978  -1.282  25.871  0.00  0.00    -0.245 OA
BRANCH   3   2
ATOM      1  C   UNL     1      -0.649  -1.156  24.893  0.00  0.00    +0.256 C 
ATOM      2  O   UNL     1      -1.402  -1.231  24.564  0.00  0.00    -0.441 OA
ENDBRANCH   3   2
ENDBRANCH   5   3
ENDBRANCH  14  12
BRANCH  17  18
ATOM     18  C   UNL     1      -4.465   2.976  24.551  0.00  0.00    +0.099 C 
BRANCH  18  19
ATOM     19  C   UNL     1      -3.769   3.368  24.754  0.00  0.00    -0.006 A 
ATOM     20  C   UNL     1      -3.687   3.703  25.503  0.00  0.00    -0.003 A 
ATOM     21  C   UNL     1      -2.990   4.096  25.706  0.00  0.00    +0.004 A 
ATOM     22  C   UNL     1      -2.375   4.154  25.159  0.00  0.00    +0.071 A 
ATOM     23  C   UNL     1      -2.458   3.819  24.410  0.00  0.00    +0.004 A 
ATOM     24  C   UNL     1      -3.154   3.426  24.207  0.00  0.00    -0.003 A 
BRANCH  22  25
ATOM     25  C   UNL     1      -1.678   4.547  25.362  0.00  0.00    +0.419 C 
ATOM     26  F   UNL     1      -0.982   4.939  25.564  0.00  0.00    -0.166 F 
ATOM     27  F   UNL     1      -1.963   5.234  25.007  0.00  0.00    -0.166 F 
ATOM     28  F   UNL     1      -1.394   3.858  25.717  0.00  0.00    -0.166 F 
ENDBRANCH  22  25
ENDBRANCH  18  19
ENDBRANCH  17  18
TORSDOF 6
ENDMDL
MODEL 4
REMARK VINA RESULT:     -12.2      2.878      5.269
REMARK  Name = 
REMARK  6 active torsions:
REMARK  status: ('A' for Active; 'I' for Inactive)
REMARK    1  A    between atoms: O_2  and  C_3
REMARK    2  A    between atoms: C_3  and  C_5
REMARK    3  A    between atoms: C_12  and  C_14
REMARK    4  A    between atoms: N_17  and  C_18
REMARK    5  A    between atoms: C_18  and  C_19
REMARK    6  A    between atoms: C_22  and  C_25
REMARK                            x       y       z     vdW  Elec       q    Type
REMARK                         _______ _______ _______ _____ _____    ______ ____
ROOT
ATOM     14  C   UNL     1      -0.968   0.314  24.564  0.00  0.00    +0.094 C 
ATOM     15  C   UNL     1      -0.425   0.420  23.952  0.00  0.00    +0.028 C 
ATOM     16  C   UNL     1       0.042   1.075  24.136  0.00  0.00    +0.073 C 
ATOM     17  N   UNL     1      -0.211   1.374  24.862  0.00  0.00    -0.268 NA
ATOM     29  C   UNL     1      -0.836   0.903  25.127  0.00  0.00    +0.082 C 
ENDROOT
BRANCH  14  12
ATOM      5  C   UNL     1      -3.514  -1.128  24.656  0.00  0.00    +0.112 A 
ATOM      6  C   UNL     1      -3.714  -1.926  24.720  0.00  0.00    +0.010 A 
ATOM      7  C   UNL     1      -3.121  -2.497  24.773  0.00  0.00    +0.002 A 
ATOM      8  C   UNL     1      -2.328  -2.270  24.763  0.00  0.00    +0.022 A 
ATOM      9  C   UNL     1      -2.127  -1.473  24.699  0.00  0.00    +0.119 A 
ATOM     10  C   UNL     1      -2.720  -0.901  24.646  0.00  0.00    +0.171 A 
ATOM     11  O   UNL     1      -2.358  -0.163  24.589  0.00  0.00    -0.438 OA
ATOM     12  C   UNL     1      -1.541  -0.278  24.607  0.00  0.00    +0.207 A 
ATOM     13  N   UNL     1      -1.399  -1.087  24.675  0.00  0.00    -0.212 NA
BRANCH   5   3
ATOM      3  C   UNL     1      -4.106  -0.558  24.603  0.00  0.00    +0.344 C 
ATOM      4  O   UNL     1      -4.425  -0.360  23.868  0.00  0.00    -0.245 OA
BRANCH   3   2
ATOM      1  C   UNL     1      -4.938   0.423  25.227  0.00  0.00    +0.256 C 
ATOM      2  O   UNL     1      -4.381  -0.183  25.285  0.00  0.00    -0.441 OA
ENDBRANCH   3   2
ENDBRANCH   5   3
ENDBRANCH  14  12
BRANCH  17  18
ATOM     18  C   UNL     1       0.103   2.027  25.255  0.00  0.00    +0.099 C 
BRANCH  18  19
ATOM     19  C   UNL     1      -0.284   2.754  25.222  0.00  0.00    -0.006 A 
ATOM     20  C   UNL     1      -0.175   3.251  24.573  0.00  0.00    -0.003 A 
ATOM     21  C   UNL     1      -0.562   3.979  24.539  0.00  0.00    +0.004 A 
ATOM     22  C   UNL     1      -1.060   4.209  25.156  0.00  0.00    +0.071 A 
ATOM     23  C   UNL     1      -1.169   3.712  25.805  0.00  0.00    +0.004 A 
ATOM     24  C   UNL     1      -0.782   2.985  25.838  0.00  0.00    -0.003 A 
BRANCH  22  25
ATOM     25  C   UNL     1      -1.448   4.937  25.123  0.00  0.00    +0.419 C 
ATOM     26  F   UNL     1      -1.835   5.664  25.090  0.00  0.00    -0.166 F 
ATOM     27  F   UNL     1      -0.720   5.324  25.110  0.00  0.00    -0.166 F 
ATOM     28  F   UNL     1      -2.176   4.550  25.136  0.00  0.00    -0.166 F 
ENDBRANCH  22  25
ENDBRANCH  18  19
ENDBRANCH  17  18
TORSDOF 6
ENDMDL
MODEL 5
REMARK VINA RESULT:     -11.5      2.058      3.220
REMARK  Name = 
REMARK  6 active torsions:
REMARK  status: ('A' for Active; 'I' for Inactive)
REMARK    1  A    between atoms: O_2  and  C_3
REMARK    2  A    between atoms: C_3  and  C_5
REMARK    3  A    between atoms: C_12  and  C_14
REMARK    4  A    between atoms: N_17  and  C_18
REMARK    5  A    between atoms: C_18  and  C_19
REMARK    6  A    between atoms: C_22  and  C_25
REMARK                            x       y       z     vdW  Elec       q    Type
REMARK                         _______ _______ _______ _____ _____    ______ ____
ROOT
ATOM     14  C   UNL     1      -4.403   0.427  24.904  0.00  0.00    +0.094 C 
ATOM     15  C   UNL     1      -4.620  -0.021  24.247  0.00  0.00    +0.028 C 
ATOM     16  C   UNL     1      -4.293  -0.775  24.333  0.00  0.00    +0.073 C 
ATOM     17  N   UNL     1      -3.876  -0.792  25.044  0.00  0.00    -0.268 NA
ATOM     29  C   UNL     1      -3.944  -0.049  25.398  0.00  0.00    +0.082 C 
ENDROOT
BRANCH  14  12
ATOM      5  C   UNL     1      -4.331   3.336  25.228  0.00  0.00    +0.112 A 
ATOM      6  C   UNL     1      -4.898   3.901  25.427  0.00  0.00    +0.010 A 
ATOM      7  C   UNL     1      -5.675   3.669  25.581  0.00  0.00    +0.002 A 
ATOM      8  C   UNL     1      -5.884   2.872  25.537  0.00  0.00    +0.022 A 
ATOM      9  C   UNL     1      -5.317   2.307  25.338  0.00  0.00    +0.119 A 
ATOM     10  C   UNL     1      -4.540   2.539  25.183  0.00  0.00    +0.171 A 
ATOM     11  O   UNL     1      -4.103   1.863  25.002  0.00  0.00    -0.438 OA
ATOM     12  C   UNL     1      -4.610   1.213  25.045  0.00  0.00    +0.207 A 
ATOM     13  N   UNL     1      -5.360   1.488  25.252  0.00  0.00    -0.212 NA
BRANCH   5   3
ATOM      3  C   UNL     1      -3.555   3.568  25.074  0.00  0.00    +0.344 C 
ATOM      4  O   UNL     1      -3.302   3.672  24.294  0.00  0.00    -0.245 OA
BRANCH   3   2
ATOM      1  C   UNL     1      -2.308   4.070  25.559  0.00  0.00    +0.256 C 
ATOM      2  O   UNL     1      -3.031   3.696  25.697  0.00  0.00    -0.441 OA
ENDBRANCH   3   2
ENDBRANCH   5   3
ENDBRANCH  14  12
BRANCH  17  18
ATOM     18  C   UNL     1      -3.463  -1.437  25.349  0.00  0.00    +0.099 C 
BRANCH  18  19
ATOM     19  C   UNL     1      -2.645  -1.485  25.256  0.00  0.00    -0.006 A 
ATOM     20  C   UNL     1      -2.147  -1.042  25.741  0.00  0.00    -0.003 A 
ATOM     21  C   UNL     1      -1.329  -1.091  25.648  0.00  0.00    +0.004 A 
ATOM     22  C   UNL     1      -1.009  -1.582  25.068  0.00  0.00    +0.071 A 
ATOM     23  C   UNL     1      -1.506  -2.025  24.582  0.00  0.00    +0.004 A 
ATOM     24  C   UNL     1      -2.324  -1.977  24.675  0.00  0.00    -0.003 A 
BRANCH  22  25
ATOM     25  C   UNL     1      -0.190  -1.631  24.975  0.00  0.00    +0.419 C 
ATOM     26  F   UNL     1       0.628  -1.679  24.881  0.00  0.00    -0.166 F 
ATOM     27  F   UNL     1      -0.237  -1.146  24.309  0.00  0.00    -0.166 F 
ATOM     28  F   UNL     1      -0.142  -2.116  25.641  0.00  0.00    -0.166 F 
ENDBRANCH  22  25
ENDBRANCH  18  19
ENDBRANCH  17  18
TORSDOF 6
ENDMDL
MODEL 6
REMARK VINA RESULT:     -11.4      2.486      5.010
REMARK  Name = 
REMARK  6 active torsions:
REMARK  status: ('A' for Active; 'I' for Inactive)
REMARK    1  A    between atoms: O_2  and  C_3
REMARK    2  A    between atoms: C_3  and  C_5
REMARK    3  A    between atoms: C_12  and  C_14
REMARK    4  A    between atoms: N_17  and  C_18
REMARK    5  A    between atoms: C_18  and  C_19
REMARK    6  A    between atoms: C_22  and  C_25
REMARK                            x       y       z     vdW  Elec       q    Type
REMARK                         _______ _______ _______ _____ _____    ______ ____
ROOT
ATOM     14  C   UNL     1      -1.518   1.112  25.091  0.00  0.00    +0.094 C 
ATOM     15  C   UNL     1      -1.039   1.562  25.589  0.00  0.00    +0.028 C 
ATOM     16  C   UNL     1      -1.242   2.356  25.490  0.00  0.00    +0.073 C 
ATOM     17  N   UNL     1      -1.847   2.396  24.931  0.00  0.00    -0.268 NA
ATOM     29  C   UNL     1      -2.018   1.627  24.683  0.00  0.00    +0.082 C 
ENDROOT
BRANCH  14  12
ATOM      5  C   UNL     1      -2.283  -1.697  24.775  0.00  0.00    +0.112 A 
ATOM      6  C   UNL     1      -1.856  -2.401  24.733  0.00  0.00    +0.010 A 
ATOM      7  C   UNL     1      -1.033  -2.388  24.783  0.00  0.00    +0.002 A 
ATOM      8  C   UNL     1      -0.637  -1.671  24.875  0.00  0.00    +0.022 A 
ATOM      9  C   UNL     1      -1.063  -0.966  24.918  0.00  0.00    +0.119 A 
ATOM     10  C   UNL     1      -1.886  -0.979  24.868  0.00  0.00    +0.171 A 
ATOM     11  O   UNL     1      -2.157  -0.202  24.926  0.00  0.00    -0.438 OA
ATOM     12  C   UNL     1      -1.501   0.291  25.013  0.00  0.00    +0.207 A 
ATOM     13  N   UNL     1      -0.825  -0.182  25.008  0.00  0.00    -0.212 NA
BRANCH   5   3
ATOM      3  C   UNL     1      -3.106  -1.709  24.725  0.00  0.00    +0.344 C 
ATOM      4  O   UNL     1      -3.561  -1.740  25.413  0.00  0.00    -0.245 OA
BRANCH   3   2
ATOM      1  C   UNL     1      -4.279  -1.864  23.923  0.00  0.00    +0.256 C 
ATOM      2  O   UNL     1      -3.475  -1.690  23.987  0.00  0.00    -0.441 OA
ENDBRANCH   3   2
ENDBRANCH   5   3
ENDBRANCH  14  12
BRANCH  17  18
ATOM     18  C   UNL     1      -2.217   3.084  24.665  0.00  0.00    +0.099 C 
BRANCH  18  19
ATOM     19  C   UNL     1      -3.000   3.238  24.872  0.00  0.00    -0.006 A 
ATOM     20  C   UNL     1      -3.173   3.602  25.591  0.00  0.00    -0.003 A 
ATOM     21  C   UNL     1      -3.957   3.756  25.799  0.00  0.00    +0.004 A 
ATOM     22  C   UNL     1      -4.567   3.546  25.285  0.00  0.00    +0.071 A 
ATOM     23  C   UNL     1      -4.395   3.182  24.565  0.00  0.00    +0.004 A 
ATOM     24  C   UNL     1      -3.611   3.028  24.358  0.00  0.00    -0.003 A 
BRANCH  22  25
ATOM     25  C   UNL     1      -5.351   3.700  25.492  0.00  0.00    +0.419 C 
ATOM     26  F   UNL     1      -6.134   3.854  25.700  0.00  0.00    -0.166 F 
ATOM     27  F   UNL     1      -5.469   2.899  25.644  0.00  0.00    -0.166 F 
ATOM     28  F   UNL     1      -5.233   4.503  25.341  0.00  0.00    -0.166 F 
ENDBRANCH  22  25
ENDBRANCH  18  19
ENDBRANCH  17  18
TORSDOF 6
ENDMDL
