MODEL 1
REMARK VINA RESULT:     -13.1      0.000      0.000
REMARK  Name = 
REMARK  3 active torsions:
REMARK  status: ('A' for Active; 'I' for Inactive)
REMARK    1  A    between atoms: C_7  and  C_9
REMARK    2  A    between atoms: N_12  and  C_13
REMARK    3  A    between atoms: C_13  and  C_14
REMARK                            x       y       z     vdW  Elec       q    Type
REMARK                         _______ _______ _______ _____ _____    ______ ____
ROOT
ATOM      9  C   UNL     1      -4.498   1.055  24.827  0.00  0.00    +0.076 C 
ATOM     10  C   UNL     1      -5.194   1.361  25.145  0.00  0.00    +0.026 C 
ATOM     11  C   UNL     1      -5.180   2.181  25.051  0.00  0.00    +0.073 C 
ATOM     12  N   UNL     1      -4.474   2.381  24.674  0.00  0.00    -0.269 NA
ATOM     21  C   UNL     1      -4.053   1.685  24.536  0.00  0.00    +0.080 C 
ENDROOT
BRANCH   9   7
ATOM      1  C   UNL     1      -3.740  -3.106  23.960  0.00  0.00    +0.031 C 
ATOM      2  C   UNL     1      -3.756  -2.381  24.354  0.00  0.00    -0.020 A 
ATOM      3  C   UNL     1      -4.110  -1.727  24.000  0.00  0.00    +0.016 A 
ATOM      4  C   UNL     1      -4.126  -1.002  24.394  0.00  0.00    +0.100 A 
ATOM      5  C   UNL     1      -3.786  -0.932  25.142  0.00  0.00    +0.100 A 
ATOM      6  N   UNL     1      -3.884  -0.154  25.395  0.00  0.00    -0.229 NA
ATOM      7  C   UNL     1      -4.284   0.258  24.804  0.00  0.00    +0.140 A 
ATOM      8  N   UNL     1      -4.433  -0.266  24.185  0.00  0.00    -0.229 NA
ATOM     22  C   UNL     1      -3.431  -1.588  25.497  0.00  0.00    +0.020 A 
ATOM     23  C   UNL     1      -3.416  -2.312  25.103  0.00  0.00    -0.003 A 
ENDBRANCH   9   7
BRANCH  12  13
ATOM     13  C   UNL     1      -4.232   3.143  24.471  0.00  0.00    +0.099 C 
BRANCH  13  14
ATOM     14  C   UNL     1      -3.597   3.493  24.865  0.00  0.00    -0.006 A 
ATOM     15  C   UNL     1      -3.712   3.840  25.606  0.00  0.00    -0.001 A 
ATOM     16  C   UNL     1      -3.078   4.190  25.999  0.00  0.00    +0.029 A 
ATOM     17  C   UNL     1      -2.329   4.194  25.654  0.00  0.00    +0.140 A 
ATOM     18  F   UNL     1      -1.695   4.545  26.048  0.00  0.00    -0.204 F 
ATOM     19  C   UNL     1      -2.214   3.847  24.914  0.00  0.00    +0.029 A 
ATOM     20  C   UNL     1      -2.848   3.497  24.519  0.00  0.00    -0.001 A 
ENDBRANCH  13  14
ENDBRANCH  12  13
TORSDOF 3
ENDMDL
MODEL 2
REMARK VINA RESULT:     -12.7      1.935      5.175
REMARK  Name = 
REMARK  3 active torsions:
REMARK  status: ('A' for Active; 'I' for Inactive)
REMARK    1  A    between atoms: C_7  and  C_9
REMARK    2  A    between atoms: N_12  and  C_13
REMARK    3  A    between atoms: C_13  and  C_14
REMARK                            x       y       z     vdW  Elec       q    Type
REMARK                         _______ _______ _______ _____ _____    ______ ____
ROOT
ATOM      9  C   UNL     1      -3.200   1.621  24.331  0.00  0.00    +0.076 C 
ATOM     10  C   UNL     1      -3.192   1.279  23.580  0.00  0.00    +0.026 C 
ATOM     11  C   UNL     1      -3.634   0.584  23.610  0.00  0.00    +0.073 C 
ATOM     12  N   UNL     1      -3.916   0.495  24.381  0.00  0.00    -0.269 NA
ATOM     21  C   UNL     1      -3.648   1.136  24.826  0.00  0.00    +0.080 C 
ENDROOT
BRANCH   9   7
ATOM      1  C   UNL     1      -0.611   5.004  25.025  0.00  0.00    +0.031 C 
ATOM      2  C   UNL     1      -1.269   4.509  25.048  0.00  0.00    -0.020 A 
ATOM      3  C   UNL     1      -1.258   3.788  24.649  0.00  0.00    +0.016 A 
ATOM      4  C   UNL     1      -1.916   3.291  24.671  0.00  0.00    +0.100 A 
ATOM      5  C   UNL     1      -2.588   3.517  25.095  0.00  0.00    +0.100 A 
ATOM      6  N   UNL     1      -3.150   2.919  25.019  0.00  0.00    -0.229 NA
ATOM      7  C   UNL     1      -2.827   2.324  24.549  0.00  0.00    +0.140 A 
ATOM      8  N   UNL     1      -2.065   2.554  24.334  0.00  0.00    -0.229 NA
ATOM     22  C   UNL     1      -2.600   4.239  25.495  0.00  0.00    +0.020 A 
ATOM     23  C   UNL     1      -1.941   4.734  25.472  0.00  0.00    -0.003 A 
ENDBRANCH   9   7
BRANCH  12  13
ATOM     13  C   UNL     1      -4.384  -0.125  24.657  0.00  0.00    +0.099 C 
BRANCH  13  14
ATOM     14  C   UNL     1      -4.064  -0.882  24.735  0.00  0.00    -0.006 A 
ATOM     15  C   UNL     1      -3.653  -1.088  25.420  0.00  0.00    -0.001 A 
ATOM     16  C   UNL     1      -3.333  -1.844  25.497  0.00  0.00    +0.029 A 
ATOM     17  C   UNL     1      -3.423  -2.395  24.889  0.00  0.00    +0.140 A 
ATOM     18  F   UNL     1      -3.103  -3.151  24.967  0.00  0.00    -0.204 F 
ATOM     19  C   UNL     1      -3.834  -2.189  24.204  0.00  0.00    +0.029 A 
ATOM     20  C   UNL     1      -4.155  -1.432  24.126  0.00  0.00    -0.001 A 
ENDBRANCH  13  14
ENDBRANCH  12  13
TORSDOF 3
ENDMDL
MODEL 3
REMARK VINA RESULT:     -12.6      1.795      2.379
REMARK  Name = 
REMARK  3 active torsions:
REMARK  status: ('A' for Active; 'I' for Inactive)
REMARK    1  A    between atoms: C_7  and  C_9
REMARK    2  A    between atoms: N_12  and  C_13
REMARK    3  A    between atoms: C_13  and  C_14
REMARK                            x       y       z     vdW  Elec       q    Type
REMARK                         _______ _______ _______ _____ _____    ______ ____
ROOT
ATOM      9  C   UNL     1      -1.607   0.853  24.770  0.00  0.00    +0.076 C 
ATOM     10  C   UNL     1      -0.938   1.017  24.317  0.00  0.00    +0.026 C 
ATOM     11  C   UNL     1      -0.560   1.673  24.645  0.00  0.00    +0.073 C 
ATOM     12  N   UNL     1      -0.997   1.914  25.302  0.00  0.00    -0.269 NA
ATOM     21  C   UNL     1      -1.644   1.408  25.379  0.00  0.00    +0.080 C 
ENDROOT
BRANCH   9   7
ATOM      1  C   UNL     1      -3.815  -2.833  24.353  0.00  0.00    +0.031 C 
ATOM      2  C   UNL     1      -3.627  -2.030  24.335  0.00  0.00    -0.020 A 
ATOM      3  C   UNL     1      -2.883  -1.775  24.583  0.00  0.00    +0.016 A 
ATOM      4  C   UNL     1      -2.695  -0.972  24.565  0.00  0.00    +0.100 A 
ATOM      5  C   UNL     1      -3.251  -0.424  24.299  0.00  0.00    +0.100 A 
ATOM      6  N   UNL     1      -2.911   0.326  24.343  0.00  0.00    -0.229 NA
ATOM      7  C   UNL     1      -2.145   0.242  24.637  0.00  0.00    +0.140 A 
ATOM      8  N   UNL     1      -2.012  -0.560  24.774  0.00  0.00    -0.229 NA
ATOM     22  C   UNL     1      -3.996  -0.679  24.050  0.00  0.00    +0.020 A 
ATOM     23  C   UNL     1      -4.183  -1.482  24.068  0.00  0.00    -0.003 A 
ENDBRANCH   9   7
BRANCH  12  13
ATOM     13  C   UNL     1      -0.818   2.551  25.796  0.00  0.00    +0.099 C 
BRANCH  13  14
ATOM     14  C   UNL     1      -1.061   3.313  25.592  0.00  0.00    -0.006 A 
ATOM     15  C   UNL     1      -1.800   3.589  25.833  0.00  0.00    -0.001 A 
ATOM     16  C   UNL     1      -2.041   4.351  25.628  0.00  0.00    +0.029 A 
ATOM     17  C   UNL     1      -1.545   4.836  25.183  0.00  0.00    +0.140 A 
ATOM     18  F   UNL     1      -1.787   5.598  24.979  0.00  0.00    -0.204 F 
ATOM     19  C   UNL     1      -0.805   4.560  24.942  0.00  0.00    +0.029 A 
ATOM     20  C   UNL     1      -0.563   3.798  25.146  0.00  0.00    -0.001 A 
ENDBRANCH  13  14
ENDBRANCH  12  13
TORSDOF 3
ENDMDL
