MODEL 1
REMARK VINA RESULT:     -10.7      0.000      0.000
REMARK  Name = 
REMARK  8 active torsions:
REMARK  status: ('A' for Active; 'I' for Inactive)
REMARK    1  A    between atoms: O_2  and  C_3
REMARK    2  A    between atoms: C_3  and  C_4
REMARK    3  A    between atoms: C_4  and  O_5
REMARK    4  A    between atoms: O_5  and  C_6
REMARK    5  A    between atoms: C_8  and  C_12
REMARK    6  A    between atoms: C_15  and  C_17
REMARK    7  A    between atoms: N_21  and  C_22
REMARK    8  A    between atoms: C_22  and  C_23
REMARK                            x       y       z     vdW  Elec       q    Type
REMARK                         _______ _______ _______ _____ _____    ______ ____
ROOT
ATOM     12  C   UNL     1      -3.113   3.329  24.709  0.00  0.00    +0.204 A 
ATOM     13  N   UNL     1      -3.569   3.491  24.041  0.00  0.00    -0.056 NA
ATOM     14  O   UNL     1      -4.237   3.007  24.064  0.00  0.00    -0.336 OA
ATOM     15  C   UNL     1      -4.194   2.546  24.747  0.00  0.00    +0.251 A 
ATOM     16  N   UNL     1      -3.499   2.745  25.146  0.00  0.00    -0.190 NA
ENDROOT
BRANCH  12   8
ATOM      6  C   UNL     1      -0.993   3.593  25.156  0.00  0.00    +0.225 A 
ATOM      7  C   UNL     1      -1.709   3.234  24.959  0.00  0.00    +0.061 A 
ATOM      8  C   UNL     1      -2.397   3.688  24.907  0.00  0.00    +0.045 A 
ATOM      9  C   UNL     1      -2.368   4.499  25.051  0.00  0.00    +0.024 A 
ATOM     10  C   UNL     1      -1.652   4.858  25.248  0.00  0.00    +0.102 A 
ATOM     11  N   UNL     1      -0.964   4.406  25.301  0.00  0.00    -0.210 NA
BRANCH   6   5
ATOM      5  O   UNL     1      -0.305   3.141  25.208  0.00  0.00    -0.457 OA
BRANCH   5   4
ATOM      4  C   UNL     1      -0.071   2.671  24.573  0.00  0.00    +0.239 C 
BRANCH   4   3
ATOM      3  C   UNL     1       0.443   2.037  24.696  0.00  0.00    +0.189 C 
BRANCH   3   2
ATOM      1  C   UNL     1       0.914   1.066  23.760  0.00  0.00    +0.174 C 
ATOM      2  O   UNL     1       0.972   1.813  24.103  0.00  0.00    -0.347 OA
ENDBRANCH   3   2
ENDBRANCH   4   3
ENDBRANCH   5   4
ENDBRANCH   6   5
ENDBRANCH  12   8
BRANCH  15  17
ATOM     17  C   UNL     1      -4.748   1.985  24.989  0.00  0.00    +0.138 C 
ATOM     18  C   UNL     1      -5.468   2.143  25.360  0.00  0.00    +0.027 C 
ATOM     19  C   UNL     1      -5.844   1.423  25.503  0.00  0.00    +0.019 C 
ATOM     20  C   UNL     1      -5.358   0.820  25.220  0.00  0.00    +0.073 C 
ATOM     21  N   UNL     1      -4.680   1.168  24.902  0.00  0.00    -0.263 NA
BRANCH  21  22
ATOM     22  C   UNL     1      -4.046   0.768  24.559  0.00  0.00    +0.099 C 
BRANCH  22  23
ATOM     23  C   UNL     1      -3.997  -0.054  24.614  0.00  0.00    -0.006 A 
ATOM     24  C   UNL     1      -3.670  -0.403  25.287  0.00  0.00    -0.003 A 
ATOM     25  C   UNL     1      -3.622  -1.224  25.343  0.00  0.00    -0.000 A 
ATOM     26  C   UNL     1      -3.899  -1.697  24.727  0.00  0.00    -0.000 A 
ATOM     27  C   UNL     1      -4.226  -1.349  24.054  0.00  0.00    -0.000 A 
ATOM     28  C   UNL     1      -4.275  -0.527  23.998  0.00  0.00    -0.003 A 
ENDBRANCH  22  23
ENDBRANCH  21  22
ENDBRANCH  15  17
TORSDOF 8
ENDMDL
MODEL 2
REMARK VINA RESULT:     -10.6      1.704      3.621
REMARK  Name = 
REMARK  8 active torsions:
REMARK  status: ('A' for Active; 'I' for Inactive)
REMARK    1  A    between atoms: O_2  and  C_3
REMARK    2  A    between atoms: C_3  and  C_4
REMARK    3  A    between atoms: C_4  and  O_5
REMARK    4  A    between atoms: O_5  and  C_6
REMARK    5  A    between atoms: C_8  and  C_12
REMARK    6  A    between atoms: C_15  and  C_17
REMARK    7  A    between atoms: N_21  and  C_22
REMARK    8  A    between atoms: C_22  and  C_23
REMARK                            x       y       z     vdW  Elec       q    Type
REMARK                         _______ _______ _______ _____ _____    ______ ____
ROOT
ATOM     12  C   UNL     1      -1.047   2.141  25.459  0.00  0.00    +0.204 A 
ATOM     13  N   UNL     1      -0.659   1.799  26.102  0.00  0.00    -0.056 NA
ATOM     14  O   UNL     1      -0.511   1.007  25.920  0.00  0.00    -0.336 OA
ATOM     15  C   UNL     1      -0.807   0.861  25.164  0.00  0.00    +0.251 A 
ATOM     16  N   UNL     1      -1.139   1.561  24.879  0.00  0.00    -0.190 NA
ENDROOT
BRANCH  12   8
ATOM      6  C   UNL     1      -2.317   3.911  25.584  0.00  0.00    +0.225 A 
ATOM      7  C   UNL     1      -2.065   3.127  25.637  0.00  0.00    +0.061 A 
ATOM      8  C   UNL     1      -1.299   2.924  25.406  0.00  0.00    +0.045 A 
ATOM      9  C   UNL     1      -0.786   3.504  25.122  0.00  0.00    +0.024 A 
ATOM     10  C   UNL     1      -1.038   4.287  25.068  0.00  0.00    +0.102 A 
ATOM     11  N   UNL     1      -1.803   4.492  25.299  0.00  0.00    -0.210 NA
BRANCH   6   5
ATOM      5  O   UNL     1      -3.082   4.116  25.814  0.00  0.00    -0.457 OA
BRANCH   5   4
ATOM      4  C   UNL     1      -3.732   3.801  25.415  0.00  0.00    +0.239 C 
BRANCH   4   3
ATOM      3  C   UNL     1      -4.484   3.847  25.752  0.00  0.00    +0.189 C 
BRANCH   3   2
ATOM      1  C   UNL     1      -5.732   3.161  25.639  0.00  0.00    +0.174 C 
ATOM      2  O   UNL     1      -5.147   3.638  25.308  0.00  0.00    -0.347 OA
ENDBRANCH   3   2
ENDBRANCH   4   3
ENDBRANCH   5   4
ENDBRANCH   6   5
ENDBRANCH  12   8
BRANCH  15  17
ATOM     17  C   UNL     1      -0.778   0.141  24.762  0.00  0.00    +0.138 C 
ATOM     18  C   UNL     1      -0.152  -0.130  24.297  0.00  0.00    +0.027 C 
ATOM     19  C   UNL     1      -0.356  -0.873  24.003  0.00  0.00    +0.019 C 
ATOM     20  C   UNL     1      -1.107  -1.062  24.286  0.00  0.00    +0.073 C 
ATOM     21  N   UNL     1      -1.368  -0.435  24.755  0.00  0.00    -0.263 NA
BRANCH  21  22
ATOM     22  C   UNL     1      -2.092  -0.393  25.148  0.00  0.00    +0.099 C 
BRANCH  22  23
ATOM     23  C   UNL     1      -2.711  -0.890  24.927  0.00  0.00    -0.006 A 
ATOM     24  C   UNL     1      -3.264  -0.639  24.368  0.00  0.00    -0.003 A 
ATOM     25  C   UNL     1      -3.883  -1.136  24.147  0.00  0.00    -0.000 A 
ATOM     26  C   UNL     1      -3.951  -1.885  24.485  0.00  0.00    -0.000 A 
ATOM     27  C   UNL     1      -3.399  -2.138  25.044  0.00  0.00    -0.000 A 
ATOM     28  C   UNL     1      -2.779  -1.639  25.265  0.00  0.00    -0.003 A 
ENDBRANCH  22  23
ENDBRANCH  21  22
ENDBRANCH  15  17
TORSDOF 8
ENDMDL
MODEL 3
REMARK VINA RESULT:     -10.4      2.084      4.460
REMARK  Name = 
REMARK  8 active torsions:
REMARK  status: ('A' for Active; 'I' for Inactive)
REMARK    1  A    between atoms: O_2  and  C_3
REMARK    2  A    between atoms: C_3  and  C_4
REMARK    3  A    between atoms: C_4  and  O_5
REMARK    4  A    between atoms: O_5  and  C_6
REMARK    5  A    between atoms: C_8  and  C_12
REMARK    6  A    between atoms: C_15  and  C_17
REMARK    7  A    between atoms: N_21  and  C_22
REMARK    8  A    between atoms: C_22  and  C_23
REMARK                            x       y       z     vdW  Elec       q    Type
REMARK                         _______ _______ _______ _____ _____    ______ ____
ROOT
ATOM     12  C   UNL     1      -0.462   1.557  25.019  0.00  0.00    +0.204 A 
ATOM     13  N   UNL     1      -0.217   1.740  25.785  0.00  0.00    -0.056 NA
ATOM     14  O   UNL     1      -0.481   2.501  25.963  0.00  0.00    -0.336 OA
ATOM     15  C   UNL     1      -0.890   2.789  25.306  0.00  0.00    +0.251 A 
ATOM     16  N   UNL     1      -0.878   2.205  24.723  0.00  0.00    -0.190 NA
ENDROOT
BRANCH  12   8
ATOM      6  C   UNL     1      -0.522  -0.557  24.480  0.00  0.00    +0.225 A 
ATOM      7  C   UNL     1      -0.667   0.150  24.880  0.00  0.00    +0.061 A 
ATOM      8  C   UNL     1      -0.317   0.850  24.619  0.00  0.00    +0.045 A 
ATOM      9  C   UNL     1       0.177   0.844  23.959  0.00  0.00    +0.024 A 
ATOM     10  C   UNL     1       0.322   0.137  23.560  0.00  0.00    +0.102 A 
ATOM     11  N   UNL     1      -0.027  -0.564  23.820  0.00  0.00    -0.210 NA
BRANCH   6   5
ATOM      5  O   UNL     1      -0.871  -1.258  24.740  0.00  0.00    -0.457 OA
BRANCH   5   4
ATOM      4  C   UNL     1      -1.598  -1.497  24.432  0.00  0.00    +0.239 C 
BRANCH   4   3
ATOM      3  C   UNL     1      -1.974  -2.166  24.734  0.00  0.00    +0.189 C 
BRANCH   3   2
ATOM      1  C   UNL     1      -3.320  -2.644  24.695  0.00  0.00    +0.174 C 
ATOM      2  O   UNL     1      -2.598  -2.510  24.319  0.00  0.00    -0.347 OA
ENDBRANCH   3   2
ENDBRANCH   4   3
ENDBRANCH   5   4
ENDBRANCH   6   5
ENDBRANCH  12   8
BRANCH  15  17
ATOM     17  C   UNL     1      -1.248   3.529  25.244  0.00  0.00    +0.138 C 
ATOM     18  C   UNL     1      -0.865   4.239  25.069  0.00  0.00    +0.027 C 
ATOM     19  C   UNL     1      -1.432   4.839  25.062  0.00  0.00    +0.019 C 
ATOM     20  C   UNL     1      -2.165   4.500  25.232  0.00  0.00    +0.073 C 
ATOM     21  N   UNL     1      -2.051   3.690  25.345  0.00  0.00    -0.263 NA
BRANCH  21  22
ATOM     22  C   UNL     1      -2.637   3.139  25.526  0.00  0.00    +0.099 C 
BRANCH  22  23
ATOM     23  C   UNL     1      -3.429   3.315  25.378  0.00  0.00    -0.006 A 
ATOM     24  C   UNL     1      -3.758   3.145  24.641  0.00  0.00    -0.003 A 
ATOM     25  C   UNL     1      -4.550   3.321  24.492  0.00  0.00    -0.000 A 
ATOM     26  C   UNL     1      -5.013   3.666  25.081  0.00  0.00    -0.000 A 
ATOM     27  C   UNL     1      -4.685   3.835  25.819  0.00  0.00    -0.000 A 
ATOM     28  C   UNL     1      -3.892   3.659  25.967  0.00  0.00    -0.003 A 
ENDBRANCH  22  23
ENDBRANCH  21  22
ENDBRANCH  15  17
TORSDOF 8
ENDMDL
MODEL 4
REMARK VINA RESULT:     -10.1      1.695      4.324
REMARK  Name = 
REMARK  8 active torsions:
REMARK  status: ('A' for Active; 'I' for Inactive)
REMARK    1  A    between atoms: O_2  and  C_3
REMARK    2  A    between atoms: C_3  and  C_4
REMARK    3  A    between atoms: C_4  and  O_5
REMARK    4  A    between atoms: O_5  and  C_6
REMARK    5  A    between atoms: C_8  and  C_12
REMARK    6  A    between atoms: C_15  and  C_17
REMARK    7  A    between atoms: N_21  and  C_22
REMARK    8  A    between atoms: C_22  and  C_23
REMARK                            x       y       z     vdW  Elec       q    Type
REMARK                         _______ _______ _______ _____ _____    ______ ____
ROOT
ATOM     12  C   UNL     1      -4.046   0.305  24.745  0.00  0.00    +0.204 A 
ATOM     13  N   UNL     1      -4.539   0.571  25.351  0.00  0.00    -0.056 NA
ATOM     14  O   UNL     1      -4.626   1.388  25.269  0.00  0.00    -0.336 OA
ATOM     15  C   UNL     1      -4.187   1.626  24.613  0.00  0.00    +0.251 A 
ATOM     16  N   UNL     1      -3.829   0.957  24.289  0.00  0.00    -0.190 NA
ENDROOT
BRANCH  12   8
ATOM      6  C   UNL     1      -2.831  -1.508  24.733  0.00  0.00    +0.225 A 
ATOM      7  C   UNL     1      -3.065  -0.727  24.860  0.00  0.00    +0.061 A 
ATOM      8  C   UNL     1      -3.812  -0.476  24.618  0.00  0.00    +0.045 A 
ATOM      9  C   UNL     1      -4.326  -1.005  24.249  0.00  0.00    +0.024 A 
ATOM     10  C   UNL     1      -4.092  -1.786  24.122  0.00  0.00    +0.102 A 
ATOM     11  N   UNL     1      -3.345  -2.038  24.364  0.00  0.00    -0.210 NA
BRANCH   6   5
ATOM      5  O   UNL     1      -2.083  -1.759  24.975  0.00  0.00    -0.457 OA
BRANCH   5   4
ATOM      4  C   UNL     1      -1.418  -1.572  24.524  0.00  0.00    +0.239 C 
BRANCH   4   3
ATOM      3  C   UNL     1      -0.688  -1.462  24.893  0.00  0.00    +0.189 C 
BRANCH   3   2
ATOM      1  C   UNL     1       0.222  -0.656  24.141  0.00  0.00    +0.174 C 
ATOM      2  O   UNL     1      -0.004  -1.392  24.438  0.00  0.00    -0.347 OA
ENDBRANCH   3   2
ENDBRANCH   4   3
ENDBRANCH   5   4
ENDBRANCH   6   5
ENDBRANCH  12   8
BRANCH  15  17
ATOM     17  C   UNL     1      -4.118   2.397  24.329  0.00  0.00    +0.138 C 
ATOM     18  C   UNL     1      -4.614   2.757  23.775  0.00  0.00    +0.027 C 
ATOM     19  C   UNL     1      -4.343   3.527  23.653  0.00  0.00    +0.019 C 
ATOM     20  C   UNL     1      -3.682   3.644  24.132  0.00  0.00    +0.073 C 
ATOM     21  N   UNL     1      -3.542   2.946  24.549  0.00  0.00    -0.263 NA
BRANCH  21  22
ATOM     22  C   UNL     1      -2.934   2.819  25.092  0.00  0.00    +0.099 C 
BRANCH  22  23
ATOM     23  C   UNL     1      -2.300   3.344  25.130  0.00  0.00    -0.006 A 
ATOM     24  C   UNL     1      -1.594   3.168  24.739  0.00  0.00    -0.003 A 
ATOM     25  C   UNL     1      -0.960   3.694  24.778  0.00  0.00    -0.000 A 
ATOM     26  C   UNL     1      -1.029   4.394  25.208  0.00  0.00    -0.000 A 
ATOM     27  C   UNL     1      -1.734   4.570  25.599  0.00  0.00    -0.000 A 
ATOM     28  C   UNL     1      -2.369   4.044  25.560  0.00  0.00    -0.003 A 
ENDBRANCH  22  23
ENDBRANCH  21  22
ENDBRANCH  15  17
TORSDOF 8
ENDMDL
MODEL 5
REMARK VINA RESULT:     -10.1      1.837      3.098
REMARK  Name = 
REMARK  8 active torsions:
REMARK  status: ('A' for Active; 'I' for Inactive)
REMARK    1  A    between atoms: O_2  and  C_3
REMARK    2  A    between atoms: C_3  and  C_4
REMARK    3  A    between atoms: C_4  and  O_5
REMARK    4  A    between atoms: O_5  and  C_6
REMARK    5  A    between atoms: C_8  and  C_12
REMARK    6  A    between atoms: C_15  and  C_17
REMARK    7  A    between atoms: N_21  and  C_22
REMARK    8  A    between atoms: C_22  and  C_23
REMARK                            x       y       z     vdW  Elec       q    Type
REMARK                         _______ _______ _______ _____ _____    ______ ____
ROOT
ATOM     12  C   UNL     1      -4.100   1.638  24.450  0.00  0.00    +0.204 A 
ATOM     13  N   UNL     1      -3.933   1.575  23.643  0.00  0.00    -0.056 NA
ATOM     14  O   UNL     1      -3.780   0.781  23.476  0.00  0.00    -0.336 OA
ATOM     15  C   UNL     1      -3.851   0.354  24.178  0.00  0.00    +0.251 A 
ATOM     16  N   UNL     1      -4.048   0.883  24.780  0.00  0.00    -0.190 NA
ENDROOT
BRANCH  12   8
ATOM      6  C   UNL     1      -3.864   3.512  25.542  0.00  0.00    +0.225 A 
ATOM      7  C   UNL     1      -3.680   2.817  25.138  0.00  0.00    +0.061 A 
ATOM      8  C   UNL     1      -4.284   2.333  24.854  0.00  0.00    +0.045 A 
ATOM      9  C   UNL     1      -5.072   2.542  24.973  0.00  0.00    +0.024 A 
ATOM     10  C   UNL     1      -5.257   3.238  25.378  0.00  0.00    +0.102 A 
ATOM     11  N   UNL     1      -4.654   3.723  25.662  0.00  0.00    -0.210 NA
BRANCH   6   5
ATOM      5  O   UNL     1      -3.261   3.997  25.827  0.00  0.00    -0.457 OA
BRANCH   5   4
ATOM      4  C   UNL     1      -2.681   4.279  25.313  0.00  0.00    +0.239 C 
BRANCH   4   3
ATOM      3  C   UNL     1      -1.988   4.610  25.615  0.00  0.00    +0.189 C 
BRANCH   3   2
ATOM      1  C   UNL     1      -0.825   5.048  24.910  0.00  0.00    +0.174 C 
ATOM      2  O   UNL     1      -1.588   5.191  25.187  0.00  0.00    -0.347 OA
ENDBRANCH   3   2
ENDBRANCH   4   3
ENDBRANCH   5   4
ENDBRANCH   6   5
ENDBRANCH  12   8
BRANCH  15  17
ATOM     17  C   UNL     1      -3.743  -0.459  24.264  0.00  0.00    +0.138 C 
ATOM     18  C   UNL     1      -4.333  -1.034  24.217  0.00  0.00    +0.027 C 
ATOM     19  C   UNL     1      -3.981  -1.771  24.336  0.00  0.00    +0.019 C 
ATOM     20  C   UNL     1      -3.174  -1.651  24.456  0.00  0.00    +0.073 C 
ATOM     21  N   UNL     1      -3.027  -0.841  24.412  0.00  0.00    -0.263 NA
BRANCH  21  22
ATOM     22  C   UNL     1      -2.292  -0.476  24.500  0.00  0.00    +0.099 C 
BRANCH  22  23
ATOM     23  C   UNL     1      -1.658  -0.897  24.817  0.00  0.00    -0.006 A 
ATOM     24  C   UNL     1      -1.497  -0.853  25.626  0.00  0.00    -0.003 A 
ATOM     25  C   UNL     1      -0.863  -1.274  25.943  0.00  0.00    -0.000 A 
ATOM     26  C   UNL     1      -0.390  -1.739  25.454  0.00  0.00    -0.000 A 
ATOM     27  C   UNL     1      -0.550  -1.783  24.646  0.00  0.00    -0.000 A 
ATOM     28  C   UNL     1      -1.185  -1.362  24.328  0.00  0.00    -0.003 A 
ENDBRANCH  22  23
ENDBRANCH  21  22
ENDBRANCH  15  17
TORSDOF 8
ENDMDL
