MODEL 1
REMARK VINA RESULT:     -10.1      0.000      0.000
REMARK  Name = 
REMARK  7 active torsions:
REMARK  status: ('A' for Active; 'I' for Inactive)
REMARK    1  A    between atoms: O_2  and  C_3
REMARK    2  A    between atoms: C_3  and  C_4
REMARK    3  A    between atoms: C_4  and  O_5
REMARK    4  A    between atoms: O_5  and  C_6
REMARK    5  A    between atoms: C_8  and  C_12
REMARK    6  A    between atoms: C_15  and  C_17
REMARK    7  A    between atoms: N_21  and  C_22
REMARK                            x       y       z     vdW  Elec       q    Type
REMARK                         _______ _______ _______ _____ _____    ______ ____
ROOT
ATOM     12  C   UNL     1      -3.586   3.484  25.675  0.00  0.00    +0.221 A 
ATOM     13  N   UNL     1      -3.311   3.636  26.438  0.00  0.00    -0.054 NA
ATOM     14  O   UNL     1      -2.590   4.030  26.376  0.00  0.00    -0.336 OA
ATOM     15  C   UNL     1      -2.418   4.122  25.573  0.00  0.00    +0.251 A 
ATOM     16  N   UNL     1      -3.034   3.784  25.142  0.00  0.00    -0.188 NA
ENDROOT
BRANCH  12   8
ATOM      6  C   UNL     1      -4.972   1.971  24.929  0.00  0.00    +0.142 A 
ATOM      7  C   UNL     1      -4.268   2.356  25.123  0.00  0.00    +0.059 A 
ATOM      8  C   UNL     1      -4.289   3.099  25.481  0.00  0.00    +0.123 A 
ATOM      9  N   UNL     1      -5.015   3.457  25.645  0.00  0.00    -0.240 NA
ATOM     10  C   UNL     1      -5.718   3.072  25.450  0.00  0.00    +0.102 A 
ATOM     11  C   UNL     1      -5.696   2.329  25.092  0.00  0.00    +0.058 A 
BRANCH   6   5
ATOM      5  O   UNL     1      -4.949   1.228  24.571  0.00  0.00    -0.473 OA
BRANCH   5   4
ATOM      4  C   UNL     1      -4.534   0.611  24.929  0.00  0.00    +0.237 C 
BRANCH   4   3
ATOM      3  C   UNL     1      -4.424  -0.101  24.526  0.00  0.00    +0.189 C 
BRANCH   3   2
ATOM      1  C   UNL     1      -3.868  -1.416  24.499  0.00  0.00    +0.174 C 
ATOM      2  O   UNL     1      -4.128  -0.759  24.925  0.00  0.00    -0.347 OA
ENDBRANCH   3   2
ENDBRANCH   4   3
ENDBRANCH   5   4
ENDBRANCH   6   5
ENDBRANCH  12   8
BRANCH  15  17
ATOM     17  C   UNL     1      -1.748   4.487  25.260  0.00  0.00    +0.138 C 
ATOM     18  C   UNL     1      -1.660   5.293  25.110  0.00  0.00    +0.027 C 
ATOM     19  C   UNL     1      -0.905   5.413  24.799  0.00  0.00    +0.019 C 
ATOM     20  C   UNL     1      -0.527   4.681  24.758  0.00  0.00    +0.072 C 
ATOM     21  N   UNL     1      -1.047   4.108  25.042  0.00  0.00    -0.268 NA
BRANCH  21  22
ATOM     22  C   UNL     1      -0.895   3.300  25.100  0.00  0.00    +0.061 C 
ATOM     23  C   UNL     1      -1.008   2.812  24.443  0.00  0.00    +0.033 C 
ATOM     24  C   UNL     1      -0.857   2.003  24.500  0.00  0.00    +0.074 C 
ATOM     25  N   UNL     1      -0.593   1.682  25.214  0.00  0.00    -0.271 NA
ATOM     26  C   UNL     1      -0.441   0.873  25.270  0.00  0.00    +0.090 C 
ATOM     27  C   UNL     1      -0.480   2.169  25.869  0.00  0.00    +0.074 C 
ATOM     28  C   UNL     1      -0.632   2.979  25.812  0.00  0.00    +0.033 C 
ENDBRANCH  21  22
ENDBRANCH  15  17
TORSDOF 7
ENDMDL
MODEL 2
REMARK VINA RESULT:     -10.0      1.411      3.416
REMARK  Name = 
REMARK  7 active torsions:
REMARK  status: ('A' for Active; 'I' for Inactive)
REMARK    1  A    between atoms: O_2  and  C_3
REMARK    2  A    between atoms: C_3  and  C_4
REMARK    3  A    between atoms: C_4  and  O_5
REMARK    4  A    between atoms: O_5  and  C_6
REMARK    5  A    between atoms: C_8  and  C_12
REMARK    6  A    between atoms: C_15  and  C_17
REMARK    7  A    between atoms: N_21  and  C_22
REMARK                            x       y       z     vdW  Elec       q    Type
REMARK                         _______ _______ _______ _____ _____    ______ ____
ROOT
ATOM     12  C   UNL     1      -0.809   1.861  25.190  0.00  0.00    +0.221 A 
ATOM     13  N   UNL     1      -0.866   2.017  25.998  0.00  0.00    -0.054 NA
ATOM     14  O   UNL     1      -1.003   2.824  26.094  0.00  0.00    -0.336 OA
ATOM     15  C   UNL     1      -1.031   3.168  25.344  0.00  0.00    +0.251 A 
ATOM     16  N   UNL     1      -0.912   2.573  24.786  0.00  0.00    -0.188 NA
ENDROOT
BRANCH  12   8
ATOM      6  C   UNL     1      -0.950  -0.277  24.771  0.00  0.00    +0.142 A 
ATOM      7  C   UNL     1      -1.085   0.461  25.115  0.00  0.00    +0.059 A 
ATOM      8  C   UNL     1      -0.674   1.124  24.846  0.00  0.00    +0.123 A 
ATOM      9  N   UNL     1      -0.127   1.048  24.232  0.00  0.00    -0.240 NA
ATOM     10  C   UNL     1       0.008   0.310  23.888  0.00  0.00    +0.102 A 
ATOM     11  C   UNL     1      -0.404  -0.352  24.158  0.00  0.00    +0.058 A 
BRANCH   6   5
ATOM      5  O   UNL     1      -1.362  -0.939  25.041  0.00  0.00    -0.473 OA
BRANCH   5   4
ATOM      4  C   UNL     1      -1.887  -1.330  24.539  0.00  0.00    +0.237 C 
BRANCH   4   3
ATOM      3  C   UNL     1      -2.369  -1.931  24.834  0.00  0.00    +0.189 C 
BRANCH   3   2
ATOM      1  C   UNL     1      -3.551  -2.676  24.533  0.00  0.00    +0.174 C 
ATOM      2  O   UNL     1      -2.803  -2.404  24.315  0.00  0.00    -0.347 OA
ENDBRANCH   3   2
ENDBRANCH   4   3
ENDBRANCH   5   4
ENDBRANCH   6   5
ENDBRANCH  12   8
BRANCH  15  17
ATOM     17  C   UNL     1      -1.158   3.967  25.182  0.00  0.00    +0.138 C 
ATOM     18  C   UNL     1      -0.574   4.532  25.041  0.00  0.00    +0.027 C 
ATOM     19  C   UNL     1      -0.947   5.256  24.906  0.00  0.00    +0.019 C 
ATOM     20  C   UNL     1      -1.761   5.137  24.964  0.00  0.00    +0.072 C 
ATOM     21  N   UNL     1      -1.892   4.342  25.135  0.00  0.00    -0.268 NA
BRANCH  21  22
ATOM     22  C   UNL     1      -2.627   3.982  25.239  0.00  0.00    +0.061 C 
ATOM     23  C   UNL     1      -2.966   3.952  25.991  0.00  0.00    +0.033 C 
ATOM     24  C   UNL     1      -3.702   3.592  26.097  0.00  0.00    +0.074 C 
ATOM     25  N   UNL     1      -4.097   3.262  25.452  0.00  0.00    -0.271 NA
ATOM     26  C   UNL     1      -4.831   2.903  25.558  0.00  0.00    +0.090 C 
ATOM     27  C   UNL     1      -3.757   3.293  24.701  0.00  0.00    +0.074 C 
ATOM     28  C   UNL     1      -3.022   3.653  24.595  0.00  0.00    +0.033 C 
ENDBRANCH  21  22
ENDBRANCH  15  17
TORSDOF 7
ENDMDL
MODEL 3
REMARK VINA RESULT:     -10.0      1.606      4.269
REMARK  Name = 
REMARK  7 active torsions:
REMARK  status: ('A' for Active; 'I' for Inactive)
REMARK    1  A    between atoms: O_2  and  C_3
REMARK    2  A    between atoms: C_3  and  C_4
REMARK    3  A    between atoms: C_4  and  O_5
REMARK    4  A    between atoms: O_5  and  C_6
REMARK    5  A    between atoms: C_8  and  C_12
REMARK    6  A    between atoms: C_15  and  C_17
REMARK    7  A    between atoms: N_21  and  C_22
REMARK                            x       y       z     vdW  Elec       q    Type
REMARK                         _______ _______ _______ _____ _____    ______ ____
ROOT
ATOM     12  C   UNL     1      -4.236   0.829  24.630  0.00  0.00    +0.221 A 
ATOM     13  N   UNL     1      -4.111   0.674  23.830  0.00  0.00    -0.054 NA
ATOM     14  O   UNL     1      -3.769  -0.073  23.765  0.00  0.00    -0.336 OA
ATOM     15  C   UNL     1      -3.681  -0.380  24.526  0.00  0.00    +0.251 A 
ATOM     16  N   UNL     1      -3.970   0.177  25.060  0.00  0.00    -0.188 NA
ENDROOT
BRANCH  12   8
ATOM      6  C   UNL     1      -4.491   2.915  25.220  0.00  0.00    +0.142 A 
ATOM      7  C   UNL     1      -4.158   2.229  24.904  0.00  0.00    +0.059 A 
ATOM      8  C   UNL     1      -4.569   1.515  24.946  0.00  0.00    +0.123 A 
ATOM      9  N   UNL     1      -5.312   1.487  25.303  0.00  0.00    -0.240 NA
ATOM     10  C   UNL     1      -5.645   2.173  25.618  0.00  0.00    +0.102 A 
ATOM     11  C   UNL     1      -5.233   2.887  25.576  0.00  0.00    +0.058 A 
BRANCH   6   5
ATOM      5  O   UNL     1      -4.079   3.629  25.178  0.00  0.00    -0.473 OA
BRANCH   5   4
ATOM      4  C   UNL     1      -3.329   3.693  25.516  0.00  0.00    +0.237 C 
BRANCH   4   3
ATOM      3  C   UNL     1      -2.858   4.351  25.355  0.00  0.00    +0.189 C 
BRANCH   3   2
ATOM      1  C   UNL     1      -1.514   4.825  25.257  0.00  0.00    +0.174 C 
ATOM      2  O   UNL     1      -2.092   4.395  25.658  0.00  0.00    -0.347 OA
ENDBRANCH   3   2
ENDBRANCH   4   3
ENDBRANCH   5   4
ENDBRANCH   6   5
ENDBRANCH  12   8
BRANCH  15  17
ATOM     17  C   UNL     1      -3.361  -1.116  24.717  0.00  0.00    +0.138 C 
ATOM     18  C   UNL     1      -3.776  -1.826  24.777  0.00  0.00    +0.027 C 
ATOM     19  C   UNL     1      -3.239  -2.419  24.979  0.00  0.00    +0.019 C 
ATOM     20  C   UNL     1      -2.492  -2.076  25.043  0.00  0.00    +0.072 C 
ATOM     21  N   UNL     1      -2.566  -1.271  24.882  0.00  0.00    -0.268 NA
BRANCH  21  22
ATOM     22  C   UNL     1      -1.956  -0.716  24.884  0.00  0.00    +0.061 C 
ATOM     23  C   UNL     1      -1.744  -0.341  25.588  0.00  0.00    +0.033 C 
ATOM     24  C   UNL     1      -1.133   0.215  25.591  0.00  0.00    +0.074 C 
ATOM     25  N   UNL     1      -0.734   0.393  24.890  0.00  0.00    -0.271 NA
ATOM     26  C   UNL     1      -0.124   0.948  24.894  0.00  0.00    +0.090 C 
ATOM     27  C   UNL     1      -0.947   0.018  24.188  0.00  0.00    +0.074 C 
ATOM     28  C   UNL     1      -1.558  -0.537  24.185  0.00  0.00    +0.033 C 
ENDBRANCH  21  22
ENDBRANCH  15  17
TORSDOF 7
ENDMDL
MODEL 4
REMARK VINA RESULT:     -10.0      2.088      4.262
REMARK  Name = 
REMARK  7 active torsions:
REMARK  status: ('A' for Active; 'I' for Inactive)
REMARK    1  A    between atoms: O_2  and  C_3
REMARK    2  A    between atoms: C_3  and  C_4
REMARK    3  A    between atoms: C_4  and  O_5
REMARK    4  A    between atoms: O_5  and  C_6
REMARK    5  A    between atoms: C_8  and  C_12
REMARK    6  A    between atoms: C_15  and  C_17
REMARK    7  A    between atoms: N_21  and  C_22
REMARK                            x       y       z     vdW  Elec       q    Type
REMARK                         _______ _______ _______ _____ _____    ______ ____
ROOT
ATOM     12  C   UNL     1      -3.087   0.766  24.468  0.00  0.00    +0.221 A 
ATOM     13  N   UNL     1      -3.279   1.083  23.731  0.00  0.00    -0.054 NA
ATOM     14  O   UNL     1      -3.891   1.624  23.837  0.00  0.00    -0.336 OA
ATOM     15  C   UNL     1      -4.078   1.642  24.641  0.00  0.00    +0.251 A 
ATOM     16  N   UNL     1      -3.581   1.112  25.030  0.00  0.00    -0.188 NA
ENDROOT
BRANCH  12   8
ATOM      6  C   UNL     1      -1.129  -0.191  24.598  0.00  0.00    +0.142 A 
ATOM      7  C   UNL     1      -1.713   0.372  24.449  0.00  0.00    +0.059 A 
ATOM      8  C   UNL     1      -2.503   0.203  24.616  0.00  0.00    +0.123 A 
ATOM      9  N   UNL     1      -2.709  -0.532  24.933  0.00  0.00    -0.240 NA
ATOM     10  C   UNL     1      -2.125  -1.095  25.081  0.00  0.00    +0.102 A 
ATOM     11  C   UNL     1      -1.335  -0.924  24.914  0.00  0.00    +0.058 A 
BRANCH   6   5
ATOM      5  O   UNL     1      -0.339  -0.021  24.430  0.00  0.00    -0.473 OA
BRANCH   5   4
ATOM      4  C   UNL     1      -0.008  -0.265  23.715  0.00  0.00    +0.237 C 
BRANCH   4   3
ATOM      3  C   UNL     1       0.741   0.001  23.494  0.00  0.00    +0.189 C 
BRANCH   3   2
ATOM      1  C   UNL     1       1.810   0.034  22.548  0.00  0.00    +0.174 C 
ATOM      2  O   UNL     1       1.094  -0.283  22.805  0.00  0.00    -0.347 OA
ENDBRANCH   3   2
ENDBRANCH   4   3
ENDBRANCH   5   4
ENDBRANCH   6   5
ENDBRANCH  12   8
BRANCH  15  17
ATOM     17  C   UNL     1      -4.661   2.109  24.992  0.00  0.00    +0.138 C 
ATOM     18  C   UNL     1      -5.444   1.890  25.126  0.00  0.00    +0.027 C 
ATOM     19  C   UNL     1      -5.828   2.524  25.488  0.00  0.00    +0.019 C 
ATOM     20  C   UNL     1      -5.282   3.135  25.578  0.00  0.00    +0.072 C 
ATOM     21  N   UNL     1      -4.560   2.880  25.272  0.00  0.00    -0.268 NA
BRANCH  21  22
ATOM     22  C   UNL     1      -3.861   3.316  25.249  0.00  0.00    +0.061 C 
ATOM     23  C   UNL     1      -3.364   3.332  25.908  0.00  0.00    +0.033 C 
ATOM     24  C   UNL     1      -2.663   3.768  25.886  0.00  0.00    +0.074 C 
ATOM     25  N   UNL     1      -2.460   4.188  25.205  0.00  0.00    -0.271 NA
ATOM     26  C   UNL     1      -1.760   4.624  25.183  0.00  0.00    +0.090 C 
ATOM     27  C   UNL     1      -2.957   4.172  24.547  0.00  0.00    +0.074 C 
ATOM     28  C   UNL     1      -3.657   3.736  24.569  0.00  0.00    +0.033 C 
ENDBRANCH  21  22
ENDBRANCH  15  17
TORSDOF 7
ENDMDL
MODEL 5
REMARK VINA RESULT:      -9.9      1.914      5.550
REMARK  Name = 
REMARK  7 active torsions:
REMARK  status: ('A' for Active; 'I' for Inactive)
REMARK    1  A    between atoms: O_2  and  C_3
REMARK    2  A    between atoms: C_3  and  C_4
REMARK    3  A    between atoms: C_4  and  O_5
REMARK    4  A    between atoms: O_5  and  C_6
REMARK    5  A    between atoms: C_8  and  C_12
REMARK    6  A    between atoms: C_15  and  C_17
REMARK    7  A    between atoms: N_21  and  C_22
REMARK                            x       y       z     vdW  Elec       q    Type
REMARK                         _______ _______ _______ _____ _____    ______ ____
ROOT
ATOM     12  C   UNL     1      -1.151  -0.075  24.991  0.00  0.00    +0.221 A 
ATOM     13  N   UNL     1      -1.281  -0.298  25.774  0.00  0.00    -0.054 NA
ATOM     14  O   UNL     1      -1.858  -0.887  25.780  0.00  0.00    -0.336 OA
ATOM     15  C   UNL     1      -2.085  -1.029  24.998  0.00  0.00    +0.251 A 
ATOM     16  N   UNL     1      -1.648  -0.527  24.512  0.00  0.00    -0.188 NA
ENDROOT
BRANCH  12   8
ATOM      6  C   UNL     1      -0.092   1.825  24.811  0.00  0.00    +0.142 A 
ATOM      7  C   UNL     1      -0.625   1.251  25.069  0.00  0.00    +0.059 A 
ATOM      8  C   UNL     1      -0.618   0.499  24.732  0.00  0.00    +0.123 A 
ATOM      9  N   UNL     1      -0.076   0.320  24.136  0.00  0.00    -0.240 NA
ATOM     10  C   UNL     1       0.458   0.893  23.877  0.00  0.00    +0.102 A 
ATOM     11  C   UNL     1       0.449   1.646  24.215  0.00  0.00    +0.058 A 
BRANCH   6   5
ATOM      5  O   UNL     1      -0.100   2.578  25.149  0.00  0.00    -0.473 OA
BRANCH   5   4
ATOM      4  C   UNL     1      -0.582   3.167  24.830  0.00  0.00    +0.237 C 
BRANCH   4   3
ATOM      3  C   UNL     1      -0.715   3.864  25.251  0.00  0.00    +0.189 C 
BRANCH   3   2
ATOM      1  C   UNL     1      -1.528   5.037  25.192  0.00  0.00    +0.174 C 
ATOM      2  O   UNL     1      -0.958   4.546  24.854  0.00  0.00    -0.347 OA
ENDBRANCH   3   2
ENDBRANCH   4   3
ENDBRANCH   5   4
ENDBRANCH   6   5
ENDBRANCH  12   8
BRANCH  15  17
ATOM     17  C   UNL     1      -2.650  -1.576  24.750  0.00  0.00    +0.138 C 
ATOM     18  C   UNL     1      -2.518  -2.377  24.605  0.00  0.00    +0.027 C 
ATOM     19  C   UNL     1      -3.234  -2.714  24.368  0.00  0.00    +0.019 C 
ATOM     20  C   UNL     1      -3.806  -2.120  24.367  0.00  0.00    +0.072 C 
ATOM     21  N   UNL     1      -3.447  -1.417  24.603  0.00  0.00    -0.268 NA
BRANCH  21  22
ATOM     22  C   UNL     1      -3.816  -0.684  24.678  0.00  0.00    +0.061 C 
ATOM     23  C   UNL     1      -4.144  -0.461  25.403  0.00  0.00    +0.033 C 
ATOM     24  C   UNL     1      -4.514   0.273  25.479  0.00  0.00    +0.074 C 
ATOM     25  N   UNL     1      -4.555   0.784  24.832  0.00  0.00    -0.271 NA
ATOM     26  C   UNL     1      -4.925   1.517  24.909  0.00  0.00    +0.090 C 
ATOM     27  C   UNL     1      -4.228   0.561  24.109  0.00  0.00    +0.074 C 
ATOM     28  C   UNL     1      -3.858  -0.173  24.032  0.00  0.00    +0.033 C 
ENDBRANCH  21  22
ENDBRANCH  15  17
TORSDOF 7
ENDMDL
MODEL 6
REMARK VINA RESULT:      -9.6      1.579      3.705
REMARK  Name = 
REMARK  7 active torsions:
REMARK  status: ('A' for Active; 'I' for Inactive)
REMARK    1  A    between atoms: O_2  and  C_3
REMARK    2  A    between atoms: C_3  and  C_4
REMARK    3  A    between atoms: C_4  and  O_5
REMARK    4  A    between atoms: O_5  and  C_6
REMARK    5  A    between atoms: C_8  and  C_12
REMARK    6  A    between atoms: C_15  and  C_17
REMARK    7  A    between atoms: N_21  and  C_22
REMARK                            x       y       z     vdW  Elec       q    Type
REMARK                         _______ _______ _______ _____ _____    ______ ____
ROOT
ATOM     12  C   UNL     1      -0.988   2.570  25.320  0.00  0.00    +0.221 A 
ATOM     13  N   UNL     1      -0.570   2.212  25.934  0.00  0.00    -0.054 NA
ATOM     14  O   UNL     1      -0.210   1.533  25.636  0.00  0.00    -0.336 OA
ATOM     15  C   UNL     1      -0.405   1.471  24.836  0.00  0.00    +0.251 A 
ATOM     16  N   UNL     1      -0.886   2.112  24.642  0.00  0.00    -0.188 NA
ENDROOT
BRANCH  12   8
ATOM      6  C   UNL     1      -2.658   3.929  25.676  0.00  0.00    +0.142 A 
ATOM      7  C   UNL     1      -2.216   3.235  25.621  0.00  0.00    +0.059 A 
ATOM      8  C   UNL     1      -1.430   3.264  25.375  0.00  0.00    +0.123 A 
ATOM      9  N   UNL     1      -1.085   3.990  25.182  0.00  0.00    -0.240 NA
ATOM     10  C   UNL     1      -1.527   4.684  25.237  0.00  0.00    +0.102 A 
ATOM     11  C   UNL     1      -2.314   4.653  25.484  0.00  0.00    +0.058 A 
BRANCH   6   5
ATOM      5  O   UNL     1      -3.445   3.898  25.923  0.00  0.00    -0.473 OA
BRANCH   5   4
ATOM      4  C   UNL     1      -4.021   3.582  25.424  0.00  0.00    +0.237 C 
BRANCH   4   3
ATOM      3  C   UNL     1      -4.764   3.384  25.723  0.00  0.00    +0.189 C 
BRANCH   3   2
ATOM      1  C   UNL     1      -5.789   2.435  25.426  0.00  0.00    +0.174 C 
ATOM      2  O   UNL     1      -5.352   3.103  25.218  0.00  0.00    -0.347 OA
ENDBRANCH   3   2
ENDBRANCH   4   3
ENDBRANCH   5   4
ENDBRANCH   6   5
ENDBRANCH  12   8
BRANCH  15  17
ATOM     17  C   UNL     1      -0.162   0.873  24.323  0.00  0.00    +0.138 C 
ATOM     18  C   UNL     1       0.479   0.908  23.805  0.00  0.00    +0.027 C 
ATOM     19  C   UNL     1       0.519   0.190  23.400  0.00  0.00    +0.019 C 
ATOM     20  C   UNL     1      -0.096  -0.289  23.669  0.00  0.00    +0.072 C 
ATOM     21  N   UNL     1      -0.517   0.132  24.239  0.00  0.00    -0.268 NA
BRANCH  21  22
ATOM     22  C   UNL     1      -1.178  -0.138  24.653  0.00  0.00    +0.061 C 
ATOM     23  C   UNL     1      -1.934  -0.025  24.341  0.00  0.00    +0.033 C 
ATOM     24  C   UNL     1      -2.595  -0.295  24.755  0.00  0.00    +0.074 C 
ATOM     25  N   UNL     1      -2.500  -0.676  25.481  0.00  0.00    -0.271 NA
ATOM     26  C   UNL     1      -3.161  -0.945  25.894  0.00  0.00    +0.090 C 
ATOM     27  C   UNL     1      -1.745  -0.788  25.792  0.00  0.00    +0.074 C 
ATOM     28  C   UNL     1      -1.084  -0.519  25.378  0.00  0.00    +0.033 C 
ENDBRANCH  21  22
ENDBRANCH  15  17
TORSDOF 7
ENDMDL
MODEL 7
REMARK VINA RESULT:      -9.6      2.411      4.886
REMARK  Name = 
REMARK  7 active torsions:
REMARK  status: ('A' for Active; 'I' for Inactive)
REMARK    1  A    between atoms: O_2  and  C_3
REMARK    2  A    between atoms: C_3  and  C_4
REMARK    3  A    between atoms: C_4  and  O_5
REMARK    4  A    between atoms: O_5  and  C_6
REMARK    5  A    between atoms: C_8  and  C_12
REMARK    6  A    between atoms: C_15  and  C_17
REMARK    7  A    between atoms: N_21  and  C_22
REMARK                            x       y       z     vdW  Elec       q    Type
REMARK                         _______ _______ _______ _____ _____    ______ ____
ROOT
ATOM     12  C   UNL     1      -2.237   1.620  24.017  0.00  0.00    +0.221 A 
ATOM     13  N   UNL     1      -2.620   1.513  23.294  0.00  0.00    -0.054 NA
ATOM     14  O   UNL     1      -3.428   1.440  23.442  0.00  0.00    -0.336 OA
ATOM     15  C   UNL     1      -3.545   1.501  24.257  0.00  0.00    +0.251 A 
ATOM     16  N   UNL     1      -2.809   1.612  24.611  0.00  0.00    -0.188 NA
ENDROOT
BRANCH  12   8
ATOM      6  C   UNL     1      -0.096   1.196  24.058  0.00  0.00    +0.142 A 
ATOM      7  C   UNL     1      -0.908   1.099  23.949  0.00  0.00    +0.059 A 
ATOM      8  C   UNL     1      -1.425   1.717  24.126  0.00  0.00    +0.123 A 
ATOM      9  N   UNL     1      -1.130   2.433  24.413  0.00  0.00    -0.240 NA
ATOM     10  C   UNL     1      -0.318   2.530  24.521  0.00  0.00    +0.102 A 
ATOM     11  C   UNL     1       0.199   1.911  24.344  0.00  0.00    +0.058 A 
BRANCH   6   5
ATOM      5  O   UNL     1       0.420   0.578  23.880  0.00  0.00    -0.473 OA
BRANCH   5   4
ATOM      4  C   UNL     1       0.922   0.635  23.228  0.00  0.00    +0.237 C 
BRANCH   4   3
ATOM      3  C   UNL     1       1.481   0.045  23.084  0.00  0.00    +0.189 C 
BRANCH   3   2
ATOM      1  C   UNL     1       2.719   0.026  22.371  0.00  0.00    +0.174 C 
ATOM      2  O   UNL     1       1.894   0.032  22.370  0.00  0.00    -0.347 OA
ENDBRANCH   3   2
ENDBRANCH   4   3
ENDBRANCH   5   4
ENDBRANCH   6   5
ENDBRANCH  12   8
BRANCH  15  17
ATOM     17  C   UNL     1      -4.271   1.458  24.647  0.00  0.00    +0.138 C 
ATOM     18  C   UNL     1      -4.762   2.095  24.828  0.00  0.00    +0.027 C 
ATOM     19  C   UNL     1      -5.428   1.799  25.217  0.00  0.00    +0.019 C 
ATOM     20  C   UNL     1      -5.347   0.981  25.276  0.00  0.00    +0.072 C 
ATOM     21  N   UNL     1      -4.632   0.769  24.924  0.00  0.00    -0.268 NA
BRANCH  21  22
ATOM     22  C   UNL     1      -4.330   0.004  24.859  0.00  0.00    +0.061 C 
ATOM     23  C   UNL     1      -3.894  -0.320  25.480  0.00  0.00    +0.033 C 
ATOM     24  C   UNL     1      -3.591  -1.085  25.416  0.00  0.00    +0.074 C 
ATOM     25  N   UNL     1      -3.724  -1.525  24.731  0.00  0.00    -0.271 NA
ATOM     26  C   UNL     1      -3.422  -2.290  24.667  0.00  0.00    +0.090 C 
ATOM     27  C   UNL     1      -4.160  -1.201  24.111  0.00  0.00    +0.074 C 
ATOM     28  C   UNL     1      -4.463  -0.436  24.175  0.00  0.00    +0.033 C 
ENDBRANCH  21  22
ENDBRANCH  15  17
TORSDOF 7
ENDMDL
MODEL 8
REMARK VINA RESULT:      -9.4      2.151      4.086
REMARK  Name = 
REMARK  7 active torsions:
REMARK  status: ('A' for Active; 'I' for Inactive)
REMARK    1  A    between atoms: O_2  and  C_3
REMARK    2  A    between atoms: C_3  and  C_4
REMARK    3  A    between atoms: C_4  and  O_5
REMARK    4  A    between atoms: O_5  and  C_6
REMARK    5  A    between atoms: C_8  and  C_12
REMARK    6  A    between atoms: C_15  and  C_17
REMARK    7  A    between atoms: N_21  and  C_22
REMARK                            x       y       z     vdW  Elec       q    Type
REMARK                         _______ _______ _______ _____ _____    ______ ____
ROOT
ATOM     12  C   UNL     1      -0.888   1.886  25.267  0.00  0.00    +0.221 A 
ATOM     13  N   UNL     1      -0.898   2.068  26.071  0.00  0.00    -0.054 NA
ATOM     14  O   UNL     1      -1.006   2.882  26.147  0.00  0.00    -0.336 OA
ATOM     15  C   UNL     1      -1.062   3.203  25.389  0.00  0.00    +0.251 A 
ATOM     16  N   UNL     1      -0.989   2.588  24.846  0.00  0.00    -0.188 NA
ENDROOT
BRANCH  12   8
ATOM      6  C   UNL     1      -0.238   0.281  23.937  0.00  0.00    +0.142 A 
ATOM      7  C   UNL     1      -0.334   1.033  24.263  0.00  0.00    +0.059 A 
ATOM      8  C   UNL     1      -0.792   1.134  24.941  0.00  0.00    +0.123 A 
ATOM      9  N   UNL     1      -1.156   0.482  25.294  0.00  0.00    -0.240 NA
ATOM     10  C   UNL     1      -1.061  -0.270  24.968  0.00  0.00    +0.102 A 
ATOM     11  C   UNL     1      -0.602  -0.370  24.290  0.00  0.00    +0.058 A 
BRANCH   6   5
ATOM      5  O   UNL     1       0.221   0.181  23.259  0.00  0.00    -0.473 OA
BRANCH   5   4
ATOM      4  C   UNL     1       1.025   0.013  23.327  0.00  0.00    +0.237 C 
BRANCH   4   3
ATOM      3  C   UNL     1       1.523   0.106  22.676  0.00  0.00    +0.189 C 
BRANCH   3   2
ATOM      1  C   UNL     1       2.900   0.199  22.307  0.00  0.00    +0.174 C 
ATOM      2  O   UNL     1       2.290  -0.197  22.696  0.00  0.00    -0.347 OA
ENDBRANCH   3   2
ENDBRANCH   4   3
ENDBRANCH   5   4
ENDBRANCH   6   5
ENDBRANCH  12   8
BRANCH  15  17
ATOM     17  C   UNL     1      -1.172   4.001  25.208  0.00  0.00    +0.138 C 
ATOM     18  C   UNL     1      -0.578   4.549  25.050  0.00  0.00    +0.027 C 
ATOM     19  C   UNL     1      -0.936   5.277  24.898  0.00  0.00    +0.019 C 
ATOM     20  C   UNL     1      -1.752   5.177  24.961  0.00  0.00    +0.072 C 
ATOM     21  N   UNL     1      -1.899   4.389  25.153  0.00  0.00    -0.268 NA
BRANCH  21  22
ATOM     22  C   UNL     1      -2.641   4.047  25.269  0.00  0.00    +0.061 C 
ATOM     23  C   UNL     1      -3.050   3.724  24.629  0.00  0.00    +0.033 C 
ATOM     24  C   UNL     1      -3.792   3.381  24.745  0.00  0.00    +0.074 C 
ATOM     25  N   UNL     1      -4.125   3.363  25.500  0.00  0.00    -0.271 NA
ATOM     26  C   UNL     1      -4.866   3.021  25.616  0.00  0.00    +0.090 C 
ATOM     27  C   UNL     1      -3.716   3.686  26.139  0.00  0.00    +0.074 C 
ATOM     28  C   UNL     1      -2.973   4.028  26.023  0.00  0.00    +0.033 C 
ENDBRANCH  21  22
ENDBRANCH  15  17
TORSDOF 7
ENDMDL
MODEL 9
REMARK VINA RESULT:      -9.3      1.571      2.579
REMARK  Name = 
REMARK  7 active torsions:
REMARK  status: ('A' for Active; 'I' for Inactive)
REMARK    1  A    between atoms: O_2  and  C_3
REMARK    2  A    between atoms: C_3  and  C_4
REMARK    3  A    between atoms: C_4  and  O_5
REMARK    4  A    between atoms: O_5  and  C_6
REMARK    5  A    between atoms: C_8  and  C_12
REMARK    6  A    between atoms: C_15  and  C_17
REMARK    7  A    between atoms: N_21  and  C_22
REMARK                            x       y       z     vdW  Elec       q    Type
REMARK                         _______ _______ _______ _____ _____    ______ ____
ROOT
ATOM     12  C   UNL     1      -3.549   1.426  24.389  0.00  0.00    +0.221 A 
ATOM     13  N   UNL     1      -3.498   1.907  23.721  0.00  0.00    -0.054 NA
ATOM     14  O   UNL     1      -3.272   2.661  23.965  0.00  0.00    -0.336 OA
ATOM     15  C   UNL     1      -3.183   2.646  24.786  0.00  0.00    +0.251 A 
ATOM     16  N   UNL     1      -3.354   1.884  25.047  0.00  0.00    -0.188 NA
ENDROOT
BRANCH  12   8
ATOM      6  C   UNL     1      -3.390  -0.749  24.288  0.00  0.00    +0.142 A 
ATOM      7  C   UNL     1      -3.181   0.049  24.279  0.00  0.00    +0.059 A 
ATOM      8  C   UNL     1      -3.757   0.628  24.398  0.00  0.00    +0.123 A 
ATOM      9  N   UNL     1      -4.543   0.408  24.525  0.00  0.00    -0.240 NA
ATOM     10  C   UNL     1      -4.751  -0.390  24.534  0.00  0.00    +0.102 A 
ATOM     11  C   UNL     1      -4.175  -0.968  24.415  0.00  0.00    +0.058 A 
BRANCH   6   5
ATOM      5  O   UNL     1      -2.813  -1.327  24.170  0.00  0.00    -0.473 OA
BRANCH   5   4
ATOM      4  C   UNL     1      -2.244  -1.466  24.751  0.00  0.00    +0.237 C 
BRANCH   4   3
ATOM      3  C   UNL     1      -1.577  -1.919  24.575  0.00  0.00    +0.189 C 
BRANCH   3   2
ATOM      1  C   UNL     1      -0.312  -1.823  25.233  0.00  0.00    +0.174 C 
ATOM      2  O   UNL     1      -1.067  -2.153  25.180  0.00  0.00    -0.347 OA
ENDBRANCH   3   2
ENDBRANCH   4   3
ENDBRANCH   5   4
ENDBRANCH   6   5
ENDBRANCH  12   8
BRANCH  15  17
ATOM     17  C   UNL     1      -2.962   3.284  25.260  0.00  0.00    +0.138 C 
ATOM     18  C   UNL     1      -3.473   3.816  25.627  0.00  0.00    +0.027 C 
ATOM     19  C   UNL     1      -3.016   4.363  26.044  0.00  0.00    +0.019 C 
ATOM     20  C   UNL     1      -2.222   4.167  25.934  0.00  0.00    +0.072 C 
ATOM     21  N   UNL     1      -2.188   3.501  25.450  0.00  0.00    -0.268 NA
BRANCH  21  22
ATOM     22  C   UNL     1      -1.502   3.118  25.199  0.00  0.00    +0.061 C 
ATOM     23  C   UNL     1      -1.156   2.539  25.675  0.00  0.00    +0.033 C 
ATOM     24  C   UNL     1      -0.470   2.155  25.424  0.00  0.00    +0.074 C 
ATOM     25  N   UNL     1      -0.130   2.350  24.698  0.00  0.00    -0.271 NA
ATOM     26  C   UNL     1       0.556   1.966  24.447  0.00  0.00    +0.090 C 
ATOM     27  C   UNL     1      -0.476   2.928  24.222  0.00  0.00    +0.074 C 
ATOM     28  C   UNL     1      -1.162   3.312  24.473  0.00  0.00    +0.033 C 
ENDBRANCH  21  22
ENDBRANCH  15  17
TORSDOF 7
ENDMDL
