REMARK  Name = 
REMARK  8 active torsions:
REMARK  status: ('A' for Active; 'I' for Inactive)
REMARK    1  A    between atoms: C_2  and  N_4
REMARK    2  A    between atoms: N_7  and  C_8
REMARK    3  A    between atoms: C_8  and  C_9
REMARK    4  A    between atoms: C_11  and  C_12
REMARK    5  A    between atoms: C_12  and  C_13
REMARK    6  A    between atoms: C_16  and  C_17
REMARK    7  A    between atoms: C_17  and  O_18
REMARK    8  A    between atoms: O_18  and  C_19
REMARK                            x       y       z     vdW  Elec       q    Type
REMARK                         _______ _______ _______ _____ _____    ______ ____
ROOT
ATOM      9  C   UNL     1       1.275  -8.184   0.000  0.00  0.00    +0.167 C 
ATOM     10  O   UNL     1       1.989  -7.772   0.000  0.00  0.00    -0.354 OA
ATOM     11  C   UNL     1       2.704  -8.184   0.000  0.00  0.00    +0.121 C 
ATOM     26  C   UNL     1       2.704  -9.009   0.000  0.00  0.00    +0.033 C 
ATOM     27  C   UNL     1       1.989  -9.422   0.000  0.00  0.00    +0.038 C 
ATOM     28  C   UNL     1       1.275  -9.009   0.000  0.00  0.00    +0.181 C 
ATOM     29  O   UNL     1       0.560  -9.422   0.000  0.00  0.00    -0.220 OA
ENDROOT
BRANCH   9   8
ATOM      8  C   UNL     1       0.560  -7.772   0.000  0.00  0.00    +0.149 C 
BRANCH   8   7
ATOM      4  N   UNL     1      -1.583  -8.184   0.000  0.00  0.00    -0.189 NA
ATOM      5  C   UNL     1      -0.869  -7.772   0.000  0.00  0.00    +0.339 C 
ATOM      6  O   UNL     1      -0.869  -6.947   0.000  0.00  0.00    -0.249 OA
ATOM      7  N   UNL     1      -0.154  -8.184   0.000  0.00  0.00    -0.185 NA
BRANCH   4   2
ATOM      1  C   UNL     1      -3.012  -8.184   0.000  0.00  0.00    +0.023 C 
ATOM      2  C   UNL     1      -2.298  -7.772   0.000  0.00  0.00    +0.097 C 
ATOM      3  C   UNL     1      -2.298  -6.947   0.000  0.00  0.00    +0.023 C 
ENDBRANCH   4   2
ENDBRANCH   8   7
ENDBRANCH   9   8
BRANCH  11  12
ATOM     12  C   UNL     1       3.418  -7.772   0.000  0.00  0.00    +0.079 C 
BRANCH  12  13
ATOM     13  C   UNL     1       3.418  -6.947   0.000  0.00  0.00    +0.103 A 
ATOM     14  N   UNL     1       2.751  -6.462   0.000  0.00  0.00    -0.082 NA
ATOM     15  O   UNL     1       3.006  -5.677   0.000  0.00  0.00    -0.354 OA
ATOM     16  C   UNL     1       3.830  -5.677   0.000  0.00  0.00    +0.198 A 
ATOM     25  C   UNL     1       4.085  -6.462   0.000  0.00  0.00    +0.057 A 
BRANCH  16  17
ATOM     17  C   UNL     1       4.315  -5.010   0.000  0.00  0.00    +0.272 C 
BRANCH  17  18
ATOM     18  O   UNL     1       3.980  -4.256   0.000  0.00  0.00    -0.467 OA
BRANCH  18  19
ATOM     19  C   UNL     1       4.465  -3.588   0.000  0.00  0.00    +0.139 A 
ATOM     20  C   UNL     1       4.129  -2.835   0.000  0.00  0.00    +0.037 A 
ATOM     21  C   UNL     1       4.614  -2.167   0.000  0.00  0.00    +0.003 A 
ATOM     22  C   UNL     1       5.435  -2.254   0.000  0.00  0.00    +0.000 A 
ATOM     23  C   UNL     1       5.770  -3.007   0.000  0.00  0.00    +0.003 A 
ATOM     24  C   UNL     1       5.285  -3.675   0.000  0.00  0.00    +0.037 A 
ENDBRANCH  18  19
ENDBRANCH  17  18
ENDBRANCH  16  17
ENDBRANCH  12  13
ENDBRANCH  11  12
TORSDOF 8
