MODEL 1
REMARK VINA RESULT:     -13.8      0.000      0.000
REMARK  Name = 
REMARK  3 active torsions:
REMARK  status: ('A' for Active; 'I' for Inactive)
REMARK    1  A    between atoms: C_2  and  C_5
REMARK    2  A    between atoms: C_12  and  C_14
REMARK    3  A    between atoms: N_17  and  C_19
REMARK                            x       y       z     vdW  Elec       q    Type
REMARK                         _______ _______ _______ _____ _____    ______ ____
ROOT
ATOM      5  C   UNL     1      -1.714   4.355  25.185  0.00  0.00    +0.073 A 
ATOM      6  C   UNL     1      -1.772   3.627  24.803  0.00  0.00    +0.025 A 
ATOM      7  C   UNL     1      -2.410   3.128  24.959  0.00  0.00    +0.100 A 
ATOM      8  C   UNL     1      -2.991   3.358  25.498  0.00  0.00    +0.100 A 
ATOM      9  C   UNL     1      -2.934   4.088  25.880  0.00  0.00    +0.021 A 
ATOM     10  C   UNL     1      -2.295   4.586  25.723  0.00  0.00    +0.005 A 
ATOM     11  N   UNL     1      -3.553   2.756  25.541  0.00  0.00    -0.229 NA
ATOM     12  C   UNL     1      -3.319   2.153  25.029  0.00  0.00    +0.140 A 
ATOM     13  N   UNL     1      -2.613   2.383  24.670  0.00  0.00    -0.229 NA
ENDROOT
BRANCH  12  14
ATOM     14  C   UNL     1      -3.721   1.444  24.899  0.00  0.00    +0.076 C 
ATOM     15  C   UNL     1      -4.529   1.364  24.755  0.00  0.00    +0.026 C 
ATOM     16  C   UNL     1      -4.694   0.562  24.657  0.00  0.00    +0.073 C 
ATOM     17  N   UNL     1      -3.987   0.145  24.741  0.00  0.00    -0.274 NA
ATOM     18  C   UNL     1      -3.386   0.691  24.891  0.00  0.00    +0.080 C 
BRANCH  17  19
ATOM     19  C   UNL     1      -3.896  -0.672  24.685  0.00  0.00    +0.058 C 
ATOM     20  C   UNL     1      -4.138  -1.069  24.003  0.00  0.00    +0.016 C 
ATOM     21  C   UNL     1      -4.047  -1.887  23.948  0.00  0.00    +0.001 C 
ATOM     22  C   UNL     1      -3.715  -2.309  24.573  0.00  0.00    +0.000 C 
ATOM     23  C   UNL     1      -3.473  -1.913  25.255  0.00  0.00    +0.001 C 
ATOM     24  C   UNL     1      -3.563  -1.095  25.312  0.00  0.00    +0.016 C 
ENDBRANCH  17  19
ENDBRANCH  12  14
BRANCH   5   2
ATOM      1  F   UNL     1      -0.438   5.352  24.871  0.00  0.00    -0.166 F 
ATOM      2  C   UNL     1      -1.076   4.853  25.028  0.00  0.00    +0.419 C 
ATOM      3  F   UNL     1      -0.557   4.281  25.316  0.00  0.00    -0.166 F 
ATOM      4  F   UNL     1      -1.594   5.427  24.739  0.00  0.00    -0.166 F 
ENDBRANCH   5   2
TORSDOF 3
ENDMDL
MODEL 2
REMARK VINA RESULT:     -13.4      2.987      5.468
REMARK  Name = 
REMARK  3 active torsions:
REMARK  status: ('A' for Active; 'I' for Inactive)
REMARK    1  A    between atoms: C_2  and  C_5
REMARK    2  A    between atoms: C_12  and  C_14
REMARK    3  A    between atoms: N_17  and  C_19
REMARK                            x       y       z     vdW  Elec       q    Type
REMARK                         _______ _______ _______ _____ _____    ______ ____
ROOT
ATOM      5  C   UNL     1      -3.841  -1.763  24.434  0.00  0.00    +0.073 A 
ATOM      6  C   UNL     1      -3.816  -1.080  23.974  0.00  0.00    +0.025 A 
ATOM      7  C   UNL     1      -3.618  -0.356  24.318  0.00  0.00    +0.100 A 
ATOM      8  C   UNL     1      -3.446  -0.318  25.124  0.00  0.00    +0.100 A 
ATOM      9  C   UNL     1      -3.471  -1.002  25.585  0.00  0.00    +0.021 A 
ATOM     10  C   UNL     1      -3.669  -1.724  25.239  0.00  0.00    +0.005 A 
ATOM     11  N   UNL     1      -3.270   0.466  25.310  0.00  0.00    -0.229 NA
ATOM     12  C   UNL     1      -3.334   0.912  24.619  0.00  0.00    +0.140 A 
ATOM     13  N   UNL     1      -3.549   0.404  24.007  0.00  0.00    -0.229 NA
ENDROOT
BRANCH  12  14
ATOM     14  C   UNL     1      -3.205   1.724  24.553  0.00  0.00    +0.076 C 
ATOM     15  C   UNL     1      -3.715   2.269  24.203  0.00  0.00    +0.026 C 
ATOM     16  C   UNL     1      -3.369   3.016  24.258  0.00  0.00    +0.073 C 
ATOM     17  N   UNL     1      -2.644   2.933  24.642  0.00  0.00    -0.274 NA
ATOM     18  C   UNL     1      -2.543   2.134  24.825  0.00  0.00    +0.080 C 
BRANCH  17  19
ATOM     19  C   UNL     1      -2.114   3.540  24.815  0.00  0.00    +0.058 C 
ATOM     20  C   UNL     1      -2.384   4.238  25.164  0.00  0.00    +0.016 C 
ATOM     21  C   UNL     1      -1.853   4.845  25.336  0.00  0.00    +0.001 C 
ATOM     22  C   UNL     1      -1.053   4.756  25.160  0.00  0.00    +0.000 C 
ATOM     23  C   UNL     1      -0.782   4.060  24.811  0.00  0.00    +0.001 C 
ATOM     24  C   UNL     1      -1.312   3.452  24.638  0.00  0.00    +0.016 C 
ENDBRANCH  17  19
ENDBRANCH  12  14
BRANCH   5   2
ATOM      1  F   UNL     1      -4.237  -3.209  23.743  0.00  0.00    -0.166 F 
ATOM      2  C   UNL     1      -4.039  -2.485  24.089  0.00  0.00    +0.419 C 
ATOM      3  F   UNL     1      -4.760  -2.171  23.841  0.00  0.00    -0.166 F 
ATOM      4  F   UNL     1      -3.318  -2.801  24.336  0.00  0.00    -0.166 F 
ENDBRANCH   5   2
TORSDOF 3
ENDMDL
MODEL 3
REMARK VINA RESULT:     -11.6      3.375      5.507
REMARK  Name = 
REMARK  3 active torsions:
REMARK  status: ('A' for Active; 'I' for Inactive)
REMARK    1  A    between atoms: C_2  and  C_5
REMARK    2  A    between atoms: C_12  and  C_14
REMARK    3  A    between atoms: N_17  and  C_19
REMARK                            x       y       z     vdW  Elec       q    Type
REMARK                         _______ _______ _______ _____ _____    ______ ____
ROOT
ATOM      5  C   UNL     1      -3.286  -2.414  24.573  0.00  0.00    +0.073 A 
ATOM      6  C   UNL     1      -3.839  -1.810  24.479  0.00  0.00    +0.025 A 
ATOM      7  C   UNL     1      -3.591  -1.023  24.461  0.00  0.00    +0.100 A 
ATOM      8  C   UNL     1      -2.790  -0.841  24.536  0.00  0.00    +0.100 A 
ATOM      9  C   UNL     1      -2.236  -1.446  24.631  0.00  0.00    +0.021 A 
ATOM     10  C   UNL     1      -2.485  -2.232  24.649  0.00  0.00    +0.005 A 
ATOM     11  N   UNL     1      -2.710  -0.021  24.498  0.00  0.00    -0.229 NA
ATOM     12  C   UNL     1      -3.461   0.304  24.399  0.00  0.00    +0.140 A 
ATOM     13  N   UNL     1      -4.005  -0.315  24.376  0.00  0.00    -0.229 NA
ENDROOT
BRANCH  12  14
ATOM     14  C   UNL     1      -3.638   1.107  24.334  0.00  0.00    +0.076 C 
ATOM     15  C   UNL     1      -3.363   1.618  23.747  0.00  0.00    +0.026 C 
ATOM     16  C   UNL     1      -3.675   2.368  23.895  0.00  0.00    +0.073 C 
ATOM     17  N   UNL     1      -4.142   2.320  24.573  0.00  0.00    -0.274 NA
ATOM     18  C   UNL     1      -4.119   1.541  24.844  0.00  0.00    +0.080 C 
BRANCH  17  19
ATOM     19  C   UNL     1      -4.559   2.942  24.919  0.00  0.00    +0.058 C 
ATOM     20  C   UNL     1      -4.242   3.703  24.918  0.00  0.00    +0.016 C 
ATOM     21  C   UNL     1      -4.659   4.325  25.264  0.00  0.00    +0.001 C 
ATOM     22  C   UNL     1      -5.394   4.185  25.612  0.00  0.00    +0.000 C 
ATOM     23  C   UNL     1      -5.712   3.425  25.614  0.00  0.00    +0.001 C 
ATOM     24  C   UNL     1      -5.295   2.802  25.267  0.00  0.00    +0.016 C 
ENDBRANCH  17  19
ENDBRANCH  12  14
BRANCH   5   2
ATOM      1  F   UNL     1      -3.782  -3.988  24.610  0.00  0.00    -0.166 F 
ATOM      2  C   UNL     1      -3.534  -3.200  24.591  0.00  0.00    +0.419 C 
ATOM      3  F   UNL     1      -3.492  -3.233  23.768  0.00  0.00    -0.166 F 
ATOM      4  F   UNL     1      -3.575  -3.169  25.415  0.00  0.00    -0.166 F 
ENDBRANCH   5   2
TORSDOF 3
ENDMDL
MODEL 4
REMARK VINA RESULT:     -11.5      1.959      2.640
REMARK  Name = 
REMARK  3 active torsions:
REMARK  status: ('A' for Active; 'I' for Inactive)
REMARK    1  A    between atoms: C_2  and  C_5
REMARK    2  A    between atoms: C_12  and  C_14
REMARK    3  A    between atoms: N_17  and  C_19
REMARK                            x       y       z     vdW  Elec       q    Type
REMARK                         _______ _______ _______ _____ _____    ______ ____
ROOT
ATOM      5  C   UNL     1      -4.952   3.624  25.369  0.00  0.00    +0.073 A 
ATOM      6  C   UNL     1      -5.078   2.822  25.228  0.00  0.00    +0.025 A 
ATOM      7  C   UNL     1      -4.436   2.319  25.098  0.00  0.00    +0.100 A 
ATOM      8  C   UNL     1      -3.668   2.621  25.109  0.00  0.00    +0.100 A 
ATOM      9  C   UNL     1      -3.542   3.425  25.250  0.00  0.00    +0.021 A 
ATOM     10  C   UNL     1      -4.184   3.926  25.379  0.00  0.00    +0.005 A 
ATOM     11  N   UNL     1      -3.148   1.998  24.964  0.00  0.00    -0.229 NA
ATOM     12  C   UNL     1      -3.594   1.312  24.863  0.00  0.00    +0.140 A 
ATOM     13  N   UNL     1      -4.390   1.511  24.947  0.00  0.00    -0.229 NA
ENDROOT
BRANCH  12  14
ATOM     14  C   UNL     1      -3.296   0.558  24.707  0.00  0.00    +0.076 C 
ATOM     15  C   UNL     1      -2.512   0.374  24.527  0.00  0.00    +0.026 C 
ATOM     16  C   UNL     1      -2.461  -0.441  24.412  0.00  0.00    +0.073 C 
ATOM     17  N   UNL     1      -3.213  -0.761  24.521  0.00  0.00    -0.274 NA
ATOM     18  C   UNL     1      -3.729  -0.144  24.704  0.00  0.00    +0.080 C 
BRANCH  17  19
ATOM     19  C   UNL     1      -3.414  -1.559  24.460  0.00  0.00    +0.058 C 
ATOM     20  C   UNL     1      -3.053  -2.115  24.951  0.00  0.00    +0.016 C 
ATOM     21  C   UNL     1      -3.255  -2.912  24.889  0.00  0.00    +0.001 C 
ATOM     22  C   UNL     1      -3.817  -3.154  24.337  0.00  0.00    +0.000 C 
ATOM     23  C   UNL     1      -4.179  -2.599  23.845  0.00  0.00    +0.001 C 
ATOM     24  C   UNL     1      -3.977  -1.801  23.907  0.00  0.00    +0.016 C 
ENDBRANCH  17  19
ENDBRANCH  12  14
BRANCH   5   2
ATOM      1  F   UNL     1      -6.236   4.628  25.628  0.00  0.00    -0.166 F 
ATOM      2  C   UNL     1      -5.594   4.126  25.499  0.00  0.00    +0.419 C 
ATOM      3  F   UNL     1      -5.880   3.611  26.077  0.00  0.00    -0.166 F 
ATOM      4  F   UNL     1      -5.308   4.641  24.921  0.00  0.00    -0.166 F 
ENDBRANCH   5   2
TORSDOF 3
ENDMDL
MODEL 5
REMARK VINA RESULT:     -10.2      3.001      3.944
REMARK  Name = 
REMARK  3 active torsions:
REMARK  status: ('A' for Active; 'I' for Inactive)
REMARK    1  A    between atoms: C_2  and  C_5
REMARK    2  A    between atoms: C_12  and  C_14
REMARK    3  A    between atoms: N_17  and  C_19
REMARK                            x       y       z     vdW  Elec       q    Type
REMARK                         _______ _______ _______ _____ _____    ______ ____
ROOT
ATOM      5  C   UNL     1       0.263   0.546  23.646  0.00  0.00    +0.073 A 
ATOM      6  C   UNL     1      -0.543   0.498  23.483  0.00  0.00    +0.025 A 
ATOM      7  C   UNL     1      -1.054   1.090  23.748  0.00  0.00    +0.100 A 
ATOM      8  C   UNL     1      -0.756   1.730  24.176  0.00  0.00    +0.100 A 
ATOM      9  C   UNL     1       0.052   1.777  24.339  0.00  0.00    +0.021 A 
ATOM     10  C   UNL     1       0.561   1.185  24.074  0.00  0.00    +0.005 A 
ATOM     11  N   UNL     1      -1.387   2.226  24.364  0.00  0.00    -0.229 NA
ATOM     12  C   UNL     1      -2.074   1.894  24.053  0.00  0.00    +0.140 A 
ATOM     13  N   UNL     1      -1.868   1.192  23.672  0.00  0.00    -0.229 NA
ENDROOT
BRANCH  12  14
ATOM     14  C   UNL     1      -2.835   2.209  24.112  0.00  0.00    +0.076 C 
ATOM     15  C   UNL     1      -3.146   2.816  23.649  0.00  0.00    +0.026 C 
ATOM     16  C   UNL     1      -3.921   2.955  23.894  0.00  0.00    +0.073 C 
ATOM     17  N   UNL     1      -4.089   2.432  24.510  0.00  0.00    -0.274 NA
ATOM     18  C   UNL     1      -3.418   1.971  24.644  0.00  0.00    +0.080 C 
BRANCH  17  19
ATOM     19  C   UNL     1      -4.803   2.379  24.920  0.00  0.00    +0.058 C 
ATOM     20  C   UNL     1      -5.282   1.713  24.831  0.00  0.00    +0.016 C 
ATOM     21  C   UNL     1      -5.995   1.660  25.241  0.00  0.00    +0.001 C 
ATOM     22  C   UNL     1      -6.231   2.273  25.739  0.00  0.00    +0.000 C 
ATOM     23  C   UNL     1      -5.754   2.939  25.829  0.00  0.00    +0.001 C 
ATOM     24  C   UNL     1      -5.040   2.993  25.419  0.00  0.00    +0.016 C 
ENDBRANCH  17  19
ENDBRANCH  12  14
BRANCH   5   2
ATOM      1  F   UNL     1       1.283  -0.639  23.116  0.00  0.00    -0.166 F 
ATOM      2  C   UNL     1       0.773  -0.046  23.381  0.00  0.00    +0.419 C 
ATOM      3  F   UNL     1       1.201   0.513  22.951  0.00  0.00    -0.166 F 
ATOM      4  F   UNL     1       0.346  -0.607  23.810  0.00  0.00    -0.166 F 
ENDBRANCH   5   2
TORSDOF 3
ENDMDL
MODEL 6
REMARK VINA RESULT:     -10.1      3.010      4.805
REMARK  Name = 
REMARK  3 active torsions:
REMARK  status: ('A' for Active; 'I' for Inactive)
REMARK    1  A    between atoms: C_2  and  C_5
REMARK    2  A    between atoms: C_12  and  C_14
REMARK    3  A    between atoms: N_17  and  C_19
REMARK                            x       y       z     vdW  Elec       q    Type
REMARK                         _______ _______ _______ _____ _____    ______ ____
ROOT
ATOM      5  C   UNL     1      -0.859  -1.510  25.049  0.00  0.00    +0.073 A 
ATOM      6  C   UNL     1      -1.624  -1.378  25.328  0.00  0.00    +0.025 A 
ATOM      7  C   UNL     1      -2.055  -0.727  25.060  0.00  0.00    +0.100 A 
ATOM      8  C   UNL     1      -1.720  -0.209  24.512  0.00  0.00    +0.100 A 
ATOM      9  C   UNL     1      -0.955  -0.342  24.232  0.00  0.00    +0.021 A 
ATOM     10  C   UNL     1      -0.525  -0.992  24.501  0.00  0.00    +0.005 A 
ATOM     11  N   UNL     1      -2.273   0.380  24.348  0.00  0.00    -0.229 NA
ATOM     12  C   UNL     1      -2.949   0.227  24.795  0.00  0.00    +0.140 A 
ATOM     13  N   UNL     1      -2.813  -0.457  25.234  0.00  0.00    -0.229 NA
ENDROOT
BRANCH  12  14
ATOM     14  C   UNL     1      -3.639   0.679  24.801  0.00  0.00    +0.076 C 
ATOM     15  C   UNL     1      -4.383   0.432  24.545  0.00  0.00    +0.026 C 
ATOM     16  C   UNL     1      -4.911   1.058  24.650  0.00  0.00    +0.073 C 
ATOM     17  N   UNL     1      -4.492   1.692  24.971  0.00  0.00    -0.274 NA
ATOM     18  C   UNL     1      -3.706   1.458  25.064  0.00  0.00    +0.080 C 
BRANCH  17  19
ATOM     19  C   UNL     1      -4.804   2.431  25.164  0.00  0.00    +0.058 C 
ATOM     20  C   UNL     1      -5.521   2.483  25.568  0.00  0.00    +0.016 C 
ATOM     21  C   UNL     1      -5.833   3.222  25.762  0.00  0.00    +0.001 C 
ATOM     22  C   UNL     1      -5.428   3.908  25.552  0.00  0.00    +0.000 C 
ATOM     23  C   UNL     1      -4.711   3.858  25.148  0.00  0.00    +0.001 C 
ATOM     24  C   UNL     1      -4.399   3.119  24.954  0.00  0.00    +0.016 C 
ENDBRANCH  17  19
ENDBRANCH  12  14
BRANCH   5   2
ATOM      1  F   UNL     1       0.001  -2.812  25.586  0.00  0.00    -0.166 F 
ATOM      2  C   UNL     1      -0.429  -2.160  25.317  0.00  0.00    +0.419 C 
ATOM      3  F   UNL     1       0.086  -1.655  25.718  0.00  0.00    -0.166 F 
ATOM      4  F   UNL     1      -0.944  -2.667  24.917  0.00  0.00    -0.166 F 
ENDBRANCH   5   2
TORSDOF 3
ENDMDL
MODEL 7
REMARK VINA RESULT:     -10.0      3.213      4.193
REMARK  Name = 
REMARK  3 active torsions:
REMARK  status: ('A' for Active; 'I' for Inactive)
REMARK    1  A    between atoms: C_2  and  C_5
REMARK    2  A    between atoms: C_12  and  C_14
REMARK    3  A    between atoms: N_17  and  C_19
REMARK                            x       y       z     vdW  Elec       q    Type
REMARK                         _______ _______ _______ _____ _____    ______ ____
ROOT
ATOM      5  C   UNL     1      -5.310   1.891  25.055  0.00  0.00    +0.073 A 
ATOM      6  C   UNL     1      -4.851   1.206  25.058  0.00  0.00    +0.025 A 
ATOM      7  C   UNL     1      -4.033   1.256  24.959  0.00  0.00    +0.100 A 
ATOM      8  C   UNL     1      -3.675   1.993  24.858  0.00  0.00    +0.100 A 
ATOM      9  C   UNL     1      -4.135   2.679  24.856  0.00  0.00    +0.021 A 
ATOM     10  C   UNL     1      -4.952   2.627  24.955  0.00  0.00    +0.005 A 
ATOM     11  N   UNL     1      -2.864   1.872  24.774  0.00  0.00    -0.229 NA
ATOM     12  C   UNL     1      -2.720   1.061  24.823  0.00  0.00    +0.140 A 
ATOM     13  N   UNL     1      -3.443   0.681  24.937  0.00  0.00    -0.229 NA
ENDROOT
BRANCH  12  14
ATOM     14  C   UNL     1      -1.983   0.695  24.767  0.00  0.00    +0.076 C 
ATOM     15  C   UNL     1      -1.688   0.119  25.278  0.00  0.00    +0.026 C 
ATOM     16  C   UNL     1      -0.934  -0.092  25.018  0.00  0.00    +0.073 C 
ATOM     17  N   UNL     1      -0.763   0.354  24.346  0.00  0.00    -0.274 NA
ATOM     18  C   UNL     1      -1.411   0.841  24.191  0.00  0.00    +0.080 C 
BRANCH  17  19
ATOM     19  C   UNL     1      -0.066   0.321  23.906  0.00  0.00    +0.058 C 
ATOM     20  C   UNL     1       0.121  -0.361  23.480  0.00  0.00    +0.016 C 
ATOM     21  C   UNL     1       0.818  -0.394  23.040  0.00  0.00    +0.001 C 
ATOM     22  C   UNL     1       1.328   0.254  23.025  0.00  0.00    +0.000 C 
ATOM     23  C   UNL     1       1.142   0.935  23.450  0.00  0.00    +0.001 C 
ATOM     24  C   UNL     1       0.445   0.969  23.891  0.00  0.00    +0.016 C 
ENDBRANCH  17  19
ENDBRANCH  12  14
BRANCH   5   2
ATOM      1  F   UNL     1      -6.945   1.789  25.252  0.00  0.00    -0.166 F 
ATOM      2  C   UNL     1      -6.127   1.840  25.154  0.00  0.00    +0.419 C 
ATOM      3  F   UNL     1      -6.042   2.009  25.957  0.00  0.00    -0.166 F 
ATOM      4  F   UNL     1      -6.214   1.671  24.351  0.00  0.00    -0.166 F 
ENDBRANCH   5   2
TORSDOF 3
ENDMDL
