MODEL 1
REMARK VINA RESULT:     -13.5      0.000      0.000
REMARK  Name = 
REMARK  5 active torsions:
REMARK  status: ('A' for Active; 'I' for Inactive)
REMARK    1  A    between atoms: C_5  and  N_8
REMARK    2  A    between atoms: N_8  and  C_9
REMARK    3  A    between atoms: C_21  and  C_22
REMARK    4  A    between atoms: C_22  and  C_23
REMARK    5  A    between atoms: C_23  and  C_24
REMARK                            x       y       z     vdW  Elec       q    Type
REMARK                         _______ _______ _______ _____ _____    ______ ____
ROOT
ATOM      9  C   UNL     1      -3.162   1.554  24.606  0.00  0.00    +0.073 C 
ATOM     10  C   UNL     1      -2.986   2.321  24.357  0.00  0.00    +0.017 C 
ATOM     11  C   UNL     1      -3.681   2.765  24.388  0.00  0.00    +0.001 C 
ATOM     12  C   UNL     1      -3.200   3.376  24.114  0.00  0.00    +0.000 C 
ATOM     13  C   UNL     1      -4.275   3.336  24.362  0.00  0.00    +0.000 C 
ATOM     14  C   UNL     1      -4.286   2.272  24.656  0.00  0.00    +0.004 C 
ATOM     15  C   UNL     1      -5.088   2.408  24.796  0.00  0.00    +0.030 C 
ATOM     16  C   UNL     1      -5.568   1.796  25.069  0.00  0.00    +0.127 C 
ATOM     17  C   UNL     1      -6.242   1.395  25.328  0.00  0.00    +0.033 C 
ATOM     18  O   UNL     1      -6.124   2.405  25.025  0.00  0.00    -0.226 OA
ATOM     19  C   UNL     1      -5.247   1.048  25.204  0.00  0.00    +0.030 C 
ATOM     20  C   UNL     1      -4.446   0.912  25.065  0.00  0.00    +0.004 C 
ATOM     21  C   UNL     1      -3.965   1.524  24.791  0.00  0.00    +0.015 C 
ENDROOT
BRANCH   9   8
ATOM      8  N   UNL     1      -2.628   0.928  24.660  0.00  0.00    -0.221 NA
BRANCH   8   5
ATOM      1  C   UNL     1       0.603   1.477  24.269  0.00  0.00    +0.090 C 
ATOM      2  N   UNL     1      -0.205   1.339  24.366  0.00  0.00    -0.271 NA
ATOM      3  C   UNL     1      -0.548   1.411  25.113  0.00  0.00    +0.074 C 
ATOM      4  C   UNL     1      -1.356   1.274  25.212  0.00  0.00    +0.035 C 
ATOM      5  C   UNL     1      -1.820   1.065  24.563  0.00  0.00    +0.075 C 
ATOM      6  C   UNL     1      -1.477   0.993  23.816  0.00  0.00    +0.035 C 
ATOM      7  C   UNL     1      -0.669   1.130  23.717  0.00  0.00    +0.074 C 
ENDBRANCH   8   5
ENDBRANCH   9   8
BRANCH  21  22
ATOM     22  C   UNL     1      -3.568   0.809  24.900  0.00  0.00    +0.011 C 
BRANCH  22  23
ATOM     23  C   UNL     1      -3.943   0.097  24.716  0.00  0.00    +0.085 C 
BRANCH  23  24
ATOM     24  C   UNL     1      -3.708  -0.600  25.089  0.00  0.00    +0.226 C 
ATOM     25  O   UNL     1      -3.384  -0.575  25.847  0.00  0.00    -0.275 OA
ATOM     26  N   UNL     1      -3.797  -1.324  24.702  0.00  0.00    -0.280 N 
ATOM     27  C   UNL     1      -4.111  -1.435  23.948  0.00  0.00    +0.093 C 
ATOM     28  C   UNL     1      -4.095  -2.244  23.782  0.00  0.00    +0.023 C 
ATOM     29  C   UNL     1      -3.773  -2.631  24.435  0.00  0.00    +0.023 C 
ATOM     30  C   UNL     1      -3.588  -2.063  25.003  0.00  0.00    +0.093 C 
ENDBRANCH  23  24
ENDBRANCH  22  23
ENDBRANCH  21  22
TORSDOF 5
ENDMDL
MODEL 2
REMARK VINA RESULT:     -12.9      1.321      3.428
REMARK  Name = 
REMARK  5 active torsions:
REMARK  status: ('A' for Active; 'I' for Inactive)
REMARK    1  A    between atoms: C_5  and  N_8
REMARK    2  A    between atoms: N_8  and  C_9
REMARK    3  A    between atoms: C_21  and  C_22
REMARK    4  A    between atoms: C_22  and  C_23
REMARK    5  A    between atoms: C_23  and  C_24
REMARK                            x       y       z     vdW  Elec       q    Type
REMARK                         _______ _______ _______ _____ _____    ______ ____
ROOT
ATOM      9  C   UNL     1      -2.225  -0.242  24.711  0.00  0.00    +0.073 C 
ATOM     10  C   UNL     1      -1.570  -0.685  24.945  0.00  0.00    +0.017 C 
ATOM     11  C   UNL     1      -1.765  -1.484  24.874  0.00  0.00    +0.001 C 
ATOM     12  C   UNL     1      -0.997  -1.607  25.149  0.00  0.00    +0.000 C 
ATOM     13  C   UNL     1      -1.800  -2.308  24.861  0.00  0.00    +0.000 C 
ATOM     14  C   UNL     1      -2.540  -1.533  24.597  0.00  0.00    +0.004 C 
ATOM     15  C   UNL     1      -3.025  -2.178  24.422  0.00  0.00    +0.030 C 
ATOM     16  C   UNL     1      -3.792  -2.055  24.148  0.00  0.00    +0.127 C 
ATOM     17  C   UNL     1      -4.554  -2.218  23.875  0.00  0.00    +0.033 C 
ATOM     18  O   UNL     1      -3.774  -2.880  24.154  0.00  0.00    -0.226 OA
ATOM     19  C   UNL     1      -4.076  -1.287  24.047  0.00  0.00    +0.030 C 
ATOM     20  C   UNL     1      -3.593  -0.642  24.221  0.00  0.00    +0.004 C 
ATOM     21  C   UNL     1      -2.824  -0.765  24.496  0.00  0.00    +0.015 C 
ENDROOT
BRANCH   9   8
ATOM      8  N   UNL     1      -2.271   0.582  24.695  0.00  0.00    -0.221 NA
BRANCH   8   5
ATOM      1  C   UNL     1       0.439   2.397  25.199  0.00  0.00    +0.090 C 
ATOM      2  N   UNL     1      -0.239   1.943  25.073  0.00  0.00    -0.271 NA
ATOM      3  C   UNL     1      -0.433   1.694  24.311  0.00  0.00    +0.074 C 
ATOM      4  C   UNL     1      -1.110   1.240  24.184  0.00  0.00    +0.035 C 
ATOM      5  C   UNL     1      -1.594   1.036  24.821  0.00  0.00    +0.075 C 
ATOM      6  C   UNL     1      -1.400   1.285  25.583  0.00  0.00    +0.035 C 
ATOM      7  C   UNL     1      -0.722   1.739  25.710  0.00  0.00    +0.074 C 
ENDBRANCH   8   5
ENDBRANCH   9   8
BRANCH  21  22
ATOM     22  C   UNL     1      -3.031   0.030  24.423  0.00  0.00    +0.011 C 
BRANCH  22  23
ATOM     23  C   UNL     1      -3.797   0.277  24.610  0.00  0.00    +0.085 C 
BRANCH  23  24
ATOM     24  C   UNL     1      -4.094   0.975  24.288  0.00  0.00    +0.226 C 
ATOM     25  O   UNL     1      -3.815   1.248  23.561  0.00  0.00    -0.275 OA
ATOM     26  N   UNL     1      -4.672   1.402  24.694  0.00  0.00    -0.280 N 
ATOM     27  C   UNL     1      -5.002   1.200  25.422  0.00  0.00    +0.093 C 
ATOM     28  C   UNL     1      -5.555   1.779  25.621  0.00  0.00    +0.023 C 
ATOM     29  C   UNL     1      -5.566   2.340  25.016  0.00  0.00    +0.023 C 
ATOM     30  C   UNL     1      -5.020   2.107  24.443  0.00  0.00    +0.093 C 
ENDBRANCH  23  24
ENDBRANCH  22  23
ENDBRANCH  21  22
TORSDOF 5
ENDMDL
MODEL 3
REMARK VINA RESULT:     -12.8      0.971      3.436
REMARK  Name = 
REMARK  5 active torsions:
REMARK  status: ('A' for Active; 'I' for Inactive)
REMARK    1  A    between atoms: C_5  and  N_8
REMARK    2  A    between atoms: N_8  and  C_9
REMARK    3  A    between atoms: C_21  and  C_22
REMARK    4  A    between atoms: C_22  and  C_23
REMARK    5  A    between atoms: C_23  and  C_24
REMARK                            x       y       z     vdW  Elec       q    Type
REMARK                         _______ _______ _______ _____ _____    ______ ____
ROOT
ATOM      9  C   UNL     1      -3.979   1.088  24.829  0.00  0.00    +0.073 C 
ATOM     10  C   UNL     1      -4.725   0.848  25.086  0.00  0.00    +0.017 C 
ATOM     11  C   UNL     1      -5.181   1.525  25.211  0.00  0.00    +0.001 C 
ATOM     12  C   UNL     1      -5.767   0.984  25.425  0.00  0.00    +0.000 C 
ATOM     13  C   UNL     1      -5.759   2.087  25.380  0.00  0.00    +0.000 C 
ATOM     14  C   UNL     1      -4.717   2.181  25.031  0.00  0.00    +0.004 C 
ATOM     15  C   UNL     1      -4.873   2.991  25.052  0.00  0.00    +0.030 C 
ATOM     16  C   UNL     1      -4.288   3.531  24.837  0.00  0.00    +0.127 C 
ATOM     17  C   UNL     1      -3.915   4.252  24.686  0.00  0.00    +0.033 C 
ATOM     18  O   UNL     1      -4.902   4.052  25.020  0.00  0.00    -0.226 OA
ATOM     19  C   UNL     1      -3.545   3.261  24.602  0.00  0.00    +0.030 C 
ATOM     20  C   UNL     1      -3.387   2.452  24.581  0.00  0.00    +0.004 C 
ATOM     21  C   UNL     1      -3.973   1.912  24.796  0.00  0.00    +0.015 C 
ENDROOT
BRANCH   9   8
ATOM      8  N   UNL     1      -3.348   0.590  24.640  0.00  0.00    -0.221 NA
BRANCH   8   5
ATOM      1  C   UNL     1      -3.785  -2.680  24.593  0.00  0.00    +0.090 C 
ATOM      2  N   UNL     1      -3.676  -1.863  24.605  0.00  0.00    -0.271 NA
ATOM      3  C   UNL     1      -3.844  -1.414  23.933  0.00  0.00    +0.074 C 
ATOM      4  C   UNL     1      -3.735  -0.596  23.944  0.00  0.00    +0.035 C 
ATOM      5  C   UNL     1      -3.457  -0.227  24.628  0.00  0.00    +0.075 C 
ATOM      6  C   UNL     1      -3.289  -0.676  25.300  0.00  0.00    +0.035 C 
ATOM      7  C   UNL     1      -3.398  -1.493  25.289  0.00  0.00    +0.074 C 
ENDBRANCH   8   5
ENDBRANCH   9   8
BRANCH  21  22
ATOM     22  C   UNL     1      -3.260   1.562  24.573  0.00  0.00    +0.011 C 
BRANCH  22  23
ATOM     23  C   UNL     1      -2.544   1.908  24.795  0.00  0.00    +0.085 C 
BRANCH  23  24
ATOM     24  C   UNL     1      -1.870   1.790  24.335  0.00  0.00    +0.226 C 
ATOM     25  O   UNL     1      -1.943   1.601  23.535  0.00  0.00    -0.275 OA
ATOM     26  N   UNL     1      -1.121   1.861  24.675  0.00  0.00    -0.280 N 
ATOM     27  C   UNL     1      -0.962   2.046  25.462  0.00  0.00    +0.093 C 
ATOM     28  C   UNL     1      -0.143   2.059  25.561  0.00  0.00    +0.023 C 
ATOM     29  C   UNL     1       0.204   1.881  24.834  0.00  0.00    +0.023 C 
ATOM     30  C   UNL     1      -0.400   1.759  24.286  0.00  0.00    +0.093 C 
ENDBRANCH  23  24
ENDBRANCH  22  23
ENDBRANCH  21  22
TORSDOF 5
ENDMDL
MODEL 4
REMARK VINA RESULT:     -12.1      1.351      4.371
REMARK  Name = 
REMARK  5 active torsions:
REMARK  status: ('A' for Active; 'I' for Inactive)
REMARK    1  A    between atoms: C_5  and  N_8
REMARK    2  A    between atoms: N_8  and  C_9
REMARK    3  A    between atoms: C_21  and  C_22
REMARK    4  A    between atoms: C_22  and  C_23
REMARK    5  A    between atoms: C_23  and  C_24
REMARK                            x       y       z     vdW  Elec       q    Type
REMARK                         _______ _______ _______ _____ _____    ______ ____
ROOT
ATOM      9  C   UNL     1      -3.288  -0.296  24.619  0.00  0.00    +0.073 C 
ATOM     10  C   UNL     1      -3.970  -0.650  24.319  0.00  0.00    +0.017 C 
ATOM     11  C   UNL     1      -3.807  -1.449  24.191  0.00  0.00    +0.001 C 
ATOM     12  C   UNL     1      -4.590  -1.478  23.932  0.00  0.00    +0.000 C 
ATOM     13  C   UNL     1      -3.808  -2.253  24.009  0.00  0.00    +0.000 C 
ATOM     14  C   UNL     1      -3.025  -1.588  24.412  0.00  0.00    +0.004 C 
ATOM     15  C   UNL     1      -2.562  -2.271  24.406  0.00  0.00    +0.030 C 
ATOM     16  C   UNL     1      -1.780  -2.242  24.665  0.00  0.00    +0.127 C 
ATOM     17  C   UNL     1      -1.016  -2.490  24.855  0.00  0.00    +0.033 C 
ATOM     18  O   UNL     1      -1.834  -3.041  24.466  0.00  0.00    -0.226 OA
ATOM     19  C   UNL     1      -1.459  -1.529  24.929  0.00  0.00    +0.030 C 
ATOM     20  C   UNL     1      -1.921  -0.846  24.935  0.00  0.00    +0.004 C 
ATOM     21  C   UNL     1      -2.704  -0.875  24.676  0.00  0.00    +0.015 C 
ENDROOT
BRANCH   9   8
ATOM      8  N   UNL     1      -3.205   0.499  24.825  0.00  0.00    -0.221 NA
BRANCH   8   5
ATOM      1  C   UNL     1      -5.850   2.471  24.884  0.00  0.00    +0.090 C 
ATOM      2  N   UNL     1      -5.189   1.978  24.869  0.00  0.00    -0.271 NA
ATOM      3  C   UNL     1      -5.055   1.450  25.488  0.00  0.00    +0.074 C 
ATOM      4  C   UNL     1      -4.393   0.957  25.474  0.00  0.00    +0.035 C 
ATOM      5  C   UNL     1      -3.867   0.992  24.840  0.00  0.00    +0.075 C 
ATOM      6  C   UNL     1      -4.001   1.520  24.221  0.00  0.00    +0.035 C 
ATOM      7  C   UNL     1      -4.662   2.013  24.235  0.00  0.00    +0.074 C 
ENDBRANCH   8   5
ENDBRANCH   9   8
BRANCH  21  22
ATOM     22  C   UNL     1      -2.460  -0.127  24.924  0.00  0.00    +0.011 C 
BRANCH  22  23
ATOM     23  C   UNL     1      -1.698   0.139  24.748  0.00  0.00    +0.085 C 
BRANCH  23  24
ATOM     24  C   UNL     1      -1.328   0.684  25.243  0.00  0.00    +0.226 C 
ATOM     25  O   UNL     1      -1.533   0.724  26.041  0.00  0.00    -0.275 OA
ATOM     26  N   UNL     1      -0.750   1.189  24.940  0.00  0.00    -0.280 N 
ATOM     27  C   UNL     1      -0.488   1.213  24.158  0.00  0.00    +0.093 C 
ATOM     28  C   UNL     1       0.091   1.798  24.101  0.00  0.00    +0.023 C 
ATOM     29  C   UNL     1       0.186   2.136  24.847  0.00  0.00    +0.023 C 
ATOM     30  C   UNL     1      -0.333   1.760  25.366  0.00  0.00    +0.093 C 
ENDBRANCH  23  24
ENDBRANCH  22  23
ENDBRANCH  21  22
TORSDOF 5
ENDMDL
MODEL 5
REMARK VINA RESULT:     -12.0      1.832      3.556
REMARK  Name = 
REMARK  5 active torsions:
REMARK  status: ('A' for Active; 'I' for Inactive)
REMARK    1  A    between atoms: C_5  and  N_8
REMARK    2  A    between atoms: N_8  and  C_9
REMARK    3  A    between atoms: C_21  and  C_22
REMARK    4  A    between atoms: C_22  and  C_23
REMARK    5  A    between atoms: C_23  and  C_24
REMARK                            x       y       z     vdW  Elec       q    Type
REMARK                         _______ _______ _______ _____ _____    ______ ____
ROOT
ATOM      9  C   UNL     1      -1.672   1.982  25.185  0.00  0.00    +0.073 C 
ATOM     10  C   UNL     1      -0.906   1.863  25.467  0.00  0.00    +0.017 C 
ATOM     11  C   UNL     1      -0.565   2.603  25.599  0.00  0.00    +0.001 C 
ATOM     12  C   UNL     1       0.091   2.161  25.837  0.00  0.00    +0.000 C 
ATOM     13  C   UNL     1      -0.087   3.249  25.781  0.00  0.00    +0.000 C 
ATOM     14  C   UNL     1      -1.120   3.178  25.399  0.00  0.00    +0.004 C 
ATOM     15  C   UNL     1      -1.092   4.003  25.416  0.00  0.00    +0.030 C 
ATOM     16  C   UNL     1      -1.747   4.443  25.178  0.00  0.00    +0.127 C 
ATOM     17  C   UNL     1      -2.223   5.096  25.007  0.00  0.00    +0.033 C 
ATOM     18  O   UNL     1      -1.228   5.054  25.374  0.00  0.00    -0.226 OA
ATOM     19  C   UNL     1      -2.431   4.060  24.922  0.00  0.00    +0.030 C 
ATOM     20  C   UNL     1      -2.460   3.235  24.904  0.00  0.00    +0.004 C 
ATOM     21  C   UNL     1      -1.804   2.794  25.143  0.00  0.00    +0.015 C 
ENDROOT
BRANCH   9   8
ATOM      8  N   UNL     1      -2.211   1.391  24.981  0.00  0.00    -0.221 NA
BRANCH   8   5
ATOM      1  C   UNL     1      -1.250  -1.765  24.914  0.00  0.00    +0.090 C 
ATOM      2  N   UNL     1      -1.490  -0.976  24.931  0.00  0.00    -0.271 NA
ATOM      3  C   UNL     1      -1.384  -0.498  24.267  0.00  0.00    +0.074 C 
ATOM      4  C   UNL     1      -1.624   0.291  24.283  0.00  0.00    +0.035 C 
ATOM      5  C   UNL     1      -1.971   0.602  24.964  0.00  0.00    +0.075 C 
ATOM      6  C   UNL     1      -2.077   0.124  25.628  0.00  0.00    +0.035 C 
ATOM      7  C   UNL     1      -1.837  -0.665  25.612  0.00  0.00    +0.074 C 
ENDBRANCH   8   5
ENDBRANCH   9   8
BRANCH  21  22
ATOM     22  C   UNL     1      -2.447   2.337  24.902  0.00  0.00    +0.011 C 
BRANCH  22  23
ATOM     23  C   UNL     1      -3.217   2.586  25.067  0.00  0.00    +0.085 C 
BRANCH  23  24
ATOM     24  C   UNL     1      -3.842   2.334  24.592  0.00  0.00    +0.226 C 
ATOM     25  O   UNL     1      -3.709   2.144  23.801  0.00  0.00    -0.275 OA
ATOM     26  N   UNL     1      -4.601   2.271  24.910  0.00  0.00    -0.280 N 
ATOM     27  C   UNL     1      -4.817   2.441  25.687  0.00  0.00    +0.093 C 
ATOM     28  C   UNL     1      -5.627   2.302  25.763  0.00  0.00    +0.023 C 
ATOM     29  C   UNL     1      -5.911   2.047  25.032  0.00  0.00    +0.023 C 
ATOM     30  C   UNL     1      -5.277   2.028  24.505  0.00  0.00    +0.093 C 
ENDBRANCH  23  24
ENDBRANCH  22  23
ENDBRANCH  21  22
TORSDOF 5
ENDMDL
MODEL 6
REMARK VINA RESULT:     -11.8      1.634      3.663
REMARK  Name = 
REMARK  5 active torsions:
REMARK  status: ('A' for Active; 'I' for Inactive)
REMARK    1  A    between atoms: C_5  and  N_8
REMARK    2  A    between atoms: N_8  and  C_9
REMARK    3  A    between atoms: C_21  and  C_22
REMARK    4  A    between atoms: C_22  and  C_23
REMARK    5  A    between atoms: C_23  and  C_24
REMARK                            x       y       z     vdW  Elec       q    Type
REMARK                         _______ _______ _______ _____ _____    ______ ____
ROOT
ATOM      9  C   UNL     1      -2.448   2.430  24.904  0.00  0.00    +0.073 C 
ATOM     10  C   UNL     1      -2.222   3.138  25.261  0.00  0.00    +0.017 C 
ATOM     11  C   UNL     1      -1.398   3.182  25.241  0.00  0.00    +0.001 C 
ATOM     12  C   UNL     1      -1.514   3.904  25.624  0.00  0.00    +0.000 C 
ATOM     13  C   UNL     1      -0.599   3.377  25.301  0.00  0.00    +0.000 C 
ATOM     14  C   UNL     1      -1.116   2.501  24.872  0.00  0.00    +0.004 C 
ATOM     15  C   UNL     1      -0.351   2.243  24.697  0.00  0.00    +0.030 C 
ATOM     16  C   UNL     1      -0.236   1.522  24.315  0.00  0.00    +0.127 C 
ATOM     17  C   UNL     1       0.151   0.884  23.962  0.00  0.00    +0.033 C 
ATOM     18  O   UNL     1       0.548   1.765  24.401  0.00  0.00    -0.226 OA
ATOM     19  C   UNL     1      -0.885   1.057  24.107  0.00  0.00    +0.030 C 
ATOM     20  C   UNL     1      -1.649   1.314  24.280  0.00  0.00    +0.004 C 
ATOM     21  C   UNL     1      -1.765   2.037  24.663  0.00  0.00    +0.015 C 
ENDROOT
BRANCH   9   8
ATOM      8  N   UNL     1      -3.223   2.163  24.804  0.00  0.00    -0.221 NA
BRANCH   8   5
ATOM      1  C   UNL     1      -5.757   4.153  25.514  0.00  0.00    +0.090 C 
ATOM      2  N   UNL     1      -5.124   3.655  25.337  0.00  0.00    -0.271 NA
ATOM      3  C   UNL     1      -4.759   3.699  24.598  0.00  0.00    +0.074 C 
ATOM      4  C   UNL     1      -4.125   3.202  24.420  0.00  0.00    +0.035 C 
ATOM      5  C   UNL     1      -3.856   2.660  24.981  0.00  0.00    +0.075 C 
ATOM      6  C   UNL     1      -4.221   2.617  25.720  0.00  0.00    +0.035 C 
ATOM      7  C   UNL     1      -4.855   3.114  25.898  0.00  0.00    +0.074 C 
ENDBRANCH   8   5
ENDBRANCH   9   8
BRANCH  21  22
ATOM     22  C   UNL     1      -2.463   1.633  24.489  0.00  0.00    +0.011 C 
BRANCH  22  23
ATOM     23  C   UNL     1      -2.502   0.814  24.585  0.00  0.00    +0.085 C 
BRANCH  23  24
ATOM     24  C   UNL     1      -3.044   0.373  24.146  0.00  0.00    +0.226 C 
ATOM     25  O   UNL     1      -3.311   0.653  23.418  0.00  0.00    -0.275 OA
ATOM     26  N   UNL     1      -3.319  -0.349  24.437  0.00  0.00    -0.280 N 
ATOM     27  C   UNL     1      -3.102  -0.697  25.152  0.00  0.00    +0.093 C 
ATOM     28  C   UNL     1      -3.508  -1.413  25.220  0.00  0.00    +0.023 C 
ATOM     29  C   UNL     1      -3.975  -1.505  24.546  0.00  0.00    +0.023 C 
ATOM     30  C   UNL     1      -3.858  -0.848  24.062  0.00  0.00    +0.093 C 
ENDBRANCH  23  24
ENDBRANCH  22  23
ENDBRANCH  21  22
TORSDOF 5
ENDMDL
MODEL 7
REMARK VINA RESULT:     -11.8      1.365      3.343
REMARK  Name = 
REMARK  5 active torsions:
REMARK  status: ('A' for Active; 'I' for Inactive)
REMARK    1  A    between atoms: C_5  and  N_8
REMARK    2  A    between atoms: N_8  and  C_9
REMARK    3  A    between atoms: C_21  and  C_22
REMARK    4  A    between atoms: C_22  and  C_23
REMARK    5  A    between atoms: C_23  and  C_24
REMARK                            x       y       z     vdW  Elec       q    Type
REMARK                         _______ _______ _______ _____ _____    ______ ____
ROOT
ATOM      9  C   UNL     1      -3.027   0.955  24.631  0.00  0.00    +0.073 C 
ATOM     10  C   UNL     1      -3.136   0.143  24.726  0.00  0.00    +0.017 C 
ATOM     11  C   UNL     1      -3.936   0.010  24.878  0.00  0.00    +0.001 C 
ATOM     12  C   UNL     1      -3.708  -0.783  24.913  0.00  0.00    +0.000 C 
ATOM     13  C   UNL     1      -4.688  -0.289  25.036  0.00  0.00    +0.000 C 
ATOM     14  C   UNL     1      -4.321   0.739  24.876  0.00  0.00    +0.004 C 
ATOM     15  C   UNL     1      -5.110   0.947  24.993  0.00  0.00    +0.030 C 
ATOM     16  C   UNL     1      -5.338   1.739  24.958  0.00  0.00    +0.127 C 
ATOM     17  C   UNL     1      -5.819   2.410  24.978  0.00  0.00    +0.033 C 
ATOM     18  O   UNL     1      -6.067   1.388  25.117  0.00  0.00    -0.226 OA
ATOM     19  C   UNL     1      -4.776   2.323  24.805  0.00  0.00    +0.030 C 
ATOM     20  C   UNL     1      -3.986   2.116  24.688  0.00  0.00    +0.004 C 
ATOM     21  C   UNL     1      -3.759   1.323  24.723  0.00  0.00    +0.015 C 
ENDROOT
BRANCH   9   8
ATOM      8  N   UNL     1      -2.310   1.333  24.471  0.00  0.00    -0.221 NA
BRANCH   8   5
ATOM      1  C   UNL     1       0.406  -0.455  23.908  0.00  0.00    +0.090 C 
ATOM      2  N   UNL     1      -0.273  -0.008  24.048  0.00  0.00    -0.271 NA
ATOM      3  C   UNL     1      -0.498   0.167  24.823  0.00  0.00    +0.074 C 
ATOM      4  C   UNL     1      -1.177   0.615  24.964  0.00  0.00    +0.035 C 
ATOM      5  C   UNL     1      -1.631   0.886  24.331  0.00  0.00    +0.075 C 
ATOM      6  C   UNL     1      -1.406   0.710  23.556  0.00  0.00    +0.035 C 
ATOM      7  C   UNL     1      -0.727   0.263  23.415  0.00  0.00    +0.074 C 
ENDBRANCH   8   5
ENDBRANCH   9   8
BRANCH  21  22
ATOM     22  C   UNL     1      -3.138   1.845  24.566  0.00  0.00    +0.011 C 
BRANCH  22  23
ATOM     23  C   UNL     1      -3.141   2.601  24.896  0.00  0.00    +0.085 C 
BRANCH  23  24
ATOM     24  C   UNL     1      -2.739   3.215  24.521  0.00  0.00    +0.226 C 
ATOM     25  O   UNL     1      -2.673   3.225  23.699  0.00  0.00    -0.275 OA
ATOM     26  N   UNL     1      -2.402   3.821  24.969  0.00  0.00    -0.280 N 
ATOM     27  C   UNL     1      -2.422   3.885  25.790  0.00  0.00    +0.093 C 
ATOM     28  C   UNL     1      -2.018   4.573  26.002  0.00  0.00    +0.023 C 
ATOM     29  C   UNL     1      -1.748   4.933  25.311  0.00  0.00    +0.023 C 
ATOM     30  C   UNL     1      -1.985   4.469  24.673  0.00  0.00    +0.093 C 
ENDBRANCH  23  24
ENDBRANCH  22  23
ENDBRANCH  21  22
TORSDOF 5
ENDMDL
