REMARK  Name = 
REMARK  11 active torsions:
REMARK  status: ('A' for Active; 'I' for Inactive)
REMARK    1  A    between atoms: O_2  and  C_3
REMARK    2  A    between atoms: C_6  and  C_9
REMARK    3  A    between atoms: C_14  and  C_15
REMARK    4  A    between atoms: C_15  and  C_16
REMARK    5  A    between atoms: C_19  and  C_20
REMARK    6  A    between atoms: C_20  and  C_21
REMARK    7  A    between atoms: C_21  and  N_22
REMARK    8  A    between atoms: N_22  and  C_23
REMARK    9  A    between atoms: N_22  and  C_31
REMARK   10  A    between atoms: C_23  and  C_24
REMARK   11  A    between atoms: C_24  and  N_25
REMARK                            x       y       z     vdW  Elec       q    Type
REMARK                         _______ _______ _______ _____ _____    ______ ____
ROOT
ATOM      9  C   UNL     1      -2.143  -3.712   0.000  0.00  0.00    +0.249 C 
ATOM     10  O   UNL     1      -1.429  -4.125   0.000  0.00  0.00    -0.270 OA
ATOM     11  N   UNL     1      -2.143  -2.888   0.000  0.00  0.00    -0.276 N 
ATOM     12  C   UNL     1      -2.858  -2.475   0.000  0.00  0.00    +0.094 C 
ATOM     13  C   UNL     1      -2.858  -1.650   0.000  0.00  0.00    +0.022 C 
ATOM     14  C   UNL     1      -2.143  -1.238   0.000  0.00  0.00    +0.015 C 
ATOM     19  C   UNL     1      -1.429  -1.650   0.000  0.00  0.00    +0.022 C 
ATOM     37  C   UNL     1      -1.429  -2.475   0.000  0.00  0.00    +0.094 C 
ENDROOT
BRANCH   9   6
ATOM      3  C   UNL     1      -4.287  -4.950   0.000  0.00  0.00    +0.139 A 
ATOM      4  C   UNL     1      -4.287  -4.125   0.000  0.00  0.00    +0.037 A 
ATOM      5  C   UNL     1      -3.572  -3.712   0.000  0.00  0.00    +0.008 A 
ATOM      6  C   UNL     1      -2.858  -4.125   0.000  0.00  0.00    +0.054 A 
ATOM      7  C   UNL     1      -2.858  -4.950   0.000  0.00  0.00    +0.008 A 
ATOM      8  C   UNL     1      -3.572  -5.362   0.000  0.00  0.00    +0.037 A 
BRANCH   3   2
ATOM      1  C   UNL     1      -5.001  -6.188   0.000  0.00  0.00    +0.252 C 
ATOM      2  O   UNL     1      -5.001  -5.362   0.000  0.00  0.00    -0.471 OA
ENDBRANCH   3   2
ENDBRANCH   9   6
BRANCH  14  15
ATOM     15  C   UNL     1      -2.143  -0.412   0.000  0.00  0.00    +0.114 C 
BRANCH  15  16
ATOM     16  C   UNL     1      -2.858   0.000   0.000  0.00  0.00    +0.365 C 
ATOM     17  O   UNL     1      -3.572  -0.412   0.000  0.00  0.00    -0.246 OA
ATOM     18  O   UNL     1      -2.858   0.825   0.000  0.00  0.00    -0.246 OA
ENDBRANCH  15  16
ENDBRANCH  14  15
BRANCH  19  20
ATOM     20  C   UNL     1      -0.715  -1.238   0.000  0.00  0.00    +0.023 C 
BRANCH  20  21
ATOM     21  C   UNL     1       0.000  -1.650   0.000  0.00  0.00    +0.091 C 
BRANCH  21  22
ATOM     22  N   UNL     1       0.715  -1.238   0.000  0.00  0.00    -0.306 N 
BRANCH  22  31
ATOM     31  C   UNL     1       0.715  -0.412   0.000  0.00  0.00    +0.048 A 
ATOM     32  C   UNL     1       0.000   0.000   0.000  0.00  0.00    +0.015 A 
ATOM     33  C   UNL     1       0.000   0.825   0.000  0.00  0.00    +0.001 A 
ATOM     34  C   UNL     1       0.715   1.238   0.000  0.00  0.00    +0.000 A 
ATOM     35  C   UNL     1       1.429   0.825   0.000  0.00  0.00    +0.001 A 
ATOM     36  C   UNL     1       1.429   0.000   0.000  0.00  0.00    +0.015 A 
ENDBRANCH  22  31
BRANCH  22  23
ATOM     23  C   UNL     1       1.429  -1.650   0.000  0.00  0.00    +0.108 C 
BRANCH  23  24
ATOM     24  C   UNL     1       2.143  -1.238   0.000  0.00  0.00    +0.094 C 
BRANCH  24  25
ATOM     25  N   UNL     1       2.858  -1.650   0.000  0.00  0.00    -0.267 NA
ATOM     26  C   UNL     1       3.572  -1.238   0.000  0.00  0.00    +0.105 C 
ATOM     27  C   UNL     1       4.287  -1.650   0.000  0.00  0.00    +0.159 C 
ATOM     28  O   UNL     1       4.287  -2.475   0.000  0.00  0.00    -0.351 OA
ATOM     29  C   UNL     1       3.572  -2.888   0.000  0.00  0.00    +0.159 C 
ATOM     30  C   UNL     1       2.858  -2.475   0.000  0.00  0.00    +0.105 C 
ENDBRANCH  24  25
ENDBRANCH  23  24
ENDBRANCH  22  23
ENDBRANCH  21  22
ENDBRANCH  20  21
ENDBRANCH  19  20
TORSDOF 11
