MODEL 1
REMARK VINA RESULT:      -8.4      0.000      0.000
REMARK  Name = 
REMARK  9 active torsions:
REMARK  status: ('A' for Active; 'I' for Inactive)
REMARK    1  A    between atoms: C_2  and  C_4
REMARK    2  A    between atoms: C_6  and  C_7
REMARK    3  A    between atoms: C_7  and  C_8
REMARK    4  A    between atoms: N_10  and  C_12
REMARK    5  A    between atoms: C_12  and  C_13
REMARK    6  A    between atoms: C_22  and  C_23
REMARK    7  A    between atoms: C_23  and  N_24
REMARK    8  A    between atoms: N_27  and  C_28
REMARK    9  A    between atoms: C_31  and  C_34
REMARK                            x       y       z     vdW  Elec       q    Type
REMARK                         _______ _______ _______ _____ _____    ______ ____
ROOT
ATOM      4  C   UNL     1      -0.904   1.589  24.351  0.00  0.00    +0.006 C 
ATOM      5  C   UNL     1      -1.682   1.374  24.518  0.00  0.00    +0.005 C 
ATOM      6  C   UNL     1      -1.935   0.601  24.385  0.00  0.00    +0.027 C 
ATOM     19  C   UNL     1      -1.409   0.041  24.085  0.00  0.00    -0.048 C 
ATOM     20  C   UNL     1      -1.663  -0.734  23.952  0.00  0.00    +0.026 C 
ATOM     21  C   UNL     1      -0.630   0.254  23.918  0.00  0.00    -0.033 C 
ATOM     22  C   UNL     1      -0.377   1.028  24.051  0.00  0.00    +0.043 C 
ENDROOT
BRANCH   4   2
ATOM      1  C   UNL     1      -0.673   2.915  23.871  0.00  0.00    +0.000 C 
ATOM      2  C   UNL     1      -0.651   2.362  24.484  0.00  0.00    +0.000 C 
ATOM      3  C   UNL     1      -0.376   2.584  25.230  0.00  0.00    +0.000 C 
ENDBRANCH   4   2
BRANCH   6   7
ATOM      7  C   UNL     1      -2.714   0.387  24.552  0.00  0.00    +0.089 C 
BRANCH   7   8
ATOM      8  C   UNL     1      -3.339   0.827  24.240  0.00  0.00    +0.226 C 
ATOM      9  O   UNL     1      -3.290   1.125  23.473  0.00  0.00    -0.275 OA
ATOM     10  N   UNL     1      -4.012   0.969  24.696  0.00  0.00    -0.274 N 
ATOM     11  C   UNL     1      -4.060   0.671  25.463  0.00  0.00    +0.115 C 
BRANCH  10  12
ATOM     12  C   UNL     1      -4.636   1.409  24.384  0.00  0.00    +0.122 C 
BRANCH  12  13
ATOM     13  C   UNL     1      -5.060   1.925  24.868  0.00  0.00    +0.017 A 
ATOM     14  C   UNL     1      -4.811   2.708  24.952  0.00  0.00    +0.001 A 
ATOM     15  C   UNL     1      -5.234   3.225  25.436  0.00  0.00    +0.020 A 
ATOM     16  C   UNL     1      -5.905   2.960  25.834  0.00  0.00    +0.099 A 
ATOM     17  N   UNL     1      -6.154   2.178  25.750  0.00  0.00    -0.243 NA
ATOM     18  C   UNL     1      -5.731   1.661  25.266  0.00  0.00    +0.096 A 
ENDBRANCH  12  13
ENDBRANCH  10  12
ENDBRANCH   7   8
ENDBRANCH   6   7
BRANCH  22  23
ATOM     23  C   UNL     1       0.403   1.243  23.883  0.00  0.00    +0.121 C 
BRANCH  23  24
ATOM     24  N   UNL     1       0.846   0.798  23.349  0.00  0.00    -0.187 NA
ATOM     25  C   UNL     1       1.666   0.757  23.429  0.00  0.00    +0.344 C 
ATOM     26  O   UNL     1       2.042   1.160  24.041  0.00  0.00    -0.249 OA
ATOM     27  N   UNL     1       2.111   0.312  22.894  0.00  0.00    -0.161 NA
BRANCH  27  28
ATOM     28  C   UNL     1       2.931   0.271  22.974  0.00  0.00    +0.075 A 
ATOM     29  C   UNL     1       3.282  -0.412  23.277  0.00  0.00    +0.017 A 
ATOM     30  C   UNL     1       4.102  -0.453  23.356  0.00  0.00    +0.004 A 
ATOM     31  C   UNL     1       4.570   0.188  23.134  0.00  0.00    +0.035 A 
ATOM     32  C   UNL     1       4.220   0.870  22.831  0.00  0.00    +0.004 A 
ATOM     33  C   UNL     1       3.399   0.912  22.751  0.00  0.00    +0.017 A 
BRANCH  31  34
ATOM     34  C   UNL     1       5.391   0.147  23.214  0.00  0.00    +0.173 C 
ATOM     35  C   UNL     1       5.756   0.460  23.884  0.00  0.00    +0.077 C 
ATOM     36  O   UNL     1       5.846  -0.208  22.624  0.00  0.00    -0.291 OA
ENDBRANCH  31  34
ENDBRANCH  27  28
ENDBRANCH  23  24
ENDBRANCH  22  23
TORSDOF 9
ENDMDL
MODEL 2
REMARK VINA RESULT:      -7.2      1.290      7.592
REMARK  Name = 
REMARK  9 active torsions:
REMARK  status: ('A' for Active; 'I' for Inactive)
REMARK    1  A    between atoms: C_2  and  C_4
REMARK    2  A    between atoms: C_6  and  C_7
REMARK    3  A    between atoms: C_7  and  C_8
REMARK    4  A    between atoms: N_10  and  C_12
REMARK    5  A    between atoms: C_12  and  C_13
REMARK    6  A    between atoms: C_22  and  C_23
REMARK    7  A    between atoms: C_23  and  N_24
REMARK    8  A    between atoms: N_27  and  C_28
REMARK    9  A    between atoms: C_31  and  C_34
REMARK                            x       y       z     vdW  Elec       q    Type
REMARK                         _______ _______ _______ _____ _____    ______ ____
ROOT
ATOM      4  C   UNL     1       0.319   1.449  24.198  0.00  0.00    +0.006 C 
ATOM      5  C   UNL     1       1.019   1.110  23.925  0.00  0.00    +0.005 C 
ATOM      6  C   UNL     1       0.993   0.445  23.437  0.00  0.00    +0.027 C 
ATOM     19  C   UNL     1       0.267   0.119  23.223  0.00  0.00    -0.048 C 
ATOM     20  C   UNL     1       0.241  -0.547  22.735  0.00  0.00    +0.026 C 
ATOM     21  C   UNL     1      -0.434   0.457  23.495  0.00  0.00    -0.033 C 
ATOM     22  C   UNL     1      -0.409   1.122  23.983  0.00  0.00    +0.043 C 
ENDROOT
BRANCH   4   2
ATOM      1  C   UNL     1       0.390   2.023  25.504  0.00  0.00    +0.000 C 
ATOM      2  C   UNL     1       0.345   2.113  24.685  0.00  0.00    +0.000 C 
ATOM      3  C   UNL     1       0.325   2.868  24.354  0.00  0.00    +0.000 C 
ENDBRANCH   4   2
BRANCH   6   7
ATOM      7  C   UNL     1       1.694   0.106  23.164  0.00  0.00    +0.089 C 
BRANCH   7   8
ATOM      8  C   UNL     1       2.354   0.581  23.023  0.00  0.00    +0.226 C 
ATOM      9  O   UNL     1       2.259   1.388  22.884  0.00  0.00    -0.275 OA
ATOM     10  N   UNL     1       3.109   0.248  23.020  0.00  0.00    -0.274 N 
ATOM     11  C   UNL     1       3.204  -0.559  23.158  0.00  0.00    +0.115 C 
BRANCH  10  12
ATOM     12  C   UNL     1       3.769   0.723  22.879  0.00  0.00    +0.122 C 
BRANCH  12  13
ATOM     13  C   UNL     1       4.515   0.477  23.129  0.00  0.00    +0.017 A 
ATOM     14  C   UNL     1       4.753   0.609  23.908  0.00  0.00    +0.001 A 
ATOM     15  C   UNL     1       5.500   0.364  24.158  0.00  0.00    +0.020 A 
ATOM     16  C   UNL     1       6.008  -0.013  23.631  0.00  0.00    +0.099 A 
ATOM     17  N   UNL     1       5.772  -0.144  22.851  0.00  0.00    -0.243 NA
ATOM     18  C   UNL     1       5.024   0.101  22.601  0.00  0.00    +0.096 A 
ENDBRANCH  12  13
ENDBRANCH  10  12
ENDBRANCH   7   8
ENDBRANCH   6   7
BRANCH  22  23
ATOM     23  C   UNL     1      -1.110   1.462  24.256  0.00  0.00    +0.121 C 
BRANCH  23  24
ATOM     24  N   UNL     1      -1.822   1.302  23.871  0.00  0.00    -0.187 NA
ATOM     25  C   UNL     1      -2.538   1.468  24.245  0.00  0.00    +0.344 C 
ATOM     26  O   UNL     1      -2.542   1.792  25.003  0.00  0.00    -0.249 OA
ATOM     27  N   UNL     1      -3.251   1.309  23.860  0.00  0.00    -0.161 NA
BRANCH  27  28
ATOM     28  C   UNL     1      -3.967   1.474  24.234  0.00  0.00    +0.075 A 
ATOM     29  C   UNL     1      -4.286   2.235  24.196  0.00  0.00    +0.017 A 
ATOM     30  C   UNL     1      -5.002   2.400  24.570  0.00  0.00    +0.004 A 
ATOM     31  C   UNL     1      -5.399   1.808  24.982  0.00  0.00    +0.035 A 
ATOM     32  C   UNL     1      -5.081   1.048  25.021  0.00  0.00    +0.004 A 
ATOM     33  C   UNL     1      -4.364   0.881  24.647  0.00  0.00    +0.017 A 
BRANCH  31  34
ATOM     34  C   UNL     1      -6.116   1.974  25.356  0.00  0.00    +0.173 C 
ATOM     35  C   UNL     1      -6.119   2.303  26.113  0.00  0.00    +0.077 C 
ATOM     36  O   UNL     1      -6.829   1.810  24.974  0.00  0.00    -0.291 OA
ENDBRANCH  31  34
ENDBRANCH  27  28
ENDBRANCH  23  24
ENDBRANCH  22  23
TORSDOF 9
ENDMDL
MODEL 3
REMARK VINA RESULT:      -4.5     14.676     15.642
REMARK  Name = 
REMARK  9 active torsions:
REMARK  status: ('A' for Active; 'I' for Inactive)
REMARK    1  A    between atoms: C_2  and  C_4
REMARK    2  A    between atoms: C_6  and  C_7
REMARK    3  A    between atoms: C_7  and  C_8
REMARK    4  A    between atoms: N_10  and  C_12
REMARK    5  A    between atoms: C_12  and  C_13
REMARK    6  A    between atoms: C_22  and  C_23
REMARK    7  A    between atoms: C_23  and  N_24
REMARK    8  A    between atoms: N_27  and  C_28
REMARK    9  A    between atoms: C_31  and  C_34
REMARK                            x       y       z     vdW  Elec       q    Type
REMARK                         _______ _______ _______ _____ _____    ______ ____
ROOT
ATOM      4  C   UNL     1      -6.640 -10.153  14.183  0.00  0.00    +0.006 C 
ATOM      5  C   UNL     1      -7.021 -10.036  14.905  0.00  0.00    +0.005 C 
ATOM      6  C   UNL     1      -6.596 -10.092  15.610  0.00  0.00    +0.027 C 
ATOM     19  C   UNL     1      -5.790 -10.265  15.593  0.00  0.00    -0.048 C 
ATOM     20  C   UNL     1      -5.364 -10.321  16.298  0.00  0.00    +0.026 C 
ATOM     21  C   UNL     1      -5.408 -10.382  14.871  0.00  0.00    -0.033 C 
ATOM     22  C   UNL     1      -5.833 -10.326  14.166  0.00  0.00    +0.043 C 
ENDROOT
BRANCH   4   2
ATOM      1  C   UNL     1      -7.221  -9.357  13.148  0.00  0.00    +0.000 C 
ATOM      2  C   UNL     1      -7.065 -10.098  13.479  0.00  0.00    +0.000 C 
ATOM      3  C   UNL     1      -7.334 -10.781  13.104  0.00  0.00    +0.000 C 
ENDBRANCH   4   2
BRANCH   6   7
ATOM      7  C   UNL     1      -6.977  -9.975  16.332  0.00  0.00    +0.089 C 
BRANCH   7   8
ATOM      8  C   UNL     1      -7.790 -10.108  16.396  0.00  0.00    +0.226 C 
ATOM      9  O   UNL     1      -8.126 -10.779  16.053  0.00  0.00    -0.275 OA
ATOM     10  N   UNL     1      -8.265  -9.570  16.803  0.00  0.00    -0.274 N 
ATOM     11  C   UNL     1      -7.929  -8.900  17.146  0.00  0.00    +0.115 C 
BRANCH  10  12
ATOM     12  C   UNL     1      -9.076  -9.704  16.867  0.00  0.00    +0.122 C 
BRANCH  12  13
ATOM     13  C   UNL     1      -9.600  -9.066  16.880  0.00  0.00    +0.017 A 
ATOM     14  C   UNL     1     -10.101  -8.932  16.237  0.00  0.00    +0.001 A 
ATOM     15  C   UNL     1     -10.624  -8.294  16.250  0.00  0.00    +0.020 A 
ATOM     16  C   UNL     1     -10.647  -7.792  16.903  0.00  0.00    +0.099 A 
ATOM     17  N   UNL     1     -10.147  -7.926  17.545  0.00  0.00    -0.243 NA
ATOM     18  C   UNL     1      -9.623  -8.564  17.533  0.00  0.00    +0.096 A 
ENDBRANCH  12  13
ENDBRANCH  10  12
ENDBRANCH   7   8
ENDBRANCH   6   7
BRANCH  22  23
ATOM     23  C   UNL     1      -5.452 -10.444  13.443  0.00  0.00    +0.121 C 
BRANCH  23  24
ATOM     24  N   UNL     1      -4.679 -10.731  13.427  0.00  0.00    -0.187 NA
ATOM     25  C   UNL     1      -4.116 -10.373  12.942  0.00  0.00    +0.344 C 
ATOM     26  O   UNL     1      -4.326  -9.728  12.474  0.00  0.00    -0.249 OA
ATOM     27  N   UNL     1      -3.342 -10.661  12.926  0.00  0.00    -0.161 NA
BRANCH  27  28
ATOM     28  C   UNL     1      -2.780 -10.302  12.441  0.00  0.00    +0.075 A 
ATOM     29  C   UNL     1      -2.091  -9.989  12.771  0.00  0.00    +0.017 A 
ATOM     30  C   UNL     1      -1.528  -9.631  12.286  0.00  0.00    +0.004 A 
ATOM     31  C   UNL     1      -1.653  -9.585  11.473  0.00  0.00    +0.035 A 
ATOM     32  C   UNL     1      -2.341  -9.897  11.143  0.00  0.00    +0.004 A 
ATOM     33  C   UNL     1      -2.905 -10.256  11.628  0.00  0.00    +0.017 A 
BRANCH  31  34
ATOM     34  C   UNL     1      -1.090  -9.226  10.988  0.00  0.00    +0.173 C 
ATOM     35  C   UNL     1      -0.293  -9.241  11.201  0.00  0.00    +0.077 C 
ATOM     36  O   UNL     1      -1.323  -8.852  10.291  0.00  0.00    -0.291 OA
ENDBRANCH  31  34
ENDBRANCH  27  28
ENDBRANCH  23  24
ENDBRANCH  22  23
TORSDOF 9
ENDMDL
