MODEL 1
REMARK VINA RESULT:     -11.8      0.000      0.000
REMARK  Name = 
REMARK  6 active torsions:
REMARK  status: ('A' for Active; 'I' for Inactive)
REMARK    1  A    between atoms: C_2  and  C_4
REMARK    2  A    between atoms: C_4  and  C_5
REMARK    3  A    between atoms: C_5  and  C_6
REMARK    4  A    between atoms: N_15  and  C_19
REMARK    5  A    between atoms: C_22  and  O_23
REMARK    6  A    between atoms: O_23  and  C_24
REMARK                            x       y       z     vdW  Elec       q    Type
REMARK                         _______ _______ _______ _____ _____    ______ ____
ROOT
ATOM      6  C   UNL     1      -2.774   3.411  25.035  0.00  0.00    +0.227 C 
ATOM      7  O   UNL     1      -2.345   2.706  25.024  0.00  0.00    -0.275 OA
ATOM      8  N   UNL     1      -3.599   3.392  25.024  0.00  0.00    -0.272 N 
ATOM      9  C   UNL     1      -4.099   4.048  25.033  0.00  0.00    +0.096 C 
ATOM     10  C   UNL     1      -4.878   3.775  25.017  0.00  0.00    +0.045 C 
ATOM     11  C   UNL     1      -4.858   2.951  24.998  0.00  0.00    +0.126 C 
ATOM     12  N   UNL     1      -5.458   2.385  24.977  0.00  0.00    -0.187 NA
ATOM     13  C   UNL     1      -5.268   1.583  24.961  0.00  0.00    +0.333 C 
ATOM     14  O   UNL     1      -5.868   1.016  24.940  0.00  0.00    -0.250 OA
ATOM     15  N   UNL     1      -4.478   1.346  24.966  0.00  0.00    -0.190 N 
ATOM     16  C   UNL     1      -3.877   1.911  24.987  0.00  0.00    +0.256 C 
ATOM     17  O   UNL     1      -3.087   1.674  24.991  0.00  0.00    -0.272 OA
ATOM     18  C   UNL     1      -4.068   2.714  25.003  0.00  0.00    +0.173 C 
ENDROOT
BRANCH  15  19
ATOM     19  C   UNL     1      -4.287   0.543  24.950  0.00  0.00    +0.062 A 
ATOM     20  C   UNL     1      -4.155   0.136  25.655  0.00  0.00    +0.018 A 
ATOM     21  C   UNL     1      -3.965  -0.667  25.639  0.00  0.00    +0.039 A 
ATOM     22  C   UNL     1      -3.906  -1.063  24.918  0.00  0.00    +0.145 A 
ATOM     30  C   UNL     1      -4.038  -0.655  24.212  0.00  0.00    +0.039 A 
ATOM     31  C   UNL     1      -4.228   0.147  24.228  0.00  0.00    +0.018 A 
BRANCH  22  23
ATOM     23  O   UNL     1      -3.716  -1.865  24.902  0.00  0.00    -0.453 OA
BRANCH  23  24
ATOM     24  C   UNL     1      -2.938  -2.102  24.764  0.00  0.00    +0.145 A 
ATOM     25  C   UNL     1      -2.762  -2.579  24.114  0.00  0.00    +0.037 A 
ATOM     26  C   UNL     1      -1.984  -2.817  23.975  0.00  0.00    +0.003 A 
ATOM     27  C   UNL     1      -1.382  -2.578  24.487  0.00  0.00    +0.000 A 
ATOM     28  C   UNL     1      -1.558  -2.101  25.137  0.00  0.00    +0.003 A 
ATOM     29  C   UNL     1      -2.336  -1.864  25.275  0.00  0.00    +0.037 A 
ENDBRANCH  23  24
ENDBRANCH  22  23
ENDBRANCH  15  19
BRANCH   6   5
ATOM      5  C   UNL     1      -2.378   4.135  25.057  0.00  0.00    +0.097 C 
BRANCH   5   4
ATOM      4  C   UNL     1      -1.562   4.155  25.177  0.00  0.00    +0.124 C 
BRANCH   4   2
ATOM      1  O   UNL     1      -0.417   4.816  24.634  0.00  0.00    -0.246 OA
ATOM      2  C   UNL     1      -1.140   4.848  25.029  0.00  0.00    +0.365 C 
ATOM      3  O   UNL     1      -1.442   5.575  25.277  0.00  0.00    -0.246 OA
ENDBRANCH   4   2
ENDBRANCH   5   4
ENDBRANCH   6   5
TORSDOF 6
ENDMDL
MODEL 2
REMARK VINA RESULT:     -10.7      1.830      2.988
REMARK  Name = 
REMARK  6 active torsions:
REMARK  status: ('A' for Active; 'I' for Inactive)
REMARK    1  A    between atoms: C_2  and  C_4
REMARK    2  A    between atoms: C_4  and  C_5
REMARK    3  A    between atoms: C_5  and  C_6
REMARK    4  A    between atoms: N_15  and  C_19
REMARK    5  A    between atoms: C_22  and  O_23
REMARK    6  A    between atoms: O_23  and  C_24
REMARK                            x       y       z     vdW  Elec       q    Type
REMARK                         _______ _______ _______ _____ _____    ______ ____
ROOT
ATOM      6  C   UNL     1      -3.505   3.147  25.259  0.00  0.00    +0.227 C 
ATOM      7  O   UNL     1      -3.746   2.360  25.197  0.00  0.00    -0.275 OA
ATOM      8  N   UNL     1      -2.702   3.332  25.285  0.00  0.00    -0.272 N 
ATOM      9  C   UNL     1      -2.380   4.089  25.346  0.00  0.00    +0.096 C 
ATOM     10  C   UNL     1      -1.558   4.018  25.352  0.00  0.00    +0.045 C 
ATOM     11  C   UNL     1      -1.372   3.217  25.295  0.00  0.00    +0.126 C 
ATOM     12  N   UNL     1      -0.650   2.817  25.276  0.00  0.00    -0.187 NA
ATOM     13  C   UNL     1      -0.635   1.995  25.215  0.00  0.00    +0.333 C 
ATOM     14  O   UNL     1       0.087   1.596  25.196  0.00  0.00    -0.250 OA
ATOM     15  N   UNL     1      -1.341   1.572  25.173  0.00  0.00    -0.190 N 
ATOM     16  C   UNL     1      -2.063   1.970  25.192  0.00  0.00    +0.256 C 
ATOM     17  O   UNL     1      -2.770   1.546  25.151  0.00  0.00    -0.272 OA
ATOM     18  C   UNL     1      -2.079   2.793  25.254  0.00  0.00    +0.173 C 
ENDROOT
BRANCH  15  19
ATOM     19  C   UNL     1      -1.326   0.748  25.112  0.00  0.00    +0.062 A 
ATOM     20  C   UNL     1      -1.331   0.285  25.794  0.00  0.00    +0.018 A 
ATOM     21  C   UNL     1      -1.316  -0.539  25.733  0.00  0.00    +0.039 A 
ATOM     22  C   UNL     1      -1.296  -0.897  24.991  0.00  0.00    +0.145 A 
ATOM     30  C   UNL     1      -1.291  -0.432  24.309  0.00  0.00    +0.039 A 
ATOM     31  C   UNL     1      -1.306   0.390  24.369  0.00  0.00    +0.018 A 
BRANCH  22  23
ATOM     23  O   UNL     1      -1.281  -1.719  24.930  0.00  0.00    -0.453 OA
BRANCH  23  24
ATOM     24  C   UNL     1      -1.982  -2.138  24.809  0.00  0.00    +0.145 A 
ATOM     25  C   UNL     1      -2.097  -2.554  24.107  0.00  0.00    +0.037 A 
ATOM     26  C   UNL     1      -2.797  -2.973  23.985  0.00  0.00    +0.003 A 
ATOM     27  C   UNL     1      -3.383  -2.975  24.567  0.00  0.00    +0.000 A 
ATOM     28  C   UNL     1      -3.268  -2.558  25.270  0.00  0.00    +0.003 A 
ATOM     29  C   UNL     1      -2.567  -2.140  25.390  0.00  0.00    +0.037 A 
ENDBRANCH  23  24
ENDBRANCH  22  23
ENDBRANCH  15  19
BRANCH   6   5
ATOM      5  C   UNL     1      -4.068   3.749  25.296  0.00  0.00    +0.097 C 
BRANCH   5   4
ATOM      4  C   UNL     1      -4.860   3.584  25.129  0.00  0.00    +0.124 C 
BRANCH   4   2
ATOM      1  O   UNL     1      -5.875   3.579  26.135  0.00  0.00    -0.246 OA
ATOM      2  C   UNL     1      -5.458   3.973  25.542  0.00  0.00    +0.365 C 
ATOM      3  O   UNL     1      -5.641   4.757  25.363  0.00  0.00    -0.246 OA
ENDBRANCH   4   2
ENDBRANCH   5   4
ENDBRANCH   6   5
TORSDOF 6
ENDMDL
MODEL 3
REMARK VINA RESULT:     -10.6      1.681      2.247
REMARK  Name = 
REMARK  6 active torsions:
REMARK  status: ('A' for Active; 'I' for Inactive)
REMARK    1  A    between atoms: C_2  and  C_4
REMARK    2  A    between atoms: C_4  and  C_5
REMARK    3  A    between atoms: C_5  and  C_6
REMARK    4  A    between atoms: N_15  and  C_19
REMARK    5  A    between atoms: C_22  and  O_23
REMARK    6  A    between atoms: O_23  and  C_24
REMARK                            x       y       z     vdW  Elec       q    Type
REMARK                         _______ _______ _______ _____ _____    ______ ____
ROOT
ATOM      6  C   UNL     1      -0.949   2.550  25.867  0.00  0.00    +0.227 C 
ATOM      7  O   UNL     1      -1.083   1.736  25.862  0.00  0.00    -0.275 OA
ATOM      8  N   UNL     1      -1.494   3.060  25.515  0.00  0.00    -0.272 N 
ATOM      9  C   UNL     1      -1.435   3.882  25.477  0.00  0.00    +0.096 C 
ATOM     10  C   UNL     1      -2.098   4.168  25.077  0.00  0.00    +0.045 C 
ATOM     11  C   UNL     1      -2.567   3.522  24.869  0.00  0.00    +0.126 C 
ATOM     12  N   UNL     1      -3.286   3.468  24.468  0.00  0.00    -0.187 NA
ATOM     13  C   UNL     1      -3.632   2.732  24.337  0.00  0.00    +0.333 C 
ATOM     14  O   UNL     1      -4.351   2.678  23.936  0.00  0.00    -0.250 OA
ATOM     15  N   UNL     1      -3.259   2.047  24.607  0.00  0.00    -0.190 N 
ATOM     16  C   UNL     1      -2.540   2.100  25.009  0.00  0.00    +0.256 C 
ATOM     17  O   UNL     1      -2.167   1.415  25.279  0.00  0.00    -0.272 OA
ATOM     18  C   UNL     1      -2.194   2.838  25.139  0.00  0.00    +0.173 C 
ENDROOT
BRANCH  15  19
ATOM     19  C   UNL     1      -3.605   1.309  24.477  0.00  0.00    +0.062 A 
ATOM     20  C   UNL     1      -3.393   0.867  23.813  0.00  0.00    +0.018 A 
ATOM     21  C   UNL     1      -3.739   0.129  23.682  0.00  0.00    +0.039 A 
ATOM     22  C   UNL     1      -4.296  -0.166  24.215  0.00  0.00    +0.145 A 
ATOM     30  C   UNL     1      -4.507   0.277  24.878  0.00  0.00    +0.039 A 
ATOM     31  C   UNL     1      -4.162   1.014  25.009  0.00  0.00    +0.018 A 
BRANCH  22  23
ATOM     23  O   UNL     1      -4.641  -0.903  24.084  0.00  0.00    -0.453 OA
BRANCH  23  24
ATOM     24  C   UNL     1      -4.222  -1.593  24.258  0.00  0.00    +0.145 A 
ATOM     25  C   UNL     1      -4.118  -2.170  23.677  0.00  0.00    +0.037 A 
ATOM     26  C   UNL     1      -3.700  -2.859  23.850  0.00  0.00    +0.003 A 
ATOM     27  C   UNL     1      -3.385  -2.972  24.605  0.00  0.00    +0.000 A 
ATOM     28  C   UNL     1      -3.489  -2.395  25.186  0.00  0.00    +0.003 A 
ATOM     29  C   UNL     1      -3.908  -1.705  25.012  0.00  0.00    +0.037 A 
ENDBRANCH  23  24
ENDBRANCH  22  23
ENDBRANCH  15  19
BRANCH   6   5
ATOM      5  C   UNL     1      -0.271   2.855  26.223  0.00  0.00    +0.097 C 
BRANCH   5   4
ATOM      4  C   UNL     1       0.265   2.347  26.593  0.00  0.00    +0.124 C 
BRANCH   4   2
ATOM      1  O   UNL     1       1.356   3.108  27.113  0.00  0.00    -0.246 OA
ATOM      2  C   UNL     1       0.709   2.612  27.235  0.00  0.00    +0.365 C 
ATOM      3  O   UNL     1       0.506   2.380  28.001  0.00  0.00    -0.246 OA
ENDBRANCH   4   2
ENDBRANCH   5   4
ENDBRANCH   6   5
TORSDOF 6
ENDMDL
MODEL 4
REMARK VINA RESULT:     -10.6      2.801      5.011
REMARK  Name = 
REMARK  6 active torsions:
REMARK  status: ('A' for Active; 'I' for Inactive)
REMARK    1  A    between atoms: C_2  and  C_4
REMARK    2  A    between atoms: C_4  and  C_5
REMARK    3  A    between atoms: C_5  and  C_6
REMARK    4  A    between atoms: N_15  and  C_19
REMARK    5  A    between atoms: C_22  and  O_23
REMARK    6  A    between atoms: O_23  and  C_24
REMARK                            x       y       z     vdW  Elec       q    Type
REMARK                         _______ _______ _______ _____ _____    ______ ____
ROOT
ATOM      6  C   UNL     1       0.276  -0.104  23.520  0.00  0.00    +0.227 C 
ATOM      7  O   UNL     1      -0.131   0.550  23.224  0.00  0.00    -0.275 OA
ATOM      8  N   UNL     1      -0.074  -0.582  24.095  0.00  0.00    -0.272 N 
ATOM      9  C   UNL     1       0.263  -1.251  24.440  0.00  0.00    +0.096 C 
ATOM     10  C   UNL     1      -0.277  -1.558  24.984  0.00  0.00    +0.045 C 
ATOM     11  C   UNL     1      -0.948  -1.078  24.973  0.00  0.00    +0.126 C 
ATOM     12  N   UNL     1      -1.658  -1.112  25.393  0.00  0.00    -0.187 NA
ATOM     13  C   UNL     1      -2.241  -0.545  25.264  0.00  0.00    +0.333 C 
ATOM     14  O   UNL     1      -2.951  -0.578  25.684  0.00  0.00    -0.250 OA
ATOM     15  N   UNL     1      -2.116   0.058  24.714  0.00  0.00    -0.190 N 
ATOM     16  C   UNL     1      -1.407   0.093  24.294  0.00  0.00    +0.256 C 
ATOM     17  O   UNL     1      -1.282   0.696  23.745  0.00  0.00    -0.272 OA
ATOM     18  C   UNL     1      -0.823  -0.476  24.424  0.00  0.00    +0.173 C 
ENDROOT
BRANCH  15  19
ATOM     19  C   UNL     1      -2.700   0.627  24.585  0.00  0.00    +0.062 A 
ATOM     20  C   UNL     1      -3.339   0.456  24.092  0.00  0.00    +0.018 A 
ATOM     21  C   UNL     1      -3.923   1.025  23.962  0.00  0.00    +0.039 A 
ATOM     22  C   UNL     1      -3.868   1.763  24.326  0.00  0.00    +0.145 A 
ATOM     30  C   UNL     1      -3.228   1.933  24.818  0.00  0.00    +0.039 A 
ATOM     31  C   UNL     1      -2.645   1.366  24.948  0.00  0.00    +0.018 A 
BRANCH  22  23
ATOM     23  O   UNL     1      -4.452   2.331  24.196  0.00  0.00    -0.453 OA
BRANCH  23  24
ATOM     24  C   UNL     1      -5.027   2.472  24.771  0.00  0.00    +0.145 A 
ATOM     25  C   UNL     1      -4.972   3.139  25.253  0.00  0.00    +0.037 A 
ATOM     26  C   UNL     1      -5.546   3.280  25.829  0.00  0.00    +0.003 A 
ATOM     27  C   UNL     1      -6.175   2.754  25.921  0.00  0.00    +0.000 A 
ATOM     28  C   UNL     1      -6.230   2.087  25.439  0.00  0.00    +0.003 A 
ATOM     29  C   UNL     1      -5.655   1.946  24.864  0.00  0.00    +0.037 A 
ENDBRANCH  23  24
ENDBRANCH  22  23
ENDBRANCH  15  19
BRANCH   6   5
ATOM      5  C   UNL     1       1.032  -0.281  23.242  0.00  0.00    +0.097 C 
BRANCH   5   4
ATOM      4  C   UNL     1       1.431   0.258  22.761  0.00  0.00    +0.124 C 
BRANCH   4   2
ATOM      1  O   UNL     1       2.107  -0.294  21.630  0.00  0.00    -0.246 OA
ATOM      2  C   UNL     1       2.131   0.037  22.385  0.00  0.00    +0.365 C 
ATOM      3  O   UNL     1       2.855   0.147  22.764  0.00  0.00    -0.246 OA
ENDBRANCH   4   2
ENDBRANCH   5   4
ENDBRANCH   6   5
TORSDOF 6
ENDMDL
MODEL 5
REMARK VINA RESULT:     -10.1      3.101      3.927
REMARK  Name = 
REMARK  6 active torsions:
REMARK  status: ('A' for Active; 'I' for Inactive)
REMARK    1  A    between atoms: C_2  and  C_4
REMARK    2  A    between atoms: C_4  and  C_5
REMARK    3  A    between atoms: C_5  and  C_6
REMARK    4  A    between atoms: N_15  and  C_19
REMARK    5  A    between atoms: C_22  and  O_23
REMARK    6  A    between atoms: O_23  and  C_24
REMARK                            x       y       z     vdW  Elec       q    Type
REMARK                         _______ _______ _______ _____ _____    ______ ____
ROOT
ATOM      6  C   UNL     1       0.828   0.760  23.556  0.00  0.00    +0.227 C 
ATOM      7  O   UNL     1       0.372   0.075  23.514  0.00  0.00    -0.275 OA
ATOM      8  N   UNL     1       0.527   1.435  23.924  0.00  0.00    -0.272 N 
ATOM      9  C   UNL     1       0.917   2.157  24.007  0.00  0.00    +0.096 C 
ATOM     10  C   UNL     1       0.414   2.674  24.407  0.00  0.00    +0.045 C 
ATOM     11  C   UNL     1      -0.287   2.272  24.571  0.00  0.00    +0.126 C 
ATOM     12  N   UNL     1      -0.980   2.503  24.954  0.00  0.00    -0.187 NA
ATOM     13  C   UNL     1      -1.603   1.969  25.038  0.00  0.00    +0.333 C 
ATOM     14  O   UNL     1      -2.297   2.201  25.421  0.00  0.00    -0.250 OA
ATOM     15  N   UNL     1      -1.533   1.204  24.739  0.00  0.00    -0.190 N 
ATOM     16  C   UNL     1      -0.840   0.971  24.356  0.00  0.00    +0.256 C 
ATOM     17  O   UNL     1      -0.771   0.206  24.057  0.00  0.00    -0.272 OA
ATOM     18  C   UNL     1      -0.217   1.506  24.272  0.00  0.00    +0.173 C 
ENDROOT
BRANCH  15  19
ATOM     19  C   UNL     1      -2.157   0.669  24.823  0.00  0.00    +0.062 A 
ATOM     20  C   UNL     1      -2.163   0.139  25.455  0.00  0.00    +0.018 A 
ATOM     21  C   UNL     1      -2.786  -0.396  25.539  0.00  0.00    +0.039 A 
ATOM     22  C   UNL     1      -3.403  -0.399  24.991  0.00  0.00    +0.145 A 
ATOM     30  C   UNL     1      -3.396   0.131  24.359  0.00  0.00    +0.039 A 
ATOM     31  C   UNL     1      -2.774   0.665  24.275  0.00  0.00    +0.018 A 
BRANCH  22  23
ATOM     23  O   UNL     1      -4.025  -0.933  25.075  0.00  0.00    -0.453 OA
BRANCH  23  24
ATOM     24  C   UNL     1      -3.989  -1.672  24.708  0.00  0.00    +0.145 A 
ATOM     25  C   UNL     1      -4.352  -1.786  23.976  0.00  0.00    +0.037 A 
ATOM     26  C   UNL     1      -4.317  -2.523  23.608  0.00  0.00    +0.003 A 
ATOM     27  C   UNL     1      -3.918  -3.147  23.973  0.00  0.00    +0.000 A 
ATOM     28  C   UNL     1      -3.555  -3.033  24.705  0.00  0.00    +0.003 A 
ATOM     29  C   UNL     1      -3.591  -2.295  25.072  0.00  0.00    +0.037 A 
ENDBRANCH  23  24
ENDBRANCH  22  23
ENDBRANCH  15  19
BRANCH   6   5
ATOM      5  C   UNL     1       1.586   0.772  23.230  0.00  0.00    +0.097 C 
BRANCH   5   4
ATOM      4  C   UNL     1       1.896   0.091  22.881  0.00  0.00    +0.124 C 
BRANCH   4   2
ATOM      1  O   UNL     1       2.601   0.083  21.639  0.00  0.00    -0.246 OA
ATOM      2  C   UNL     1       2.605   0.128  22.462  0.00  0.00    +0.365 C 
ATOM      3  O   UNL     1       3.319   0.211  22.867  0.00  0.00    -0.246 OA
ENDBRANCH   4   2
ENDBRANCH   5   4
ENDBRANCH   6   5
TORSDOF 6
ENDMDL
MODEL 6
REMARK VINA RESULT:      -9.9      2.141      2.977
REMARK  Name = 
REMARK  6 active torsions:
REMARK  status: ('A' for Active; 'I' for Inactive)
REMARK    1  A    between atoms: C_2  and  C_4
REMARK    2  A    between atoms: C_4  and  C_5
REMARK    3  A    between atoms: C_5  and  C_6
REMARK    4  A    between atoms: N_15  and  C_19
REMARK    5  A    between atoms: C_22  and  O_23
REMARK    6  A    between atoms: O_23  and  C_24
REMARK                            x       y       z     vdW  Elec       q    Type
REMARK                         _______ _______ _______ _____ _____    ______ ____
ROOT
ATOM      6  C   UNL     1      -1.071   3.330  24.978  0.00  0.00    +0.227 C 
ATOM      7  O   UNL     1      -1.814   3.050  25.200  0.00  0.00    -0.275 OA
ATOM      8  N   UNL     1      -0.496   2.805  24.703  0.00  0.00    -0.272 N 
ATOM      9  C   UNL     1       0.267   3.004  24.463  0.00  0.00    +0.096 C 
ATOM     10  C   UNL     1       0.651   2.310  24.232  0.00  0.00    +0.045 C 
ATOM     11  C   UNL     1       0.124   1.684  24.331  0.00  0.00    +0.126 C 
ATOM     12  N   UNL     1       0.198   0.873  24.194  0.00  0.00    -0.187 NA
ATOM     13  C   UNL     1      -0.436   0.369  24.347  0.00  0.00    +0.333 C 
ATOM     14  O   UNL     1      -0.362  -0.441  24.210  0.00  0.00    -0.250 OA
ATOM     15  N   UNL     1      -1.145   0.675  24.639  0.00  0.00    -0.190 N 
ATOM     16  C   UNL     1      -1.220   1.485  24.776  0.00  0.00    +0.256 C 
ATOM     17  O   UNL     1      -1.928   1.790  25.067  0.00  0.00    -0.272 OA
ATOM     18  C   UNL     1      -0.585   1.989  24.622  0.00  0.00    +0.173 C 
ENDROOT
BRANCH  15  19
ATOM     19  C   UNL     1      -1.780   0.170  24.793  0.00  0.00    +0.062 A 
ATOM     20  C   UNL     1      -1.768  -0.316  25.459  0.00  0.00    +0.018 A 
ATOM     21  C   UNL     1      -2.403  -0.821  25.613  0.00  0.00    +0.039 A 
ATOM     22  C   UNL     1      -3.049  -0.838  25.100  0.00  0.00    +0.145 A 
ATOM     30  C   UNL     1      -3.060  -0.352  24.434  0.00  0.00    +0.039 A 
ATOM     31  C   UNL     1      -2.426   0.152  24.280  0.00  0.00    +0.018 A 
BRANCH  22  23
ATOM     23  O   UNL     1      -3.683  -1.342  25.254  0.00  0.00    -0.453 OA
BRANCH  23  24
ATOM     24  C   UNL     1      -3.808  -2.006  24.781  0.00  0.00    +0.145 A 
ATOM     25  C   UNL     1      -4.304  -1.956  24.123  0.00  0.00    +0.037 A 
ATOM     26  C   UNL     1      -4.429  -2.619  23.649  0.00  0.00    +0.003 A 
ATOM     27  C   UNL     1      -4.058  -3.334  23.832  0.00  0.00    +0.000 A 
ATOM     28  C   UNL     1      -3.562  -3.384  24.490  0.00  0.00    +0.003 A 
ATOM     29  C   UNL     1      -3.437  -2.720  24.964  0.00  0.00    +0.037 A 
ENDBRANCH  23  24
ENDBRANCH  22  23
ENDBRANCH  15  19
BRANCH   6   5
ATOM      5  C   UNL     1      -0.901   4.136  25.029  0.00  0.00    +0.097 C 
BRANCH   5   4
ATOM      4  C   UNL     1      -1.516   4.685  25.066  0.00  0.00    +0.124 C 
BRANCH   4   2
ATOM      1  O   UNL     1      -1.901   6.032  25.347  0.00  0.00    -0.246 OA
ATOM      2  C   UNL     1      -1.350   5.493  25.055  0.00  0.00    +0.365 C 
ATOM      3  O   UNL     1      -0.631   5.762  24.751  0.00  0.00    -0.246 OA
ENDBRANCH   4   2
ENDBRANCH   5   4
ENDBRANCH   6   5
TORSDOF 6
ENDMDL
MODEL 7
REMARK VINA RESULT:      -9.9      2.084      5.912
REMARK  Name = 
REMARK  6 active torsions:
REMARK  status: ('A' for Active; 'I' for Inactive)
REMARK    1  A    between atoms: C_2  and  C_4
REMARK    2  A    between atoms: C_4  and  C_5
REMARK    3  A    between atoms: C_5  and  C_6
REMARK    4  A    between atoms: N_15  and  C_19
REMARK    5  A    between atoms: C_22  and  O_23
REMARK    6  A    between atoms: O_23  and  C_24
REMARK                            x       y       z     vdW  Elec       q    Type
REMARK                         _______ _______ _______ _____ _____    ______ ____
ROOT
ATOM      6  C   UNL     1      -2.202  -1.325  24.686  0.00  0.00    +0.227 C 
ATOM      7  O   UNL     1      -2.703  -0.695  24.868  0.00  0.00    -0.275 OA
ATOM      8  N   UNL     1      -1.411  -1.182  24.496  0.00  0.00    -0.272 N 
ATOM      9  C   UNL     1      -0.848  -1.753  24.304  0.00  0.00    +0.096 C 
ATOM     10  C   UNL     1      -0.134  -1.367  24.155  0.00  0.00    +0.045 C 
ATOM     11  C   UNL     1      -0.256  -0.558  24.256  0.00  0.00    +0.126 C 
ATOM     12  N   UNL     1       0.249   0.091  24.183  0.00  0.00    -0.187 NA
ATOM     13  C   UNL     1      -0.035   0.852  24.322  0.00  0.00    +0.333 C 
ATOM     14  O   UNL     1       0.470   1.501  24.249  0.00  0.00    -0.250 OA
ATOM     15  N   UNL     1      -0.824   0.967  24.533  0.00  0.00    -0.190 N 
ATOM     16  C   UNL     1      -1.330   0.319  24.606  0.00  0.00    +0.256 C 
ATOM     17  O   UNL     1      -2.119   0.433  24.817  0.00  0.00    -0.272 OA
ATOM     18  C   UNL     1      -1.046  -0.444  24.467  0.00  0.00    +0.173 C 
ENDROOT
BRANCH  15  19
ATOM     19  C   UNL     1      -1.108   1.729  24.671  0.00  0.00    +0.062 A 
ATOM     20  C   UNL     1      -1.069   2.052  25.429  0.00  0.00    +0.018 A 
ATOM     21  C   UNL     1      -1.353   2.815  25.567  0.00  0.00    +0.039 A 
ATOM     22  C   UNL     1      -1.676   3.254  24.948  0.00  0.00    +0.145 A 
ATOM     30  C   UNL     1      -1.715   2.930  24.190  0.00  0.00    +0.039 A 
ATOM     31  C   UNL     1      -1.431   2.168  24.051  0.00  0.00    +0.018 A 
BRANCH  22  23
ATOM     23  O   UNL     1      -1.960   4.015  25.086  0.00  0.00    -0.453 OA
BRANCH  23  24
ATOM     24  C   UNL     1      -2.731   4.126  25.359  0.00  0.00    +0.145 A 
ATOM     25  C   UNL     1      -2.870   4.255  26.162  0.00  0.00    +0.037 A 
ATOM     26  C   UNL     1      -3.640   4.365  26.435  0.00  0.00    +0.003 A 
ATOM     27  C   UNL     1      -4.272   4.347  25.904  0.00  0.00    +0.000 A 
ATOM     28  C   UNL     1      -4.134   4.219  25.101  0.00  0.00    +0.003 A 
ATOM     29  C   UNL     1      -3.362   4.108  24.829  0.00  0.00    +0.037 A 
ENDBRANCH  23  24
ENDBRANCH  22  23
ENDBRANCH  15  19
BRANCH   6   5
ATOM      5  C   UNL     1      -2.491  -2.098  24.692  0.00  0.00    +0.097 C 
BRANCH   5   4
ATOM      4  C   UNL     1      -3.294  -2.236  24.824  0.00  0.00    +0.124 C 
BRANCH   4   2
ATOM      1  O   UNL     1      -4.060  -3.037  23.922  0.00  0.00    -0.246 OA
ATOM      2  C   UNL     1      -3.626  -2.963  24.619  0.00  0.00    +0.365 C 
ATOM      3  O   UNL     1      -3.523  -3.617  25.112  0.00  0.00    -0.246 OA
ENDBRANCH   4   2
ENDBRANCH   5   4
ENDBRANCH   6   5
TORSDOF 6
ENDMDL
