REMARK  Name = 
REMARK  6 active torsions:
REMARK  status: ('A' for Active; 'I' for Inactive)
REMARK    1  A    between atoms: C_2  and  C_4
REMARK    2  A    between atoms: C_6  and  C_7
REMARK    3  A    between atoms: C_7  and  C_8
REMARK    4  A    between atoms: C_13  and  C_14
REMARK    5  A    between atoms: C_14  and  C_15
REMARK    6  A    between atoms: C_20  and  N_23
REMARK                            x       y       z     vdW  Elec       q    Type
REMARK                         _______ _______ _______ _____ _____    ______ ____
ROOT
ATOM     15  C   UNL     1       0.119  -4.504   0.000  0.00  0.00    +0.226 C 
ATOM     16  O   UNL     1      -0.688  -4.675   0.000  0.00  0.00    -0.275 OA
ATOM     17  N   UNL     1       0.374  -3.719   0.000  0.00  0.00    -0.279 N 
ATOM     18  C   UNL     1      -0.178  -3.106   0.000  0.00  0.00    +0.095 C 
ATOM     19  C   UNL     1       0.077  -2.321   0.000  0.00  0.00    +0.044 C 
ATOM     20  C   UNL     1       0.884  -2.150   0.000  0.00  0.00    +0.093 C 
ATOM     21  C   UNL     1       1.436  -2.763   0.000  0.00  0.00    +0.044 C 
ATOM     22  C   UNL     1       1.181  -3.548   0.000  0.00  0.00    +0.095 C 
ENDROOT
BRANCH  20  23
ATOM     23  N   UNL     1       1.139  -1.365   0.000  0.00  0.00    -0.280 N 
ATOM     24  C   UNL     1       0.654  -0.698   0.000  0.00  0.00    +0.350 A 
ATOM     25  O   UNL     1      -0.171  -0.698   0.000  0.00  0.00    -0.244 OA
ATOM     26  N   UNL     1       1.139  -0.030   0.000  0.00  0.00    -0.191 NA
ATOM     27  C   UNL     1       1.923  -0.285   0.000  0.00  0.00    +0.102 A 
ATOM     28  C   UNL     1       2.638   0.127   0.000  0.00  0.00    +0.021 A 
ATOM     29  C   UNL     1       3.352  -0.285   0.000  0.00  0.00    +0.002 A 
ATOM     30  C   UNL     1       3.352  -1.110   0.000  0.00  0.00    +0.002 A 
ATOM     31  C   UNL     1       2.638  -1.523   0.000  0.00  0.00    +0.019 A 
ATOM     32  C   UNL     1       1.923  -1.110   0.000  0.00  0.00    +0.082 A 
ENDBRANCH  20  23
BRANCH  15  14
ATOM     14  C   UNL     1       0.671  -5.117   0.000  0.00  0.00    +0.085 C 
BRANCH  14  13
ATOM      8  C   UNL     1       0.968  -6.515   0.000  0.00  0.00    +0.024 C 
ATOM      9  C   UNL     1       0.713  -7.299   0.000  0.00  0.00    +0.089 C 
ATOM     10  N   UNL     1      -0.094  -7.471   0.000  0.00  0.00    -0.218 NA
ATOM     11  C   UNL     1      -0.646  -6.858   0.000  0.00  0.00    +0.089 C 
ATOM     12  C   UNL     1      -0.391  -6.073   0.000  0.00  0.00    +0.019 C 
ATOM     13  C   UNL     1       0.416  -5.902   0.000  0.00  0.00    +0.012 C 
BRANCH   8   7
ATOM      7  C   UNL     1       1.775  -6.343   0.000  0.00  0.00    +0.051 C 
BRANCH   7   6
ATOM      4  C   UNL     1       2.870  -8.176   0.000  0.00  0.00    +0.256 A 
ATOM      5  C   UNL     1       2.156  -7.763   0.000  0.00  0.00    +0.065 A 
ATOM      6  C   UNL     1       2.327  -6.956   0.000  0.00  0.00    +0.101 A 
ATOM     33  N   UNL     1       3.148  -6.870   0.000  0.00  0.00    -0.081 NA
ATOM     34  O   UNL     1       3.483  -7.624   0.000  0.00  0.00    -0.347 OA
BRANCH   4   2
ATOM      1  O   UNL     1       3.710  -9.332   0.000  0.00  0.00    -0.237 OA
ATOM      2  C   UNL     1       2.956  -8.996   0.000  0.00  0.00    +0.424 C 
ATOM      3  O   UNL     1       2.289  -9.481   0.000  0.00  0.00    -0.237 OA
ENDBRANCH   4   2
ENDBRANCH   7   6
ENDBRANCH   8   7
ENDBRANCH  14  13
ENDBRANCH  15  14
TORSDOF 6
