MODEL 1
REMARK VINA RESULT:     -11.0      0.000      0.000
REMARK  Name = 
REMARK  5 active torsions:
REMARK  status: ('A' for Active; 'I' for Inactive)
REMARK    1  A    between atoms: C_2  and  C_26
REMARK    2  A    between atoms: N_3  and  C_4
REMARK    3  A    between atoms: C_4  and  C_5
REMARK    4  A    between atoms: C_12  and  C_13
REMARK    5  A    between atoms: C_13  and  N_14
REMARK                            x       y       z     vdW  Elec       q    Type
REMARK                         _______ _______ _______ _____ _____    ______ ____
ROOT
ATOM      5  C   UNL     1       0.421  -0.394  23.526  0.00  0.00    +0.079 C 
ATOM      6  C   UNL     1       0.172  -0.903  24.059  0.00  0.00    +0.018 C 
ATOM      7  C   UNL     1      -0.495  -0.822  24.512  0.00  0.00    +0.005 C 
ATOM      8  C   UNL     1      -0.608  -1.518  25.066  0.00  0.00    +0.017 C 
ATOM      9  C   UNL     1      -0.308  -1.169  24.603  0.00  0.00    +0.072 C 
ATOM     10  N   UNL     1      -0.256  -0.320  23.991  0.00  0.00    -0.272 NA
ATOM     11  C   UNL     1      -0.895   0.330  24.040  0.00  0.00    +0.073 C 
ATOM     12  C   UNL     1      -1.106  -0.194  24.553  0.00  0.00    +0.032 C 
ENDROOT
BRANCH   5   4
ATOM      4  C   UNL     1       0.949  -0.133  22.949  0.00  0.00    +0.131 C 
BRANCH   4   3
ATOM      1  O   UNL     1       2.089  -0.025  21.761  0.00  0.00    -0.268 OA
ATOM      2  C   UNL     1       2.306   0.070  22.552  0.00  0.00    +0.265 C 
ATOM      3  N   UNL     1       1.736   0.016  23.145  0.00  0.00    -0.200 NA
BRANCH   2  26
ATOM     26  C   UNL     1       3.094   0.219  22.749  0.00  0.00    +0.058 A 
ATOM     27  C   UNL     1       3.427   0.956  22.584  0.00  0.00    +0.008 A 
ATOM     28  C   UNL     1       4.215   1.105  22.780  0.00  0.00    +0.040 A 
ATOM     29  C   UNL     1       4.668   0.518  23.142  0.00  0.00    +0.176 A 
ATOM     30  O   UNL     1       5.453   0.505  23.397  0.00  0.00    -0.435 OA
ATOM     31  C   UNL     1       5.603  -0.239  23.720  0.00  0.00    +0.429 C 
ATOM     32  O   UNL     1       4.912  -0.686  23.664  0.00  0.00    -0.435 OA
ATOM     33  C   UNL     1       4.334  -0.218  23.306  0.00  0.00    +0.177 A 
ATOM     34  C   UNL     1       3.547  -0.367  23.110  0.00  0.00    +0.045 A 
ENDBRANCH   2  26
ENDBRANCH   4   3
ENDBRANCH   5   4
BRANCH  12  13
ATOM     13  C   UNL     1      -1.768  -0.174  25.044  0.00  0.00    +0.074 C 
BRANCH  13  14
ATOM     14  N   UNL     1      -2.274   0.479  25.028  0.00  0.00    -0.270 NA
ATOM     15  C   UNL     1      -2.038   1.192  25.368  0.00  0.00    +0.094 C 
ATOM     16  C   UNL     1      -2.542   1.844  25.353  0.00  0.00    +0.109 C 
ATOM     17  N   UNL     1      -3.284   1.784  24.998  0.00  0.00    -0.290 N 
ATOM     18  C   UNL     1      -3.521   1.070  24.657  0.00  0.00    +0.109 C 
ATOM     19  C   UNL     1      -3.015   0.417  24.672  0.00  0.00    +0.094 C 
ATOM     20  C   UNL     1      -3.789   2.435  24.982  0.00  0.00    +0.132 A 
ATOM     21  N   UNL     1      -3.553   3.149  25.322  0.00  0.00    -0.229 NA
ATOM     22  C   UNL     1      -4.057   3.800  25.307  0.00  0.00    +0.100 A 
ATOM     23  C   UNL     1      -4.799   3.740  24.951  0.00  0.00    +0.021 A 
ATOM     24  C   UNL     1      -5.036   3.026  24.611  0.00  0.00    +0.004 A 
ATOM     25  C   UNL     1      -4.531   2.375  24.626  0.00  0.00    +0.034 A 
ENDBRANCH  13  14
ENDBRANCH  12  13
TORSDOF 5
ENDMDL
MODEL 2
REMARK VINA RESULT:     -10.0      1.754      2.762
REMARK  Name = 
REMARK  5 active torsions:
REMARK  status: ('A' for Active; 'I' for Inactive)
REMARK    1  A    between atoms: C_2  and  C_26
REMARK    2  A    between atoms: N_3  and  C_4
REMARK    3  A    between atoms: C_4  and  C_5
REMARK    4  A    between atoms: C_12  and  C_13
REMARK    5  A    between atoms: C_13  and  N_14
REMARK                            x       y       z     vdW  Elec       q    Type
REMARK                         _______ _______ _______ _____ _____    ______ ____
ROOT
ATOM      5  C   UNL     1       1.065   1.300  23.662  0.00  0.00    +0.079 C 
ATOM      6  C   UNL     1       0.775   1.757  24.220  0.00  0.00    +0.018 C 
ATOM      7  C   UNL     1       0.080   1.634  24.617  0.00  0.00    +0.005 C 
ATOM      8  C   UNL     1      -0.077   2.277  25.223  0.00  0.00    +0.017 C 
ATOM      9  C   UNL     1       0.258   1.972  24.752  0.00  0.00    +0.072 C 
ATOM     10  N   UNL     1       0.358   1.181  24.072  0.00  0.00    -0.272 NA
ATOM     11  C   UNL     1      -0.277   0.527  24.017  0.00  0.00    +0.073 C 
ATOM     12  C   UNL     1      -0.526   1.003  24.560  0.00  0.00    +0.032 C 
ENDROOT
BRANCH   5   4
ATOM      4  C   UNL     1       1.633   1.093  23.101  0.00  0.00    +0.131 C 
BRANCH   4   3
ATOM      1  O   UNL     1       2.678   0.357  22.057  0.00  0.00    -0.268 OA
ATOM      2  C   UNL     1       2.929   0.566  22.815  0.00  0.00    +0.265 C 
ATOM      3  N   UNL     1       2.408   0.934  23.337  0.00  0.00    -0.200 NA
BRANCH   2  26
ATOM     26  C   UNL     1       3.705   0.407  23.050  0.00  0.00    +0.058 A 
ATOM     27  C   UNL     1       4.299   0.963  22.914  0.00  0.00    +0.008 A 
ATOM     28  C   UNL     1       5.074   0.804  23.150  0.00  0.00    +0.040 A 
ATOM     29  C   UNL     1       5.254   0.089  23.521  0.00  0.00    +0.176 A 
ATOM     30  O   UNL     1       5.962  -0.219  23.812  0.00  0.00    -0.435 OA
ATOM     31  C   UNL     1       5.805  -0.964  24.127  0.00  0.00    +0.429 C 
ATOM     32  O   UNL     1       5.000  -1.117  24.031  0.00  0.00    -0.435 OA
ATOM     33  C   UNL     1       4.659  -0.466  23.656  0.00  0.00    +0.177 A 
ATOM     34  C   UNL     1       3.885  -0.307  23.421  0.00  0.00    +0.045 A 
ENDBRANCH   2  26
ENDBRANCH   4   3
ENDBRANCH   5   4
BRANCH  12  13
ATOM     13  C   UNL     1      -1.221   0.937  25.001  0.00  0.00    +0.074 C 
BRANCH  13  14
ATOM     14  N   UNL     1      -1.741   0.312  24.859  0.00  0.00    -0.270 NA
ATOM     15  C   UNL     1      -1.601  -0.427  25.198  0.00  0.00    +0.094 C 
ATOM     16  C   UNL     1      -2.121  -1.051  25.056  0.00  0.00    +0.109 C 
ATOM     17  N   UNL     1      -2.782  -0.937  24.576  0.00  0.00    -0.290 N 
ATOM     18  C   UNL     1      -2.922  -0.198  24.236  0.00  0.00    +0.109 C 
ATOM     19  C   UNL     1      -2.402   0.427  24.378  0.00  0.00    +0.094 C 
ATOM     20  C   UNL     1      -3.302  -1.561  24.434  0.00  0.00    +0.132 A 
ATOM     21  N   UNL     1      -3.162  -2.300  24.773  0.00  0.00    -0.229 NA
ATOM     22  C   UNL     1      -3.682  -2.924  24.632  0.00  0.00    +0.100 A 
ATOM     23  C   UNL     1      -4.343  -2.810  24.151  0.00  0.00    +0.021 A 
ATOM     24  C   UNL     1      -4.483  -2.071  23.812  0.00  0.00    +0.004 A 
ATOM     25  C   UNL     1      -3.963  -1.447  23.954  0.00  0.00    +0.034 A 
ENDBRANCH  13  14
ENDBRANCH  12  13
TORSDOF 5
ENDMDL
MODEL 3
REMARK VINA RESULT:      -9.7      3.692      5.997
REMARK  Name = 
REMARK  5 active torsions:
REMARK  status: ('A' for Active; 'I' for Inactive)
REMARK    1  A    between atoms: C_2  and  C_26
REMARK    2  A    between atoms: N_3  and  C_4
REMARK    3  A    between atoms: C_4  and  C_5
REMARK    4  A    between atoms: C_12  and  C_13
REMARK    5  A    between atoms: C_13  and  N_14
REMARK                            x       y       z     vdW  Elec       q    Type
REMARK                         _______ _______ _______ _____ _____    ______ ____
ROOT
ATOM      5  C   UNL     1      -4.816   3.029  25.577  0.00  0.00    +0.079 C 
ATOM      6  C   UNL     1      -5.486   2.671  25.409  0.00  0.00    +0.018 C 
ATOM      7  C   UNL     1      -5.563   1.897  25.184  0.00  0.00    +0.005 C 
ATOM      8  C   UNL     1      -6.419   1.675  25.037  0.00  0.00    +0.017 C 
ATOM      9  C   UNL     1      -5.927   2.073  25.198  0.00  0.00    +0.072 C 
ATOM     10  N   UNL     1      -4.903   2.242  25.346  0.00  0.00    -0.272 NA
ATOM     11  C   UNL     1      -4.296   1.573  25.218  0.00  0.00    +0.073 C 
ATOM     12  C   UNL     1      -4.974   1.258  25.063  0.00  0.00    +0.032 C 
ENDROOT
BRANCH   5   4
ATOM      4  C   UNL     1      -4.369   3.683  25.805  0.00  0.00    +0.131 C 
BRANCH   4   3
ATOM      1  O   UNL     1      -3.209   4.515  26.633  0.00  0.00    -0.268 OA
ATOM      2  C   UNL     1      -3.054   4.238  25.872  0.00  0.00    +0.265 C 
ATOM      3  N   UNL     1      -3.633   3.822  25.458  0.00  0.00    -0.200 NA
BRANCH   2  26
ATOM     26  C   UNL     1      -2.317   4.376  25.524  0.00  0.00    +0.058 A 
ATOM     27  C   UNL     1      -2.072   5.150  25.373  0.00  0.00    +0.008 A 
ATOM     28  C   UNL     1      -1.337   5.288  25.026  0.00  0.00    +0.040 A 
ATOM     29  C   UNL     1      -0.846   4.653  24.830  0.00  0.00    +0.176 A 
ATOM     30  O   UNL     1      -0.098   4.620  24.485  0.00  0.00    -0.435 OA
ATOM     31  C   UNL     1       0.119   3.827  24.423  0.00  0.00    +0.429 C 
ATOM     32  O   UNL     1      -0.496   3.370  24.729  0.00  0.00    -0.435 OA
ATOM     33  C   UNL     1      -1.093   3.881  24.981  0.00  0.00    +0.177 A 
ATOM     34  C   UNL     1      -1.828   3.742  25.328  0.00  0.00    +0.045 A 
ENDBRANCH   2  26
ENDBRANCH   4   3
ENDBRANCH   5   4
BRANCH  12  13
ATOM     13  C   UNL     1      -5.122   0.481  24.829  0.00  0.00    +0.074 C 
BRANCH  13  14
ATOM     14  N   UNL     1      -4.501  -0.062  24.785  0.00  0.00    -0.270 NA
ATOM     15  C   UNL     1      -4.116  -0.191  24.066  0.00  0.00    +0.094 C 
ATOM     16  C   UNL     1      -3.497  -0.733  24.022  0.00  0.00    +0.109 C 
ATOM     17  N   UNL     1      -3.261  -1.147  24.695  0.00  0.00    -0.290 N 
ATOM     18  C   UNL     1      -3.646  -1.018  25.414  0.00  0.00    +0.109 C 
ATOM     19  C   UNL     1      -4.266  -0.475  25.459  0.00  0.00    +0.094 C 
ATOM     20  C   UNL     1      -2.641  -1.689  24.651  0.00  0.00    +0.132 A 
ATOM     21  N   UNL     1      -2.256  -1.818  23.933  0.00  0.00    -0.229 NA
ATOM     22  C   UNL     1      -1.637  -2.360  23.888  0.00  0.00    +0.100 A 
ATOM     23  C   UNL     1      -1.401  -2.774  24.561  0.00  0.00    +0.021 A 
ATOM     24  C   UNL     1      -1.786  -2.645  25.281  0.00  0.00    +0.004 A 
ATOM     25  C   UNL     1      -2.406  -2.103  25.324  0.00  0.00    +0.034 A 
ENDBRANCH  13  14
ENDBRANCH  12  13
TORSDOF 5
ENDMDL
MODEL 4
REMARK VINA RESULT:      -9.5      2.519      4.163
REMARK  Name = 
REMARK  5 active torsions:
REMARK  status: ('A' for Active; 'I' for Inactive)
REMARK    1  A    between atoms: C_2  and  C_26
REMARK    2  A    between atoms: N_3  and  C_4
REMARK    3  A    between atoms: C_4  and  C_5
REMARK    4  A    between atoms: C_12  and  C_13
REMARK    5  A    between atoms: C_13  and  N_14
REMARK                            x       y       z     vdW  Elec       q    Type
REMARK                         _______ _______ _______ _____ _____    ______ ____
ROOT
ATOM      5  C   UNL     1      -0.295   3.457  24.646  0.00  0.00    +0.079 C 
ATOM      6  C   UNL     1      -0.470   4.202  24.781  0.00  0.00    +0.018 C 
ATOM      7  C   UNL     1      -1.211   4.491  24.937  0.00  0.00    +0.005 C 
ATOM      8  C   UNL     1      -1.202   5.379  25.065  0.00  0.00    +0.017 C 
ATOM      9  C   UNL     1      -0.941   4.793  24.939  0.00  0.00    +0.072 C 
ATOM     10  N   UNL     1      -1.046   3.759  24.805  0.00  0.00    -0.272 NA
ATOM     11  C   UNL     1      -1.864   3.360  24.873  0.00  0.00    +0.073 C 
ATOM     12  C   UNL     1      -1.994   4.101  25.000  0.00  0.00    +0.032 C 
ENDROOT
BRANCH   5   4
ATOM      4  C   UNL     1       0.229   2.843  24.476  0.00  0.00    +0.131 C 
BRANCH   4   3
ATOM      1  O   UNL     1       1.269   1.623  24.084  0.00  0.00    -0.268 OA
ATOM      2  C   UNL     1       0.474   1.457  24.233  0.00  0.00    +0.265 C 
ATOM      3  N   UNL     1      -0.045   2.066  24.429  0.00  0.00    -0.200 NA
BRANCH   2  26
ATOM     26  C   UNL     1       0.200   0.680  24.186  0.00  0.00    +0.058 A 
ATOM     27  C   UNL     1       0.354   0.228  23.513  0.00  0.00    +0.008 A 
ATOM     28  C   UNL     1       0.080  -0.548  23.465  0.00  0.00    +0.040 A 
ATOM     29  C   UNL     1      -0.349  -0.874  24.091  0.00  0.00    +0.176 A 
ATOM     30  O   UNL     1      -0.688  -1.618  24.200  0.00  0.00    -0.435 OA
ATOM     31  C   UNL     1      -1.051  -1.626  24.940  0.00  0.00    +0.429 C 
ATOM     32  O   UNL     1      -0.938  -0.886  25.289  0.00  0.00    -0.435 OA
ATOM     33  C   UNL     1      -0.504  -0.421  24.763  0.00  0.00    +0.177 A 
ATOM     34  C   UNL     1      -0.229   0.355  24.811  0.00  0.00    +0.045 A 
ENDBRANCH   2  26
ENDBRANCH   4   3
ENDBRANCH   5   4
BRANCH  12  13
ATOM     13  C   UNL     1      -2.718   4.460  25.164  0.00  0.00    +0.074 C 
BRANCH  13  14
ATOM     14  N   UNL     1      -3.395   3.997  25.260  0.00  0.00    -0.270 NA
ATOM     15  C   UNL     1      -3.709   3.875  26.013  0.00  0.00    +0.094 C 
ATOM     16  C   UNL     1      -4.385   3.414  26.109  0.00  0.00    +0.109 C 
ATOM     17  N   UNL     1      -4.749   3.073  25.452  0.00  0.00    -0.290 N 
ATOM     18  C   UNL     1      -4.436   3.195  24.698  0.00  0.00    +0.109 C 
ATOM     19  C   UNL     1      -3.759   3.657  24.602  0.00  0.00    +0.094 C 
ATOM     20  C   UNL     1      -5.425   2.611  25.548  0.00  0.00    +0.132 A 
ATOM     21  N   UNL     1      -5.739   2.489  26.301  0.00  0.00    -0.229 NA
ATOM     22  C   UNL     1      -6.415   2.028  26.397  0.00  0.00    +0.100 A 
ATOM     23  C   UNL     1      -6.779   1.687  25.740  0.00  0.00    +0.021 A 
ATOM     24  C   UNL     1      -6.466   1.809  24.986  0.00  0.00    +0.004 A 
ATOM     25  C   UNL     1      -5.789   2.271  24.891  0.00  0.00    +0.034 A 
ENDBRANCH  13  14
ENDBRANCH  12  13
TORSDOF 5
ENDMDL
MODEL 5
REMARK VINA RESULT:      -9.4      3.183      6.226
REMARK  Name = 
REMARK  5 active torsions:
REMARK  status: ('A' for Active; 'I' for Inactive)
REMARK    1  A    between atoms: C_2  and  C_26
REMARK    2  A    between atoms: N_3  and  C_4
REMARK    3  A    between atoms: C_4  and  C_5
REMARK    4  A    between atoms: C_12  and  C_13
REMARK    5  A    between atoms: C_13  and  N_14
REMARK                            x       y       z     vdW  Elec       q    Type
REMARK                         _______ _______ _______ _____ _____    ______ ____
ROOT
ATOM      5  C   UNL     1      -0.395   2.751  24.887  0.00  0.00    +0.079 C 
ATOM      6  C   UNL     1       0.197   2.406  24.519  0.00  0.00    +0.018 C 
ATOM      7  C   UNL     1       0.256   1.615  24.359  0.00  0.00    +0.005 C 
ATOM      8  C   UNL     1       1.017   1.418  23.926  0.00  0.00    +0.017 C 
ATOM      9  C   UNL     1       0.582   1.809  24.219  0.00  0.00    +0.072 C 
ATOM     10  N   UNL     1      -0.328   1.945  24.720  0.00  0.00    -0.272 NA
ATOM     11  C   UNL     1      -0.877   1.237  24.893  0.00  0.00    +0.073 C 
ATOM     12  C   UNL     1      -0.276   0.938  24.529  0.00  0.00    +0.032 C 
ENDROOT
BRANCH   5   4
ATOM      4  C   UNL     1      -0.787   3.406  25.200  0.00  0.00    +0.131 C 
BRANCH   4   3
ATOM      1  O   UNL     1      -1.673   4.784  25.392  0.00  0.00    -0.268 OA
ATOM      2  C   UNL     1      -2.032   4.046  25.483  0.00  0.00    +0.265 C 
ATOM      3  N   UNL     1      -1.589   3.358  25.387  0.00  0.00    -0.200 NA
BRANCH   2  26
ATOM     26  C   UNL     1      -2.835   3.998  25.670  0.00  0.00    +0.058 A 
ATOM     27  C   UNL     1      -3.106   4.284  26.395  0.00  0.00    +0.008 A 
ATOM     28  C   UNL     1      -3.908   4.235  26.582  0.00  0.00    +0.040 A 
ATOM     29  C   UNL     1      -4.439   3.901  26.045  0.00  0.00    +0.176 A 
ATOM     30  O   UNL     1      -5.254   3.780  26.077  0.00  0.00    -0.435 OA
ATOM     31  C   UNL     1      -5.485   3.420  25.372  0.00  0.00    +0.429 C 
ATOM     32  O   UNL     1      -4.813   3.318  24.904  0.00  0.00    -0.435 OA
ATOM     33  C   UNL     1      -4.166   3.616  25.321  0.00  0.00    +0.177 A 
ATOM     34  C   UNL     1      -3.364   3.664  25.133  0.00  0.00    +0.045 A 
ENDBRANCH   2  26
ENDBRANCH   4   3
ENDBRANCH   5   4
BRANCH  12  13
ATOM     13  C   UNL     1      -0.154   0.146  24.335  0.00  0.00    +0.074 C 
BRANCH  13  14
ATOM     14  N   UNL     1      -0.780  -0.390  24.374  0.00  0.00    -0.270 NA
ATOM     15  C   UNL     1      -0.740  -1.035  24.887  0.00  0.00    +0.094 C 
ATOM     16  C   UNL     1      -1.365  -1.571  24.926  0.00  0.00    +0.109 C 
ATOM     17  N   UNL     1      -2.032  -1.462  24.453  0.00  0.00    -0.290 N 
ATOM     18  C   UNL     1      -2.073  -0.817  23.940  0.00  0.00    +0.109 C 
ATOM     19  C   UNL     1      -1.447  -0.281  23.901  0.00  0.00    +0.094 C 
ATOM     20  C   UNL     1      -2.658  -1.997  24.492  0.00  0.00    +0.132 A 
ATOM     21  N   UNL     1      -2.618  -2.643  25.005  0.00  0.00    -0.229 NA
ATOM     22  C   UNL     1      -3.243  -3.178  25.045  0.00  0.00    +0.100 A 
ATOM     23  C   UNL     1      -3.910  -3.070  24.572  0.00  0.00    +0.021 A 
ATOM     24  C   UNL     1      -3.951  -2.424  24.058  0.00  0.00    +0.004 A 
ATOM     25  C   UNL     1      -3.325  -1.889  24.019  0.00  0.00    +0.034 A 
ENDBRANCH  13  14
ENDBRANCH  12  13
TORSDOF 5
ENDMDL
MODEL 6
REMARK VINA RESULT:      -9.4      3.648      5.479
REMARK  Name = 
REMARK  5 active torsions:
REMARK  status: ('A' for Active; 'I' for Inactive)
REMARK    1  A    between atoms: C_2  and  C_26
REMARK    2  A    between atoms: N_3  and  C_4
REMARK    3  A    between atoms: C_4  and  C_5
REMARK    4  A    between atoms: C_12  and  C_13
REMARK    5  A    between atoms: C_13  and  N_14
REMARK                            x       y       z     vdW  Elec       q    Type
REMARK                         _______ _______ _______ _____ _____    ______ ____
ROOT
ATOM      5  C   UNL     1      -5.124   0.448  24.751  0.00  0.00    +0.079 C 
ATOM      6  C   UNL     1      -5.595   0.911  25.161  0.00  0.00    +0.018 C 
ATOM      7  C   UNL     1      -5.444   1.682  25.358  0.00  0.00    +0.005 C 
ATOM      8  C   UNL     1      -6.112   2.043  25.835  0.00  0.00    +0.017 C 
ATOM      9  C   UNL     1      -5.803   1.570  25.505  0.00  0.00    +0.072 C 
ATOM     10  N   UNL     1      -4.978   1.234  24.955  0.00  0.00    -0.272 NA
ATOM     11  C   UNL     1      -4.272   1.788  24.785  0.00  0.00    +0.073 C 
ATOM     12  C   UNL     1      -4.762   2.209  25.191  0.00  0.00    +0.032 C 
ENDROOT
BRANCH   5   4
ATOM      4  C   UNL     1      -4.926  -0.267  24.391  0.00  0.00    +0.131 C 
BRANCH   4   3
ATOM      1  O   UNL     1      -4.493  -1.658  23.617  0.00  0.00    -0.268 OA
ATOM      2  C   UNL     1      -4.000  -1.337  24.195  0.00  0.00    +0.265 C 
ATOM      3  N   UNL     1      -4.216  -0.642  24.582  0.00  0.00    -0.200 NA
BRANCH   2  26
ATOM     26  C   UNL     1      -3.289  -1.712  24.386  0.00  0.00    +0.058 A 
ATOM     27  C   UNL     1      -3.275  -2.528  24.512  0.00  0.00    +0.008 A 
ATOM     28  C   UNL     1      -2.565  -2.903  24.703  0.00  0.00    +0.040 A 
ATOM     29  C   UNL     1      -1.870  -2.462  24.768  0.00  0.00    +0.176 A 
ATOM     30  O   UNL     1      -1.095  -2.679  24.948  0.00  0.00    -0.435 OA
ATOM     31  C   UNL     1      -0.631  -1.997  24.933  0.00  0.00    +0.429 C 
ATOM     32  O   UNL     1      -1.119  -1.360  24.744  0.00  0.00    -0.435 OA
ATOM     33  C   UNL     1      -1.886  -1.647  24.642  0.00  0.00    +0.177 A 
ATOM     34  C   UNL     1      -2.595  -1.272  24.451  0.00  0.00    +0.045 A 
ENDBRANCH   2  26
ENDBRANCH   4   3
ENDBRANCH   5   4
BRANCH  12  13
ATOM     13  C   UNL     1      -4.671   2.995  25.424  0.00  0.00    +0.074 C 
BRANCH  13  14
ATOM     14  N   UNL     1      -3.943   3.372  25.329  0.00  0.00    -0.270 NA
ATOM     15  C   UNL     1      -3.255   3.022  25.623  0.00  0.00    +0.094 C 
ATOM     16  C   UNL     1      -2.528   3.397  25.529  0.00  0.00    +0.109 C 
ATOM     17  N   UNL     1      -2.486   4.123  25.140  0.00  0.00    -0.290 N 
ATOM     18  C   UNL     1      -3.173   4.474  24.845  0.00  0.00    +0.109 C 
ATOM     19  C   UNL     1      -3.901   4.098  24.940  0.00  0.00    +0.094 C 
ATOM     20  C   UNL     1      -1.758   4.500  25.045  0.00  0.00    +0.132 A 
ATOM     21  N   UNL     1      -1.071   4.150  25.339  0.00  0.00    -0.229 NA
ATOM     22  C   UNL     1      -0.344   4.526  25.245  0.00  0.00    +0.100 A 
ATOM     23  C   UNL     1      -0.301   5.252  24.856  0.00  0.00    +0.021 A 
ATOM     24  C   UNL     1      -0.988   5.602  24.561  0.00  0.00    +0.004 A 
ATOM     25  C   UNL     1      -1.716   5.226  24.656  0.00  0.00    +0.034 A 
ENDBRANCH  13  14
ENDBRANCH  12  13
TORSDOF 5
ENDMDL
MODEL 7
REMARK VINA RESULT:      -8.7      3.065      6.683
REMARK  Name = 
REMARK  5 active torsions:
REMARK  status: ('A' for Active; 'I' for Inactive)
REMARK    1  A    between atoms: C_2  and  C_26
REMARK    2  A    between atoms: N_3  and  C_4
REMARK    3  A    between atoms: C_4  and  C_5
REMARK    4  A    between atoms: C_12  and  C_13
REMARK    5  A    between atoms: C_13  and  N_14
REMARK                            x       y       z     vdW  Elec       q    Type
REMARK                         _______ _______ _______ _____ _____    ______ ____
ROOT
ATOM      5  C   UNL     1      -4.197  -0.596  24.869  0.00  0.00    +0.079 C 
ATOM      6  C   UNL     1      -3.977  -1.308  25.089  0.00  0.00    +0.018 C 
ATOM      7  C   UNL     1      -3.215  -1.582  25.108  0.00  0.00    +0.005 C 
ATOM      8  C   UNL     1      -3.172  -2.432  25.392  0.00  0.00    +0.017 C 
ATOM      9  C   UNL     1      -3.469  -1.872  25.231  0.00  0.00    +0.072 C 
ATOM     10  N   UNL     1      -3.423  -0.882  24.890  0.00  0.00    -0.272 NA
ATOM     11  C   UNL     1      -2.623  -0.496  24.680  0.00  0.00    +0.073 C 
ATOM     12  C   UNL     1      -2.449  -1.205  24.904  0.00  0.00    +0.032 C 
ENDROOT
BRANCH   5   4
ATOM      4  C   UNL     1      -4.760  -0.011  24.726  0.00  0.00    +0.131 C 
BRANCH   4   3
ATOM      1  O   UNL     1      -5.947   1.131  24.624  0.00  0.00    -0.268 OA
ATOM      2  C   UNL     1      -5.182   1.349  24.846  0.00  0.00    +0.265 C 
ATOM      3  N   UNL     1      -4.589   0.778  24.897  0.00  0.00    -0.200 NA
BRANCH   2  26
ATOM     26  C   UNL     1      -5.011   2.138  25.017  0.00  0.00    +0.058 A 
ATOM     27  C   UNL     1      -5.416   2.525  25.624  0.00  0.00    +0.008 A 
ATOM     28  C   UNL     1      -5.245   3.314  25.795  0.00  0.00    +0.040 A 
ATOM     29  C   UNL     1      -4.669   3.716  25.360  0.00  0.00    +0.176 A 
ATOM     30  O   UNL     1      -4.385   4.489  25.403  0.00  0.00    -0.435 OA
ATOM     31  C   UNL     1      -3.805   4.579  24.823  0.00  0.00    +0.429 C 
ATOM     32  O   UNL     1      -3.731   3.862  24.422  0.00  0.00    -0.435 OA
ATOM     33  C   UNL     1      -4.266   3.328  24.754  0.00  0.00    +0.177 A 
ATOM     34  C   UNL     1      -4.436   2.539  24.583  0.00  0.00    +0.045 A 
ENDBRANCH   2  26
ENDBRANCH   4   3
ENDBRANCH   5   4
BRANCH  12  13
ATOM     13  C   UNL     1      -1.699  -1.546  24.946  0.00  0.00    +0.074 C 
BRANCH  13  14
ATOM     14  N   UNL     1      -1.061  -1.186  24.566  0.00  0.00    -0.270 NA
ATOM     15  C   UNL     1      -0.763  -1.505  23.866  0.00  0.00    +0.094 C 
ATOM     16  C   UNL     1      -0.126  -1.146  23.486  0.00  0.00    +0.109 C 
ATOM     17  N   UNL     1       0.215  -0.466  23.806  0.00  0.00    -0.290 N 
ATOM     18  C   UNL     1      -0.082  -0.146  24.506  0.00  0.00    +0.109 C 
ATOM     19  C   UNL     1      -0.720  -0.506  24.886  0.00  0.00    +0.094 C 
ATOM     20  C   UNL     1       0.853  -0.106  23.427  0.00  0.00    +0.132 A 
ATOM     21  N   UNL     1       1.151  -0.426  22.726  0.00  0.00    -0.229 NA
ATOM     22  C   UNL     1       1.788  -0.067  22.347  0.00  0.00    +0.100 A 
ATOM     23  C   UNL     1       2.129   0.613  22.666  0.00  0.00    +0.021 A 
ATOM     24  C   UNL     1       1.832   0.933  23.367  0.00  0.00    +0.004 A 
ATOM     25  C   UNL     1       1.194   0.573  23.746  0.00  0.00    +0.034 A 
ENDBRANCH  13  14
ENDBRANCH  12  13
TORSDOF 5
ENDMDL
