MODEL 1
REMARK VINA RESULT:      -8.7      0.000      0.000
REMARK  Name = 
REMARK  5 active torsions:
REMARK  status: ('A' for Active; 'I' for Inactive)
REMARK    1  A    between atoms: O_2  and  C_3
REMARK    2  A    between atoms: C_3  and  C_4
REMARK    3  A    between atoms: N_6  and  C_7
REMARK    4  A    between atoms: C_10  and  C_13
REMARK    5  A    between atoms: C_13  and  C_15
REMARK                            x       y       z     vdW  Elec       q    Type
REMARK                         _______ _______ _______ _____ _____    ______ ____
ROOT
ATOM      7  C   UNL     1      -4.074   0.183  24.274  0.00  0.00    +0.073 A 
ATOM      8  C   UNL     1      -4.480   0.645  24.824  0.00  0.00    +0.016 A 
ATOM      9  C   UNL     1      -4.365   1.462  24.844  0.00  0.00    -0.000 A 
ATOM     10  C   UNL     1      -3.844   1.818  24.313  0.00  0.00    +0.010 A 
ATOM     11  C   UNL     1      -3.437   1.356  23.762  0.00  0.00    -0.000 A 
ATOM     12  C   UNL     1      -3.552   0.539  23.743  0.00  0.00    +0.016 A 
ENDROOT
BRANCH   7   6
ATOM      4  C   UNL     1      -3.698  -1.129  24.694  0.00  0.00    +0.276 C 
ATOM      5  O   UNL     1      -3.093  -0.808  25.154  0.00  0.00    -0.270 OA
ATOM      6  N   UNL     1      -4.188  -0.633  24.255  0.00  0.00    -0.177 NA
BRANCH   4   3
ATOM      3  C   UNL     1      -3.813  -1.946  24.675  0.00  0.00    +0.229 C 
BRANCH   3   2
ATOM      1  C   UNL     1      -3.249  -3.258  24.721  0.00  0.00    +0.175 C 
ATOM      2  O   UNL     1      -3.202  -2.454  24.898  0.00  0.00    -0.342 OA
ENDBRANCH   3   2
ENDBRANCH   4   3
ENDBRANCH   7   6
BRANCH  10  13
ATOM     13  C   UNL     1      -3.729   2.634  24.332  0.00  0.00    +0.195 C 
ATOM     14  O   UNL     1      -4.189   3.127  23.857  0.00  0.00    -0.216 OA
BRANCH  13  15
ATOM     15  C   UNL     1      -3.152   2.957  24.825  0.00  0.00    +0.139 C 
ATOM     16  C   UNL     1      -2.370   2.700  24.770  0.00  0.00    +0.165 C 
ATOM     17  O   UNL     1      -1.794   3.024  25.265  0.00  0.00    -0.343 OA
ATOM     18  C   UNL     1      -2.000   3.603  25.814  0.00  0.00    +0.227 C 
ATOM     19  C   UNL     1      -2.782   3.860  25.869  0.00  0.00    +0.256 C 
ATOM     20  O   UNL     1      -2.989   4.440  26.420  0.00  0.00    -0.272 OA
ATOM     21  N   UNL     1      -3.359   3.537  25.376  0.00  0.00    -0.272 N 
ATOM     22  C   UNL     1      -4.141   3.793  25.431  0.00  0.00    +0.115 C 
ENDBRANCH  13  15
ENDBRANCH  10  13
TORSDOF 5
ENDMDL
MODEL 2
REMARK VINA RESULT:      -8.6      1.014      4.625
REMARK  Name = 
REMARK  5 active torsions:
REMARK  status: ('A' for Active; 'I' for Inactive)
REMARK    1  A    between atoms: O_2  and  C_3
REMARK    2  A    between atoms: C_3  and  C_4
REMARK    3  A    between atoms: N_6  and  C_7
REMARK    4  A    between atoms: C_10  and  C_13
REMARK    5  A    between atoms: C_13  and  C_15
REMARK                            x       y       z     vdW  Elec       q    Type
REMARK                         _______ _______ _______ _____ _____    ______ ____
ROOT
ATOM      7  C   UNL     1      -3.568   2.047  24.372  0.00  0.00    +0.073 A 
ATOM      8  C   UNL     1      -3.237   1.473  23.880  0.00  0.00    +0.016 A 
ATOM      9  C   UNL     1      -3.509   0.695  23.910  0.00  0.00    -0.000 A 
ATOM     10  C   UNL     1      -4.114   0.490  24.433  0.00  0.00    +0.010 A 
ATOM     11  C   UNL     1      -4.446   1.064  24.925  0.00  0.00    -0.000 A 
ATOM     12  C   UNL     1      -4.172   1.842  24.895  0.00  0.00    +0.016 A 
ENDROOT
BRANCH   7   6
ATOM      4  C   UNL     1      -2.681   3.065  24.835  0.00  0.00    +0.276 C 
ATOM      5  O   UNL     1      -2.339   2.529  25.361  0.00  0.00    -0.270 OA
ATOM      6  N   UNL     1      -3.295   2.824  24.341  0.00  0.00    -0.177 NA
BRANCH   4   3
ATOM      3  C   UNL     1      -2.407   3.843  24.805  0.00  0.00    +0.229 C 
BRANCH   3   2
ATOM      1  C   UNL     1      -1.443   4.830  25.177  0.00  0.00    +0.175 C 
ATOM      2  O   UNL     1      -1.748   4.067  25.246  0.00  0.00    -0.342 OA
ENDBRANCH   3   2
ENDBRANCH   4   3
ENDBRANCH   7   6
BRANCH  10  13
ATOM     13  C   UNL     1      -4.388  -0.287  24.464  0.00  0.00    +0.195 C 
ATOM     14  O   UNL     1      -5.080  -0.498  24.068  0.00  0.00    -0.216 OA
BRANCH  13  15
ATOM     15  C   UNL     1      -3.968  -0.854  24.892  0.00  0.00    +0.139 C 
ATOM     16  C   UNL     1      -3.661  -0.667  25.635  0.00  0.00    +0.165 C 
ATOM     17  O   UNL     1      -3.242  -1.235  26.062  0.00  0.00    -0.343 OA
ATOM     18  C   UNL     1      -3.129  -1.989  25.747  0.00  0.00    +0.227 C 
ATOM     19  C   UNL     1      -3.436  -2.176  25.004  0.00  0.00    +0.256 C 
ATOM     20  O   UNL     1      -3.323  -2.930  24.689  0.00  0.00    -0.272 OA
ATOM     21  N   UNL     1      -3.855  -1.609  24.576  0.00  0.00    -0.272 N 
ATOM     22  C   UNL     1      -4.162  -1.796  23.834  0.00  0.00    +0.115 C 
ENDBRANCH  13  15
ENDBRANCH  10  13
TORSDOF 5
ENDMDL
MODEL 3
REMARK VINA RESULT:      -8.5      2.316      2.993
REMARK  Name = 
REMARK  5 active torsions:
REMARK  status: ('A' for Active; 'I' for Inactive)
REMARK    1  A    between atoms: O_2  and  C_3
REMARK    2  A    between atoms: C_3  and  C_4
REMARK    3  A    between atoms: N_6  and  C_7
REMARK    4  A    between atoms: C_10  and  C_13
REMARK    5  A    between atoms: C_13  and  C_15
REMARK                            x       y       z     vdW  Elec       q    Type
REMARK                         _______ _______ _______ _____ _____    ______ ____
ROOT
ATOM      7  C   UNL     1      -1.748   2.136  23.861  0.00  0.00    +0.073 A 
ATOM      8  C   UNL     1      -1.911   2.505  24.581  0.00  0.00    +0.016 A 
ATOM      9  C   UNL     1      -2.662   2.817  24.725  0.00  0.00    -0.000 A 
ATOM     10  C   UNL     1      -3.249   2.760  24.148  0.00  0.00    +0.010 A 
ATOM     11  C   UNL     1      -3.086   2.391  23.428  0.00  0.00    -0.000 A 
ATOM     12  C   UNL     1      -2.335   2.079  23.285  0.00  0.00    +0.016 A 
ENDROOT
BRANCH   7   6
ATOM      4  C   UNL     1      -0.832   1.042  23.916  0.00  0.00    +0.276 C 
ATOM      5  O   UNL     1      -1.416   0.571  24.258  0.00  0.00    -0.270 OA
ATOM      6  N   UNL     1      -0.998   1.825  23.718  0.00  0.00    -0.177 NA
BRANCH   4   3
ATOM      3  C   UNL     1      -0.081   0.730  23.773  0.00  0.00    +0.229 C 
BRANCH   3   2
ATOM      1  C   UNL     1       0.716  -0.379  23.353  0.00  0.00    +0.175 C 
ATOM      2  O   UNL     1       0.016  -0.082  23.674  0.00  0.00    -0.342 OA
ENDBRANCH   3   2
ENDBRANCH   4   3
ENDBRANCH   7   6
BRANCH  10  13
ATOM     13  C   UNL     1      -3.999   3.072  24.291  0.00  0.00    +0.195 C 
ATOM     14  O   UNL     1      -4.189   3.830  24.027  0.00  0.00    -0.216 OA
BRANCH  13  15
ATOM     15  C   UNL     1      -4.560   2.624  24.697  0.00  0.00    +0.139 C 
ATOM     16  C   UNL     1      -4.719   1.849  24.463  0.00  0.00    +0.165 C 
ATOM     17  O   UNL     1      -5.280   1.402  24.871  0.00  0.00    -0.343 OA
ATOM     18  C   UNL     1      -5.682   1.729  25.512  0.00  0.00    +0.227 C 
ATOM     19  C   UNL     1      -5.523   2.504  25.746  0.00  0.00    +0.256 C 
ATOM     20  O   UNL     1      -5.926   2.831  26.388  0.00  0.00    -0.272 OA
ATOM     21  N   UNL     1      -4.963   2.951  25.339  0.00  0.00    -0.272 N 
ATOM     22  C   UNL     1      -4.804   3.726  25.574  0.00  0.00    +0.115 C 
ENDBRANCH  13  15
ENDBRANCH  10  13
TORSDOF 5
ENDMDL
MODEL 4
REMARK VINA RESULT:      -8.3      1.589      2.057
REMARK  Name = 
REMARK  5 active torsions:
REMARK  status: ('A' for Active; 'I' for Inactive)
REMARK    1  A    between atoms: O_2  and  C_3
REMARK    2  A    between atoms: C_3  and  C_4
REMARK    3  A    between atoms: N_6  and  C_7
REMARK    4  A    between atoms: C_10  and  C_13
REMARK    5  A    between atoms: C_13  and  C_15
REMARK                            x       y       z     vdW  Elec       q    Type
REMARK                         _______ _______ _______ _____ _____    ______ ____
ROOT
ATOM      7  C   UNL     1      -3.388  -0.442  24.722  0.00  0.00    +0.073 A 
ATOM      8  C   UNL     1      -3.516  -0.002  24.036  0.00  0.00    +0.016 A 
ATOM      9  C   UNL     1      -4.067   0.613  24.035  0.00  0.00    -0.000 A 
ATOM     10  C   UNL     1      -4.491   0.786  24.721  0.00  0.00    +0.010 A 
ATOM     11  C   UNL     1      -4.364   0.346  25.408  0.00  0.00    -0.000 A 
ATOM     12  C   UNL     1      -3.812  -0.268  25.408  0.00  0.00    +0.016 A 
ENDROOT
BRANCH   7   6
ATOM      4  C   UNL     1      -2.055  -0.908  24.938  0.00  0.00    +0.276 C 
ATOM      5  O   UNL     1      -1.824  -0.146  25.154  0.00  0.00    -0.270 OA
ATOM      6  N   UNL     1      -2.837  -1.055  24.722  0.00  0.00    -0.177 NA
BRANCH   4   3
ATOM      3  C   UNL     1      -1.504  -1.521  24.938  0.00  0.00    +0.229 C 
BRANCH   3   2
ATOM      1  C   UNL     1      -0.200  -2.013  25.255  0.00  0.00    +0.175 C 
ATOM      2  O   UNL     1      -0.742  -1.391  25.225  0.00  0.00    -0.342 OA
ENDBRANCH   3   2
ENDBRANCH   4   3
ENDBRANCH   7   6
BRANCH  10  13
ATOM     13  C   UNL     1      -5.042   1.400  24.722  0.00  0.00    +0.195 C 
ATOM     14  O   UNL     1      -5.843   1.235  24.611  0.00  0.00    -0.216 OA
BRANCH  13  15
ATOM     15  C   UNL     1      -4.792   2.178  24.834  0.00  0.00    +0.139 C 
ATOM     16  C   UNL     1      -4.152   2.471  24.404  0.00  0.00    +0.165 C 
ATOM     17  O   UNL     1      -3.903   3.250  24.517  0.00  0.00    -0.343 OA
ATOM     18  C   UNL     1      -4.292   3.734  25.058  0.00  0.00    +0.227 C 
ATOM     19  C   UNL     1      -4.932   3.440  25.488  0.00  0.00    +0.256 C 
ATOM     20  O   UNL     1      -5.322   3.925  26.031  0.00  0.00    -0.272 OA
ATOM     21  N   UNL     1      -5.182   2.662  25.377  0.00  0.00    -0.272 N 
ATOM     22  C   UNL     1      -5.822   2.368  25.806  0.00  0.00    +0.115 C 
ENDBRANCH  13  15
ENDBRANCH  10  13
TORSDOF 5
ENDMDL
MODEL 5
REMARK VINA RESULT:      -8.2      1.852      4.379
REMARK  Name = 
REMARK  5 active torsions:
REMARK  status: ('A' for Active; 'I' for Inactive)
REMARK    1  A    between atoms: O_2  and  C_3
REMARK    2  A    between atoms: C_3  and  C_4
REMARK    3  A    between atoms: N_6  and  C_7
REMARK    4  A    between atoms: C_10  and  C_13
REMARK    5  A    between atoms: C_13  and  C_15
REMARK                            x       y       z     vdW  Elec       q    Type
REMARK                         _______ _______ _______ _____ _____    ______ ____
ROOT
ATOM      7  C   UNL     1      -4.513   0.612  24.842  0.00  0.00    +0.073 A 
ATOM      8  C   UNL     1      -4.175   0.530  24.094  0.00  0.00    +0.016 A 
ATOM      9  C   UNL     1      -3.617  -0.061  23.954  0.00  0.00    -0.000 A 
ATOM     10  C   UNL     1      -3.395  -0.571  24.563  0.00  0.00    +0.010 A 
ATOM     11  C   UNL     1      -3.732  -0.489  25.313  0.00  0.00    -0.000 A 
ATOM     12  C   UNL     1      -4.291   0.102  25.452  0.00  0.00    +0.016 A 
ENDROOT
BRANCH   7   6
ATOM      4  C   UNL     1      -4.825   1.968  25.163  0.00  0.00    +0.276 C 
ATOM      5  O   UNL     1      -4.020   2.143  25.205  0.00  0.00    -0.270 OA
ATOM      6  N   UNL     1      -5.071   1.202  24.982  0.00  0.00    -0.177 NA
BRANCH   4   3
ATOM      3  C   UNL     1      -5.383   2.559  25.303  0.00  0.00    +0.229 C 
BRANCH   3   2
ATOM      1  C   UNL     1      -5.696   3.925  25.584  0.00  0.00    +0.175 C 
ATOM      2  O   UNL     1      -5.138   3.332  25.451  0.00  0.00    -0.342 OA
ENDBRANCH   3   2
ENDBRANCH   4   3
ENDBRANCH   7   6
BRANCH  10  13
ATOM     13  C   UNL     1      -2.837  -1.162  24.425  0.00  0.00    +0.195 C 
ATOM     14  O   UNL     1      -3.077  -1.900  24.146  0.00  0.00    -0.216 OA
BRANCH  13  15
ATOM     15  C   UNL     1      -2.037  -1.013  24.565  0.00  0.00    +0.139 C 
ATOM     16  C   UNL     1      -1.709  -0.287  24.353  0.00  0.00    +0.165 C 
ATOM     17  O   UNL     1      -0.909  -0.140  24.494  0.00  0.00    -0.343 OA
ATOM     18  C   UNL     1      -0.438  -0.718  24.846  0.00  0.00    +0.227 C 
ATOM     19  C   UNL     1      -0.767  -1.445  25.057  0.00  0.00    +0.256 C 
ATOM     20  O   UNL     1      -0.296  -2.024  25.410  0.00  0.00    -0.272 OA
ATOM     21  N   UNL     1      -1.566  -1.593  24.917  0.00  0.00    -0.272 N 
ATOM     22  C   UNL     1      -1.895  -2.320  25.129  0.00  0.00    +0.115 C 
ENDBRANCH  13  15
ENDBRANCH  10  13
TORSDOF 5
ENDMDL
MODEL 6
REMARK VINA RESULT:      -7.9      2.120      5.195
REMARK  Name = 
REMARK  5 active torsions:
REMARK  status: ('A' for Active; 'I' for Inactive)
REMARK    1  A    between atoms: O_2  and  C_3
REMARK    2  A    between atoms: C_3  and  C_4
REMARK    3  A    between atoms: N_6  and  C_7
REMARK    4  A    between atoms: C_10  and  C_13
REMARK    5  A    between atoms: C_13  and  C_15
REMARK                            x       y       z     vdW  Elec       q    Type
REMARK                         _______ _______ _______ _____ _____    ______ ____
ROOT
ATOM      7  C   UNL     1      -0.760   1.429  24.916  0.00  0.00    +0.073 A 
ATOM      8  C   UNL     1      -0.931   0.964  24.256  0.00  0.00    +0.016 A 
ATOM      9  C   UNL     1      -1.108   0.163  24.348  0.00  0.00    -0.000 A 
ATOM     10  C   UNL     1      -1.113  -0.174  25.102  0.00  0.00    +0.010 A 
ATOM     11  C   UNL     1      -0.942   0.291  25.763  0.00  0.00    -0.000 A 
ATOM     12  C   UNL     1      -0.766   1.092  25.670  0.00  0.00    +0.016 A 
ENDROOT
BRANCH   7   6
ATOM      4  C   UNL     1      -1.172   2.796  24.933  0.00  0.00    +0.276 C 
ATOM      5  O   UNL     1      -1.937   2.563  25.136  0.00  0.00    -0.270 OA
ATOM      6  N   UNL     1      -0.584   2.229  24.824  0.00  0.00    -0.177 NA
BRANCH   4   3
ATOM      3  C   UNL     1      -0.997   3.597  24.841  0.00  0.00    +0.229 C 
BRANCH   3   2
ATOM      1  C   UNL     1      -1.314   4.969  25.081  0.00  0.00    +0.175 C 
ATOM      2  O   UNL     1      -1.508   4.169  25.142  0.00  0.00    -0.342 OA
ENDBRANCH   3   2
ENDBRANCH   4   3
ENDBRANCH   7   6
BRANCH  10  13
ATOM     13  C   UNL     1      -1.289  -0.974  25.195  0.00  0.00    +0.195 C 
ATOM     14  O   UNL     1      -0.680  -1.526  25.266  0.00  0.00    -0.216 OA
BRANCH  13  15
ATOM     15  C   UNL     1      -2.076  -1.222  25.218  0.00  0.00    +0.139 C 
ATOM     16  C   UNL     1      -2.626  -0.810  25.675  0.00  0.00    +0.165 C 
ATOM     17  O   UNL     1      -3.412  -1.059  25.697  0.00  0.00    -0.343 OA
ATOM     18  C   UNL     1      -3.648  -1.719  25.263  0.00  0.00    +0.227 C 
ATOM     19  C   UNL     1      -3.098  -2.131  24.806  0.00  0.00    +0.256 C 
ATOM     20  O   UNL     1      -3.335  -2.792  24.372  0.00  0.00    -0.272 OA
ATOM     21  N   UNL     1      -2.312  -1.883  24.783  0.00  0.00    -0.272 N 
ATOM     22  C   UNL     1      -1.762  -2.295  24.327  0.00  0.00    +0.115 C 
ENDBRANCH  13  15
ENDBRANCH  10  13
TORSDOF 5
ENDMDL
