REMARK  Name = 
REMARK  5 active torsions:
REMARK  status: ('A' for Active; 'I' for Inactive)
REMARK    1  A    between atoms: C_2  and  C_4
REMARK    2  A    between atoms: C_2  and  C_8
REMARK    3  A    between atoms: C_4  and  C_5
REMARK    4  A    between atoms: C_8  and  C_9
REMARK    5  A    between atoms: N_11  and  C_12
REMARK                            x       y       z     vdW  Elec       q    Type
REMARK                         _______ _______ _______ _____ _____    ______ ____
ROOT
ATOM     12  C   UNL     1       4.809   1.780   0.000  0.00  0.00    +0.117 C 
ATOM     13  C   UNL     1       4.493   2.542   0.000  0.00  0.00    +0.053 C 
ATOM     14  C   UNL     1       3.671   2.478   0.000  0.00  0.00    +0.156 C 
ATOM     15  N   UNL     1       3.478   1.676   0.000  0.00  0.00    -0.268 N 
ATOM     16  C   UNL     1       4.182   1.244   0.000  0.00  0.00    +0.116 C 
ATOM     17  C   UNL     1       2.731   1.326   0.000  0.00  0.00    +0.251 C 
ATOM     18  O   UNL     1       2.722   0.501   0.000  0.00  0.00    -0.270 OA
ATOM     19  C   UNL     1       1.992   1.692   0.000  0.00  0.00    +0.069 A 
ATOM     20  C   UNL     1       1.381   1.138   0.000  0.00  0.00    +0.007 A 
ATOM     21  C   UNL     1       0.595   1.390   0.000  0.00  0.00    +0.012 A 
ATOM     22  C   UNL     1       0.421   2.196   0.000  0.00  0.00    +0.059 A 
ATOM     23 CL   UNL     1      -0.365   2.448   0.000  0.00  0.00    -0.082 Cl
ATOM     24  C   UNL     1       1.032   2.751   0.000  0.00  0.00    +0.028 A 
ATOM     25  C   UNL     1       1.817   2.498   0.000  0.00  0.00    +0.079 A 
ATOM     26  N   UNL     1       2.339   3.138   0.000  0.00  0.00    -0.178 NA
ATOM     27  C   UNL     1       3.164   3.128   0.000  0.00  0.00    +0.264 C 
ATOM     28  O   UNL     1       3.530   3.868   0.000  0.00  0.00    -0.271 OA
ENDROOT
BRANCH  12  11
ATOM      9  C   UNL     1       6.179   2.186   0.000  0.00  0.00    +0.241 C 
ATOM     10  O   UNL     1       5.945   2.977   0.000  0.00  0.00    -0.273 OA
ATOM     11  N   UNL     1       5.611   1.588   0.000  0.00  0.00    -0.205 NA
BRANCH   9   8
ATOM      8  C   UNL     1       6.981   1.994   0.000  0.00  0.00    +0.087 C 
BRANCH   8   2
ATOM      1  C   UNL     1       6.951   3.160   0.000  0.00  0.00    +0.001 C 
ATOM      2  C   UNL     1       7.549   2.592   0.000  0.00  0.00    +0.019 C 
ATOM      3  C   UNL     1       8.148   2.024   0.000  0.00  0.00    +0.001 C 
BRANCH   2   4
ATOM      4  C   UNL     1       8.117   3.191   0.000  0.00  0.00    +0.115 C 
BRANCH   4   5
ATOM      5  C   UNL     1       8.919   2.998   0.000  0.00  0.00    +0.365 C 
ATOM      6  O   UNL     1       9.487   3.596   0.000  0.00  0.00    -0.246 OA
ATOM      7  O   UNL     1       9.154   2.207   0.000  0.00  0.00    -0.246 OA
ENDBRANCH   4   5
ENDBRANCH   2   4
ENDBRANCH   8   2
ENDBRANCH   9   8
ENDBRANCH  12  11
TORSDOF 5
