MODEL 1
REMARK VINA RESULT:     -12.4      0.000      0.000
REMARK  Name = 
REMARK  5 active torsions:
REMARK  status: ('A' for Active; 'I' for Inactive)
REMARK    1  A    between atoms: N_2  and  C_4
REMARK    2  A    between atoms: C_7  and  C_8
REMARK    3  A    between atoms: C_8  and  N_9
REMARK    4  A    between atoms: C_12  and  C_14
REMARK    5  A    between atoms: C_19  and  C_23
REMARK                            x       y       z     vdW  Elec       q    Type
REMARK                         _______ _______ _______ _____ _____    ______ ____
ROOT
ATOM      9  N   UNL     1      -4.375   1.249  24.939  0.00  0.00    -0.269 NA
ATOM     10  C   UNL     1      -4.701   1.697  24.328  0.00  0.00    +0.073 C 
ATOM     11  C   UNL     1      -4.231   2.367  24.224  0.00  0.00    +0.026 C 
ATOM     12  C   UNL     1      -3.615   2.334  24.773  0.00  0.00    +0.076 C 
ATOM     13  C   UNL     1      -3.704   1.643  25.214  0.00  0.00    +0.080 C 
ENDROOT
BRANCH  12  14
ATOM     14  C   UNL     1      -3.015   2.893  24.863  0.00  0.00    +0.140 A 
ATOM     15  N   UNL     1      -3.120   3.705  24.962  0.00  0.00    -0.229 NA
ATOM     16  C   UNL     1      -2.376   4.052  25.030  0.00  0.00    +0.100 A 
ATOM     17  C   UNL     1      -1.810   3.455  24.973  0.00  0.00    +0.105 A 
ATOM     18  N   UNL     1      -2.204   2.739  24.870  0.00  0.00    -0.229 NA
ATOM     19  C   UNL     1      -1.007   3.641  25.023  0.00  0.00    +0.076 A 
ATOM     20  C   UNL     1      -0.771   4.424  25.129  0.00  0.00    +0.006 A 
ATOM     21  C   UNL     1      -1.337   5.021  25.186  0.00  0.00    +0.002 A 
ATOM     22  C   UNL     1      -2.139   4.836  25.137  0.00  0.00    +0.021 A 
BRANCH  19  23
ATOM     23  C   UNL     1      -0.441   3.044  24.966  0.00  0.00    +0.286 C 
ATOM     24  N   UNL     1      -0.136   2.698  25.650  0.00  0.00    -0.084 NA
ATOM     25  O   UNL     1      -0.180   2.792  24.225  0.00  0.00    -0.267 OA
ENDBRANCH  19  23
ENDBRANCH  12  14
BRANCH   9   8
ATOM      8  C   UNL     1      -4.668   0.533  25.226  0.00  0.00    +0.099 C 
BRANCH   8   7
ATOM      4  C   UNL     1      -3.494  -1.582  24.708  0.00  0.00    +0.048 A 
ATOM      5  C   UNL     1      -3.386  -1.220  25.441  0.00  0.00    +0.014 A 
ATOM      6  C   UNL     1      -3.778  -0.515  25.614  0.00  0.00    -0.002 A 
ATOM      7  C   UNL     1      -4.277  -0.172  25.053  0.00  0.00    -0.006 A 
ATOM     26  C   UNL     1      -4.384  -0.534  24.320  0.00  0.00    -0.002 A 
ATOM     27  C   UNL     1      -3.992  -1.240  24.148  0.00  0.00    +0.014 A 
BRANCH   4   2
ATOM      1  C   UNL     1      -2.278  -2.300  24.481  0.00  0.00    +0.112 C 
ATOM      2  N   UNL     1      -3.102  -2.288  24.536  0.00  0.00    -0.304 N 
ATOM      3  C   UNL     1      -3.533  -2.981  24.419  0.00  0.00    +0.112 C 
ENDBRANCH   4   2
ENDBRANCH   8   7
ENDBRANCH   9   8
TORSDOF 5
ENDMDL
MODEL 2
REMARK VINA RESULT:     -11.8      1.343      5.042
REMARK  Name = 
REMARK  5 active torsions:
REMARK  status: ('A' for Active; 'I' for Inactive)
REMARK    1  A    between atoms: N_2  and  C_4
REMARK    2  A    between atoms: C_7  and  C_8
REMARK    3  A    between atoms: C_8  and  N_9
REMARK    4  A    between atoms: C_12  and  C_14
REMARK    5  A    between atoms: C_19  and  C_23
REMARK                            x       y       z     vdW  Elec       q    Type
REMARK                         _______ _______ _______ _____ _____    ______ ____
ROOT
ATOM      9  N   UNL     1      -4.440   1.976  24.589  0.00  0.00    -0.269 NA
ATOM     10  C   UNL     1      -5.001   1.724  25.139  0.00  0.00    +0.073 C 
ATOM     11  C   UNL     1      -4.939   0.903  25.209  0.00  0.00    +0.026 C 
ATOM     12  C   UNL     1      -4.340   0.649  24.701  0.00  0.00    +0.076 C 
ATOM     13  C   UNL     1      -4.031   1.311  24.319  0.00  0.00    +0.080 C 
ENDROOT
BRANCH  12  14
ATOM     14  C   UNL     1      -4.093  -0.131  24.596  0.00  0.00    +0.140 A 
ATOM     15  N   UNL     1      -4.542  -0.743  24.274  0.00  0.00    -0.229 NA
ATOM     16  C   UNL     1      -4.080  -1.426  24.273  0.00  0.00    +0.100 A 
ATOM     17  C   UNL     1      -3.345  -1.236  24.595  0.00  0.00    +0.105 A 
ATOM     18  N   UNL     1      -3.352  -0.436  24.795  0.00  0.00    -0.229 NA
ATOM     19  C   UNL     1      -2.763  -1.818  24.664  0.00  0.00    +0.076 A 
ATOM     20  C   UNL     1      -2.917  -2.587  24.412  0.00  0.00    +0.006 A 
ATOM     21  C   UNL     1      -3.653  -2.777  24.090  0.00  0.00    +0.002 A 
ATOM     22  C   UNL     1      -4.235  -2.196  24.020  0.00  0.00    +0.021 A 
BRANCH  19  23
ATOM     23  C   UNL     1      -2.028  -1.628  24.986  0.00  0.00    +0.286 C 
ATOM     24  N   UNL     1      -1.377  -1.514  24.491  0.00  0.00    -0.084 NA
ATOM     25  O   UNL     1      -1.941  -1.553  25.803  0.00  0.00    -0.267 OA
ENDBRANCH  19  23
ENDBRANCH  12  14
BRANCH   9   8
ATOM      8  C   UNL     1      -4.310   2.754  24.352  0.00  0.00    +0.099 C 
BRANCH   8   7
ATOM      4  C   UNL     1      -2.213   3.908  24.982  0.00  0.00    +0.048 A 
ATOM      5  C   UNL     1      -2.252   3.480  24.278  0.00  0.00    +0.014 A 
ATOM      6  C   UNL     1      -2.951   3.096  24.067  0.00  0.00    -0.002 A 
ATOM      7  C   UNL     1      -3.611   3.139  24.562  0.00  0.00    -0.006 A 
ATOM     26  C   UNL     1      -3.571   3.566  25.266  0.00  0.00    -0.002 A 
ATOM     27  C   UNL     1      -2.871   3.951  25.476  0.00  0.00    +0.014 A 
BRANCH   4   2
ATOM      1  C   UNL     1      -1.479   5.117  25.191  0.00  0.00    +0.112 C 
ATOM      2  N   UNL     1      -1.513   4.292  25.192  0.00  0.00    -0.304 N 
ATOM      3  C   UNL     1      -0.848   3.852  25.403  0.00  0.00    +0.112 C 
ENDBRANCH   4   2
ENDBRANCH   8   7
ENDBRANCH   9   8
TORSDOF 5
ENDMDL
MODEL 3
REMARK VINA RESULT:     -11.7      1.586      2.438
REMARK  Name = 
REMARK  5 active torsions:
REMARK  status: ('A' for Active; 'I' for Inactive)
REMARK    1  A    between atoms: N_2  and  C_4
REMARK    2  A    between atoms: C_7  and  C_8
REMARK    3  A    between atoms: C_8  and  N_9
REMARK    4  A    between atoms: C_12  and  C_14
REMARK    5  A    between atoms: C_19  and  C_23
REMARK                            x       y       z     vdW  Elec       q    Type
REMARK                         _______ _______ _______ _____ _____    ______ ____
ROOT
ATOM      9  N   UNL     1      -0.966   0.242  25.230  0.00  0.00    -0.269 NA
ATOM     10  C   UNL     1      -0.481   0.359  24.574  0.00  0.00    +0.073 C 
ATOM     11  C   UNL     1      -0.460   1.168  24.413  0.00  0.00    +0.026 C 
ATOM     12  C   UNL     1      -0.933   1.551  24.971  0.00  0.00    +0.076 C 
ATOM     13  C   UNL     1      -1.245   0.979  25.476  0.00  0.00    +0.080 C 
ENDROOT
BRANCH  12  14
ATOM     14  C   UNL     1      -1.068   2.363  25.015  0.00  0.00    +0.140 A 
ATOM     15  N   UNL     1      -0.526   2.957  24.830  0.00  0.00    -0.229 NA
ATOM     16  C   UNL     1      -0.893   3.685  24.953  0.00  0.00    +0.100 A 
ATOM     17  C   UNL     1      -1.662   3.542  25.214  0.00  0.00    +0.105 A 
ATOM     18  N   UNL     1      -1.771   2.726  25.253  0.00  0.00    -0.229 NA
ATOM     19  C   UNL     1      -2.164   4.175  25.383  0.00  0.00    +0.076 A 
ATOM     20  C   UNL     1      -1.897   4.949  25.291  0.00  0.00    +0.006 A 
ATOM     21  C   UNL     1      -1.128   5.092  25.030  0.00  0.00    +0.002 A 
ATOM     22  C   UNL     1      -0.625   4.460  24.861  0.00  0.00    +0.021 A 
BRANCH  19  23
ATOM     23  C   UNL     1      -2.934   4.032  25.644  0.00  0.00    +0.286 C 
ATOM     24  N   UNL     1      -3.542   3.926  25.097  0.00  0.00    -0.084 NA
ATOM     25  O   UNL     1      -3.095   3.995  26.452  0.00  0.00    -0.267 OA
ENDBRANCH  19  23
ENDBRANCH  12  14
BRANCH   9   8
ATOM      8  C   UNL     1      -1.142  -0.484  25.580  0.00  0.00    +0.099 C 
BRANCH   8   7
ATOM      4  C   UNL     1      -2.999  -1.864  24.704  0.00  0.00    +0.048 A 
ATOM      5  C   UNL     1      -2.236  -1.966  24.410  0.00  0.00    +0.014 A 
ATOM      6  C   UNL     1      -1.616  -1.506  24.702  0.00  0.00    -0.002 A 
ATOM      7  C   UNL     1      -1.761  -0.944  25.289  0.00  0.00    -0.006 A 
ATOM     26  C   UNL     1      -2.525  -0.842  25.583  0.00  0.00    -0.002 A 
ATOM     27  C   UNL     1      -3.144  -1.303  25.290  0.00  0.00    +0.014 A 
BRANCH   4   2
ATOM      1  C   UNL     1      -4.200  -1.981  23.936  0.00  0.00    +0.112 C 
ATOM      2  N   UNL     1      -3.619  -2.325  24.411  0.00  0.00    -0.304 N 
ATOM      3  C   UNL     1      -3.657  -3.128  24.594  0.00  0.00    +0.112 C 
ENDBRANCH   4   2
ENDBRANCH   8   7
ENDBRANCH   9   8
TORSDOF 5
ENDMDL
MODEL 4
REMARK VINA RESULT:     -11.2      1.859      5.620
REMARK  Name = 
REMARK  5 active torsions:
REMARK  status: ('A' for Active; 'I' for Inactive)
REMARK    1  A    between atoms: N_2  and  C_4
REMARK    2  A    between atoms: C_7  and  C_8
REMARK    3  A    between atoms: C_8  and  N_9
REMARK    4  A    between atoms: C_12  and  C_14
REMARK    5  A    between atoms: C_19  and  C_23
REMARK                            x       y       z     vdW  Elec       q    Type
REMARK                         _______ _______ _______ _____ _____    ______ ____
ROOT
ATOM      9  N   UNL     1      -0.230   1.231  24.870  0.00  0.00    -0.269 NA
ATOM     10  C   UNL     1       0.032   0.975  24.130  0.00  0.00    +0.073 C 
ATOM     11  C   UNL     1      -0.392   0.295  23.932  0.00  0.00    +0.026 C 
ATOM     12  C   UNL     1      -0.915   0.131  24.550  0.00  0.00    +0.076 C 
ATOM     13  C   UNL     1      -0.815   0.710  25.128  0.00  0.00    +0.080 C 
ENDROOT
BRANCH  12  14
ATOM     14  C   UNL     1      -1.445  -0.500  24.581  0.00  0.00    +0.140 A 
ATOM     15  N   UNL     1      -1.249  -1.301  24.542  0.00  0.00    -0.229 NA
ATOM     16  C   UNL     1      -1.946  -1.737  24.594  0.00  0.00    +0.100 A 
ATOM     17  C   UNL     1      -2.574  -1.206  24.667  0.00  0.00    +0.105 A 
ATOM     18  N   UNL     1      -2.264  -0.442  24.659  0.00  0.00    -0.229 NA
ATOM     19  C   UNL     1      -3.347  -1.489  24.730  0.00  0.00    +0.076 A 
ATOM     20  C   UNL     1      -3.492  -2.300  24.722  0.00  0.00    +0.006 A 
ATOM     21  C   UNL     1      -2.864  -2.831  24.650  0.00  0.00    +0.002 A 
ATOM     22  C   UNL     1      -2.091  -2.550  24.586  0.00  0.00    +0.021 A 
BRANCH  19  23
ATOM     23  C   UNL     1      -3.974  -0.959  24.803  0.00  0.00    +0.286 C 
ATOM     24  N   UNL     1      -4.428  -0.763  24.141  0.00  0.00    -0.084 NA
ATOM     25  O   UNL     1      -4.149  -0.623  25.536  0.00  0.00    -0.267 OA
ENDBRANCH  19  23
ENDBRANCH  12  14
BRANCH   9   8
ATOM      8  C   UNL     1       0.045   1.893  25.278  0.00  0.00    +0.099 C 
BRANCH   8   7
ATOM      4  C   UNL     1      -1.300   3.969  25.321  0.00  0.00    +0.048 A 
ATOM      5  C   UNL     1      -1.362   3.425  25.938  0.00  0.00    +0.014 A 
ATOM      6  C   UNL     1      -0.914   2.733  25.924  0.00  0.00    -0.002 A 
ATOM      7  C   UNL     1      -0.403   2.585  25.292  0.00  0.00    -0.006 A 
ATOM     26  C   UNL     1      -0.342   3.129  24.676  0.00  0.00    -0.002 A 
ATOM     27  C   UNL     1      -0.791   3.822  24.690  0.00  0.00    +0.014 A 
BRANCH   4   2
ATOM      1  C   UNL     1      -2.528   4.643  25.611  0.00  0.00    +0.112 C 
ATOM      2  N   UNL     1      -1.749   4.662  25.336  0.00  0.00    -0.304 N 
ATOM      3  C   UNL     1      -1.421   5.372  25.077  0.00  0.00    +0.112 C 
ENDBRANCH   4   2
ENDBRANCH   8   7
ENDBRANCH   9   8
TORSDOF 5
ENDMDL
MODEL 5
REMARK VINA RESULT:     -10.4      1.785      2.972
REMARK  Name = 
REMARK  5 active torsions:
REMARK  status: ('A' for Active; 'I' for Inactive)
REMARK    1  A    between atoms: N_2  and  C_4
REMARK    2  A    between atoms: C_7  and  C_8
REMARK    3  A    between atoms: C_8  and  N_9
REMARK    4  A    between atoms: C_12  and  C_14
REMARK    5  A    between atoms: C_19  and  C_23
REMARK                            x       y       z     vdW  Elec       q    Type
REMARK                         _______ _______ _______ _____ _____    ______ ____
ROOT
ATOM      9  N   UNL     1      -3.960  -0.772  25.043  0.00  0.00    -0.269 NA
ATOM     10  C   UNL     1      -4.407  -0.769  24.349  0.00  0.00    +0.073 C 
ATOM     11  C   UNL     1      -4.729  -0.015  24.257  0.00  0.00    +0.026 C 
ATOM     12  C   UNL     1      -4.482   0.448  24.895  0.00  0.00    +0.076 C 
ATOM     13  C   UNL     1      -4.007  -0.021  25.380  0.00  0.00    +0.080 C 
ENDROOT
BRANCH  12  14
ATOM     14  C   UNL     1      -4.676   1.239  25.024  0.00  0.00    +0.140 A 
ATOM     15  N   UNL     1      -5.355   1.517  25.400  0.00  0.00    -0.229 NA
ATOM     16  C   UNL     1      -5.324   2.340  25.407  0.00  0.00    +0.100 A 
ATOM     17  C   UNL     1      -4.625   2.572  25.036  0.00  0.00    +0.105 A 
ATOM     18  N   UNL     1      -4.224   1.892  24.799  0.00  0.00    -0.229 NA
ATOM     19  C   UNL     1      -4.444   3.374  24.962  0.00  0.00    +0.076 A 
ATOM     20  C   UNL     1      -4.961   3.943  25.259  0.00  0.00    +0.006 A 
ATOM     21  C   UNL     1      -5.660   3.711  25.631  0.00  0.00    +0.002 A 
ATOM     22  C   UNL     1      -5.842   2.910  25.705  0.00  0.00    +0.021 A 
BRANCH  19  23
ATOM     23  C   UNL     1      -3.745   3.606  24.591  0.00  0.00    +0.286 C 
ATOM     24  N   UNL     1      -3.075   3.779  25.042  0.00  0.00    -0.084 NA
ATOM     25  O   UNL     1      -3.714   3.666  23.769  0.00  0.00    -0.267 OA
ENDBRANCH  19  23
ENDBRANCH  12  14
BRANCH   9   8
ATOM      8  C   UNL     1      -3.541  -1.414  25.346  0.00  0.00    +0.099 C 
BRANCH   8   7
ATOM      4  C   UNL     1      -1.093  -1.565  25.012  0.00  0.00    +0.048 A 
ATOM      5  C   UNL     1      -1.604  -1.988  24.520  0.00  0.00    +0.014 A 
ATOM      6  C   UNL     1      -2.420  -1.938  24.632  0.00  0.00    -0.002 A 
ATOM      7  C   UNL     1      -2.725  -1.464  25.235  0.00  0.00    -0.006 A 
ATOM     26  C   UNL     1      -2.215  -1.042  25.726  0.00  0.00    -0.002 A 
ATOM     27  C   UNL     1      -1.398  -1.092  25.614  0.00  0.00    +0.014 A 
BRANCH   4   2
ATOM      1  C   UNL     1       0.101  -1.095  24.383  0.00  0.00    +0.112 C 
ATOM      2  N   UNL     1      -0.277  -1.615  24.899  0.00  0.00    -0.304 N 
ATOM      3  C   UNL     1       0.160  -2.186  25.303  0.00  0.00    +0.112 C 
ENDBRANCH   4   2
ENDBRANCH   8   7
ENDBRANCH   9   8
TORSDOF 5
ENDMDL
MODEL 6
REMARK VINA RESULT:     -10.3      1.917      5.089
REMARK  Name = 
REMARK  5 active torsions:
REMARK  status: ('A' for Active; 'I' for Inactive)
REMARK    1  A    between atoms: N_2  and  C_4
REMARK    2  A    between atoms: C_7  and  C_8
REMARK    3  A    between atoms: C_8  and  N_9
REMARK    4  A    between atoms: C_12  and  C_14
REMARK    5  A    between atoms: C_19  and  C_23
REMARK                            x       y       z     vdW  Elec       q    Type
REMARK                         _______ _______ _______ _____ _____    ______ ____
ROOT
ATOM      9  N   UNL     1      -1.831   2.258  24.885  0.00  0.00    -0.269 NA
ATOM     10  C   UNL     1      -1.182   2.154  25.384  0.00  0.00    +0.073 C 
ATOM     11  C   UNL     1      -1.033   1.344  25.443  0.00  0.00    +0.026 C 
ATOM     12  C   UNL     1      -1.591   0.948  24.981  0.00  0.00    +0.076 C 
ATOM     13  C   UNL     1      -2.083   1.513  24.636  0.00  0.00    +0.080 C 
ENDROOT
BRANCH  12  14
ATOM     14  C   UNL     1      -1.646   0.131  24.881  0.00  0.00    +0.140 A 
ATOM     15  N   UNL     1      -1.024  -0.377  24.692  0.00  0.00    -0.229 NA
ATOM     16  C   UNL     1      -1.326  -1.143  24.647  0.00  0.00    +0.100 A 
ATOM     17  C   UNL     1      -2.135  -1.108  24.808  0.00  0.00    +0.105 A 
ATOM     18  N   UNL     1      -2.332  -0.321  24.952  0.00  0.00    -0.229 NA
ATOM     19  C   UNL     1      -2.586  -1.799  24.801  0.00  0.00    +0.076 A 
ATOM     20  C   UNL     1      -2.229  -2.524  24.635  0.00  0.00    +0.006 A 
ATOM     21  C   UNL     1      -1.421  -2.558  24.474  0.00  0.00    +0.002 A 
ATOM     22  C   UNL     1      -0.969  -1.868  24.480  0.00  0.00    +0.021 A 
BRANCH  19  23
ATOM     23  C   UNL     1      -3.394  -1.765  24.962  0.00  0.00    +0.286 C 
ATOM     24  N   UNL     1      -3.938  -1.741  24.341  0.00  0.00    -0.084 NA
ATOM     25  O   UNL     1      -3.660  -1.754  25.743  0.00  0.00    -0.267 OA
ENDBRANCH  19  23
ENDBRANCH  12  14
BRANCH   9   8
ATOM      8  C   UNL     1      -2.168   2.980  24.673  0.00  0.00    +0.099 C 
BRANCH   8   7
ATOM      4  C   UNL     1      -4.511   3.482  25.291  0.00  0.00    +0.048 A 
ATOM      5  C   UNL     1      -4.339   3.169  24.548  0.00  0.00    +0.014 A 
ATOM      6  C   UNL     1      -3.558   3.001  24.341  0.00  0.00    -0.002 A 
ATOM      7  C   UNL     1      -2.949   3.148  24.879  0.00  0.00    -0.006 A 
ATOM     26  C   UNL     1      -3.121   3.461  25.622  0.00  0.00    -0.002 A 
ATOM     27  C   UNL     1      -3.903   3.628  25.828  0.00  0.00    +0.014 A 
BRANCH   4   2
ATOM      1  C   UNL     1      -5.797   3.040  25.732  0.00  0.00    +0.112 C 
ATOM      2  N   UNL     1      -5.293   3.649  25.497  0.00  0.00    -0.304 N 
ATOM      3  C   UNL     1      -5.570   4.425  25.467  0.00  0.00    +0.112 C 
ENDBRANCH   4   2
ENDBRANCH   8   7
ENDBRANCH   9   8
TORSDOF 5
ENDMDL
