MODEL 1
REMARK VINA RESULT:     -12.0      0.000      0.000
REMARK  Name = 
REMARK  4 active torsions:
REMARK  status: ('A' for Active; 'I' for Inactive)
REMARK    1  A    between atoms: O_2  and  C_3
REMARK    2  A    between atoms: C_6  and  N_7
REMARK    3  A    between atoms: N_10  and  C_11
REMARK    4  A    between atoms: C_17  and  N_20
REMARK                            x       y       z     vdW  Elec       q    Type
REMARK                         _______ _______ _______ _____ _____    ______ ____
ROOT
ATOM     11  C   UNL     1      -3.354   2.832  24.926  0.00  0.00    +0.158 C 
ATOM     12  C   UNL     1      -3.357   3.437  25.632  0.00  0.00    +0.170 C 
ATOM     13  C   UNL     1      -2.727   3.889  25.684  0.00  0.00    +0.176 C 
ATOM     14  O   UNL     1      -2.400   4.420  26.055  0.00  0.00    -0.327 OA
ATOM     15  C   UNL     1      -3.030   3.837  25.851  0.00  0.00    +0.253 C 
ATOM     16  O   UNL     1      -3.762   3.645  26.179  0.00  0.00    -0.327 OA
ATOM     17  C   UNL     1      -3.012   3.211  25.110  0.00  0.00    +0.147 C 
ATOM     18  C   UNL     1      -2.618   3.027  24.599  0.00  0.00    +0.194 C 
ATOM     19  O   UNL     1      -1.968   3.010  24.090  0.00  0.00    -0.220 OA
ENDROOT
BRANCH  17  20
ATOM     20  N   UNL     1      -2.321   3.661  25.113  0.00  0.00    -0.268 NA
ATOM     21  C   UNL     1      -2.305   4.396  24.737  0.00  0.00    +0.072 C 
ATOM     22  C   UNL     1      -1.614   4.846  24.740  0.00  0.00    +0.017 C 
ATOM     23  C   UNL     1      -0.939   4.562  25.119  0.00  0.00    +0.003 C 
ATOM     24  C   UNL     1      -0.954   3.828  25.494  0.00  0.00    +0.017 C 
ATOM     25  C   UNL     1      -1.645   3.378  25.492  0.00  0.00    +0.072 C 
ENDBRANCH  17  20
BRANCH  11  10
ATOM      7  N   UNL     1      -4.299   0.906  24.524  0.00  0.00    -0.161 NA
ATOM      8  C   UNL     1      -3.739   1.466  24.754  0.00  0.00    +0.344 C 
ATOM      9  O   UNL     1      -3.005   1.223  25.043  0.00  0.00    -0.249 OA
ATOM     10  N   UNL     1      -3.914   2.271  24.696  0.00  0.00    -0.183 NA
BRANCH   7   6
ATOM      3  C   UNL     1      -3.776  -1.507  24.699  0.00  0.00    +0.139 A 
ATOM      4  C   UNL     1      -3.901  -1.061  25.382  0.00  0.00    +0.038 A 
ATOM      5  C   UNL     1      -4.075  -0.258  25.324  0.00  0.00    +0.020 A 
ATOM      6  C   UNL     1      -4.124   0.102  24.582  0.00  0.00    +0.075 A 
ATOM     26  C   UNL     1      -4.000  -0.344  23.899  0.00  0.00    +0.020 A 
ATOM     27  C   UNL     1      -3.826  -1.148  23.958  0.00  0.00    +0.038 A 
BRANCH   3   2
ATOM      1  C   UNL     1      -2.838  -2.581  24.601  0.00  0.00    +0.252 C 
ATOM      2  O   UNL     1      -3.602  -2.312  24.758  0.00  0.00    -0.471 OA
ENDBRANCH   3   2
ENDBRANCH   7   6
ENDBRANCH  11  10
TORSDOF 4
ENDMDL
MODEL 2
REMARK VINA RESULT:     -11.5      1.829      5.252
REMARK  Name = 
REMARK  4 active torsions:
REMARK  status: ('A' for Active; 'I' for Inactive)
REMARK    1  A    between atoms: O_2  and  C_3
REMARK    2  A    between atoms: C_6  and  N_7
REMARK    3  A    between atoms: N_10  and  C_11
REMARK    4  A    between atoms: C_17  and  N_20
REMARK                            x       y       z     vdW  Elec       q    Type
REMARK                         _______ _______ _______ _____ _____    ______ ____
ROOT
ATOM     11  C   UNL     1      -2.046  -0.626  25.311  0.00  0.00    +0.158 C 
ATOM     12  C   UNL     1      -2.716  -0.957  25.863  0.00  0.00    +0.170 C 
ATOM     13  C   UNL     1      -3.267  -1.372  25.503  0.00  0.00    +0.176 C 
ATOM     14  O   UNL     1      -3.881  -1.750  25.584  0.00  0.00    -0.327 OA
ATOM     15  C   UNL     1      -3.186  -1.263  25.826  0.00  0.00    +0.253 C 
ATOM     16  O   UNL     1      -2.916  -0.965  26.546  0.00  0.00    -0.327 OA
ATOM     17  C   UNL     1      -2.492  -0.924  25.237  0.00  0.00    +0.147 C 
ATOM     18  C   UNL     1      -2.319  -0.927  24.589  0.00  0.00    +0.194 C 
ATOM     19  O   UNL     1      -2.350  -1.089  23.780  0.00  0.00    -0.220 OA
ENDROOT
BRANCH  17  20
ATOM     20  N   UNL     1      -3.045  -1.354  24.801  0.00  0.00    -0.268 NA
ATOM     21  C   UNL     1      -2.944  -2.166  24.692  0.00  0.00    +0.072 C 
ATOM     22  C   UNL     1      -3.497  -2.595  24.255  0.00  0.00    +0.017 C 
ATOM     23  C   UNL     1      -4.150  -2.213  23.928  0.00  0.00    +0.003 C 
ATOM     24  C   UNL     1      -4.252  -1.402  24.036  0.00  0.00    +0.017 C 
ATOM     25  C   UNL     1      -3.699  -0.972  24.473  0.00  0.00    +0.072 C 
ENDBRANCH  17  20
BRANCH  11  10
ATOM      7  N   UNL     1      -0.724   1.098  25.520  0.00  0.00    -0.161 NA
ATOM      8  C   UNL     1      -1.388   0.643  25.344  0.00  0.00    +0.344 C 
ATOM      9  O   UNL     1      -2.062   0.999  25.027  0.00  0.00    -0.249 OA
ATOM     10  N   UNL     1      -1.380  -0.170  25.487  0.00  0.00    -0.183 NA
BRANCH   7   6
ATOM      3  C   UNL     1      -0.747   3.536  25.094  0.00  0.00    +0.139 A 
ATOM      4  C   UNL     1      -0.506   3.016  24.501  0.00  0.00    +0.038 A 
ATOM      5  C   UNL     1      -0.498   2.204  24.642  0.00  0.00    +0.020 A 
ATOM      6  C   UNL     1      -0.731   1.911  25.378  0.00  0.00    +0.075 A 
ATOM     26  C   UNL     1      -0.972   2.431  25.971  0.00  0.00    +0.020 A 
ATOM     27  C   UNL     1      -0.980   3.244  25.829  0.00  0.00    +0.038 A 
BRANCH   3   2
ATOM      1  C   UNL     1      -1.433   4.790  25.115  0.00  0.00    +0.252 C 
ATOM      2  O   UNL     1      -0.755   4.349  24.951  0.00  0.00    -0.471 OA
ENDBRANCH   3   2
ENDBRANCH   7   6
ENDBRANCH  11  10
TORSDOF 4
ENDMDL
MODEL 3
REMARK VINA RESULT:     -11.2      0.917      4.971
REMARK  Name = 
REMARK  4 active torsions:
REMARK  status: ('A' for Active; 'I' for Inactive)
REMARK    1  A    between atoms: O_2  and  C_3
REMARK    2  A    between atoms: C_6  and  N_7
REMARK    3  A    between atoms: N_10  and  C_11
REMARK    4  A    between atoms: C_17  and  N_20
REMARK                            x       y       z     vdW  Elec       q    Type
REMARK                         _______ _______ _______ _____ _____    ______ ____
ROOT
ATOM     11  C   UNL     1      -4.043  -0.004  24.831  0.00  0.00    +0.158 C 
ATOM     12  C   UNL     1      -3.929  -0.585  25.547  0.00  0.00    +0.170 C 
ATOM     13  C   UNL     1      -3.638  -1.283  25.364  0.00  0.00    +0.176 C 
ATOM     14  O   UNL     1      -3.431  -1.930  25.619  0.00  0.00    -0.327 OA
ATOM     15  C   UNL     1      -3.747  -1.106  25.647  0.00  0.00    +0.253 C 
ATOM     16  O   UNL     1      -4.021  -0.617  26.253  0.00  0.00    -0.327 OA
ATOM     17  C   UNL     1      -3.860  -0.510  24.889  0.00  0.00    +0.147 C 
ATOM     18  C   UNL     1      -3.767  -0.497  24.225  0.00  0.00    +0.194 C 
ATOM     19  O   UNL     1      -3.560  -0.750  23.467  0.00  0.00    -0.220 OA
ENDROOT
BRANCH  17  20
ATOM     20  N   UNL     1      -3.550  -1.231  24.635  0.00  0.00    -0.268 NA
ATOM     21  C   UNL     1      -2.736  -1.365  24.666  0.00  0.00    +0.072 C 
ATOM     22  C   UNL     1      -2.427  -2.086  24.411  0.00  0.00    +0.017 C 
ATOM     23  C   UNL     1      -2.931  -2.673  24.125  0.00  0.00    +0.003 C 
ATOM     24  C   UNL     1      -3.744  -2.540  24.094  0.00  0.00    +0.017 C 
ATOM     25  C   UNL     1      -4.054  -1.819  24.349  0.00  0.00    +0.072 C 
ENDBRANCH  17  20
BRANCH  11  10
ATOM      7  N   UNL     1      -4.098   2.179  24.847  0.00  0.00    -0.161 NA
ATOM      8  C   UNL     1      -3.810   1.406  24.872  0.00  0.00    +0.344 C 
ATOM      9  O   UNL     1      -3.001   1.270  24.962  0.00  0.00    -0.249 OA
ATOM     10  N   UNL     1      -4.331   0.770  24.806  0.00  0.00    -0.183 NA
BRANCH   7   6
ATOM      3  C   UNL     1      -2.536   4.088  25.044  0.00  0.00    +0.139 A 
ATOM      4  C   UNL     1      -2.656   3.727  24.312  0.00  0.00    +0.038 A 
ATOM      5  C   UNL     1      -3.176   3.091  24.246  0.00  0.00    +0.020 A 
ATOM      6  C   UNL     1      -3.577   2.815  24.913  0.00  0.00    +0.075 A 
ATOM     26  C   UNL     1      -3.458   3.176  25.645  0.00  0.00    +0.020 A 
ATOM     27  C   UNL     1      -2.937   3.813  25.710  0.00  0.00    +0.038 A 
BRANCH   3   2
ATOM      1  C   UNL     1      -1.201   4.592  25.118  0.00  0.00    +0.252 C 
ATOM      2  O   UNL     1      -2.015   4.725  25.110  0.00  0.00    -0.471 OA
ENDBRANCH   3   2
ENDBRANCH   7   6
ENDBRANCH  11  10
TORSDOF 4
ENDMDL
MODEL 4
REMARK VINA RESULT:     -10.9      1.753      2.443
REMARK  Name = 
REMARK  4 active torsions:
REMARK  status: ('A' for Active; 'I' for Inactive)
REMARK    1  A    between atoms: O_2  and  C_3
REMARK    2  A    between atoms: C_6  and  N_7
REMARK    3  A    between atoms: N_10  and  C_11
REMARK    4  A    between atoms: C_17  and  N_20
REMARK                            x       y       z     vdW  Elec       q    Type
REMARK                         _______ _______ _______ _____ _____    ______ ____
ROOT
ATOM     11  C   UNL     1      -0.827   1.410  25.398  0.00  0.00    +0.158 C 
ATOM     12  C   UNL     1      -0.227   1.794  24.801  0.00  0.00    +0.170 C 
ATOM     13  C   UNL     1      -0.347   2.547  24.649  0.00  0.00    +0.176 C 
ATOM     14  O   UNL     1      -0.118   3.127  24.279  0.00  0.00    -0.327 OA
ATOM     15  C   UNL     1      -0.126   2.291  24.559  0.00  0.00    +0.253 C 
ATOM     16  O   UNL     1       0.343   1.629  24.407  0.00  0.00    -0.327 OA
ATOM     17  C   UNL     1      -0.760   1.903  25.184  0.00  0.00    +0.147 C 
ATOM     18  C   UNL     1      -1.296   2.076  25.549  0.00  0.00    +0.194 C 
ATOM     19  O   UNL     1      -1.897   2.543  25.869  0.00  0.00    -0.220 OA
ENDROOT
BRANCH  17  20
ATOM     20  N   UNL     1      -0.938   2.700  25.063  0.00  0.00    -0.268 NA
ATOM     21  C   UNL     1      -0.598   3.277  25.546  0.00  0.00    +0.072 C 
ATOM     22  C   UNL     1      -0.776   4.073  25.425  0.00  0.00    +0.017 C 
ATOM     23  C   UNL     1      -1.292   4.293  24.821  0.00  0.00    +0.003 C 
ATOM     24  C   UNL     1      -1.632   3.717  24.338  0.00  0.00    +0.017 C 
ATOM     25  C   UNL     1      -1.454   2.920  24.459  0.00  0.00    +0.072 C 
ENDBRANCH  17  20
BRANCH  11  10
ATOM      7  N   UNL     1      -1.495  -0.648  25.682  0.00  0.00    -0.161 NA
ATOM      8  C   UNL     1      -1.445   0.121  25.391  0.00  0.00    +0.344 C 
ATOM      9  O   UNL     1      -1.964   0.374  24.800  0.00  0.00    -0.249 OA
ATOM     10  N   UNL     1      -0.877   0.639  25.690  0.00  0.00    -0.183 NA
BRANCH   7   6
ATOM      3  C   UNL     1      -3.200  -2.202  24.784  0.00  0.00    +0.139 A 
ATOM      4  C   UNL     1      -3.401  -1.669  25.381  0.00  0.00    +0.038 A 
ATOM      5  C   UNL     1      -2.833  -1.152  25.680  0.00  0.00    +0.020 A 
ATOM      6  C   UNL     1      -2.064  -1.166  25.383  0.00  0.00    +0.075 A 
ATOM     26  C   UNL     1      -1.862  -1.699  24.786  0.00  0.00    +0.020 A 
ATOM     27  C   UNL     1      -2.431  -2.217  24.487  0.00  0.00    +0.038 A 
BRANCH   3   2
ATOM      1  C   UNL     1      -4.258  -2.482  23.865  0.00  0.00    +0.252 C 
ATOM      2  O   UNL     1      -3.769  -2.720  24.485  0.00  0.00    -0.471 OA
ENDBRANCH   3   2
ENDBRANCH   7   6
ENDBRANCH  11  10
TORSDOF 4
ENDMDL
