MODEL 1
REMARK VINA RESULT:      -8.8      0.000      0.000
REMARK  Name = 
REMARK  6 active torsions:
REMARK  status: ('A' for Active; 'I' for Inactive)
REMARK    1  A    between atoms: C_2  and  C_4
REMARK    2  A    between atoms: C_7  and  N_8
REMARK    3  A    between atoms: C_9  and  O_11
REMARK    4  A    between atoms: O_11  and  C_12
REMARK    5  A    between atoms: C_16  and  N_20
REMARK    6  A    between atoms: C_21  and  C_23
REMARK                            x       y       z     vdW  Elec       q    Type
REMARK                         _______ _______ _______ _____ _____    ______ ____
ROOT
ATOM     12  C   UNL     1      -0.910   0.516  23.954  0.00  0.00    +0.229 C 
ATOM     13  C   UNL     1      -0.579   1.034  24.503  0.00  0.00    +0.188 C 
ATOM     14  O   UNL     1       0.238   1.038  24.388  0.00  0.00    -0.348 OA
ATOM     15  C   UNL     1       0.412   0.524  23.768  0.00  0.00    +0.168 C 
ATOM     16  C   UNL     1       1.023   0.207  23.314  0.00  0.00    +0.155 C 
ATOM     17  C   UNL     1       0.692  -0.311  22.764  0.00  0.00    +0.166 C 
ATOM     18  O   UNL     1      -0.125  -0.316  22.879  0.00  0.00    -0.348 OA
ATOM     19  C   UNL     1      -0.298   0.200  23.500  0.00  0.00    +0.186 C 
ENDROOT
BRANCH  16  20
ATOM     20  N   UNL     1       1.826   0.380  23.395  0.00  0.00    -0.198 NA
ATOM     21  C   UNL     1       2.355   0.173  22.796  0.00  0.00    +0.268 C 
ATOM     22  O   UNL     1       2.081  -0.205  22.116  0.00  0.00    -0.268 OA
BRANCH  21  23
ATOM     23  C   UNL     1       3.158   0.346  22.877  0.00  0.00    +0.093 A 
ATOM     24  C   UNL     1       3.428   1.117  22.761  0.00  0.00    +0.107 A 
ATOM     25  N   UNL     1       4.230   1.290  22.842  0.00  0.00    -0.222 NA
ATOM     26  C   UNL     1       4.763   0.691  23.039  0.00  0.00    +0.199 A 
ATOM     27  N   UNL     1       4.493  -0.079  23.154  0.00  0.00    -0.222 NA
ATOM     28  C   UNL     1       3.690  -0.253  23.074  0.00  0.00    +0.107 A 
ENDBRANCH  21  23
ENDBRANCH  16  20
BRANCH  12  11
ATOM     11  O   UNL     1      -1.713   0.343  23.873  0.00  0.00    -0.432 OA
BRANCH  11   9
ATOM      8  N   UNL     1      -2.954   1.051  23.868  0.00  0.00    -0.142 NA
ATOM      9  C   UNL     1      -2.276   0.802  24.264  0.00  0.00    +0.425 C 
ATOM     10  O   UNL     1      -2.158   1.012  25.054  0.00  0.00    -0.224 OA
BRANCH   8   7
ATOM      4  C   UNL     1      -4.641   2.429  25.042  0.00  0.00    -0.022 A 
ATOM      5  C   UNL     1      -4.050   2.793  24.595  0.00  0.00    -0.003 A 
ATOM      6  C   UNL     1      -3.488   2.333  24.204  0.00  0.00    +0.016 A 
ATOM      7  C   UNL     1      -3.517   1.510  24.259  0.00  0.00    +0.077 A 
ATOM     29  C   UNL     1      -4.107   1.148  24.706  0.00  0.00    +0.016 A 
ATOM     30  C   UNL     1      -4.670   1.607  25.098  0.00  0.00    -0.003 A 
BRANCH   4   2
ATOM      1  C   UNL     1      -5.149   3.713  25.413  0.00  0.00    +0.005 C 
ATOM      2  C   UNL     1      -5.203   2.889  25.434  0.00  0.00    +0.022 C 
ATOM      3  C   UNL     1      -5.820   2.527  25.845  0.00  0.00    +0.005 C 
ENDBRANCH   4   2
ENDBRANCH   8   7
ENDBRANCH  11   9
ENDBRANCH  12  11
TORSDOF 6
ENDMDL
MODEL 2
REMARK VINA RESULT:      -7.5      1.249      6.887
REMARK  Name = 
REMARK  6 active torsions:
REMARK  status: ('A' for Active; 'I' for Inactive)
REMARK    1  A    between atoms: C_2  and  C_4
REMARK    2  A    between atoms: C_7  and  N_8
REMARK    3  A    between atoms: C_9  and  O_11
REMARK    4  A    between atoms: O_11  and  C_12
REMARK    5  A    between atoms: C_16  and  N_20
REMARK    6  A    between atoms: C_21  and  C_23
REMARK                            x       y       z     vdW  Elec       q    Type
REMARK                         _______ _______ _______ _____ _____    ______ ____
ROOT
ATOM     12  C   UNL     1      -0.275   0.671  23.526  0.00  0.00    +0.229 C 
ATOM     13  C   UNL     1      -0.256   0.548  24.341  0.00  0.00    +0.188 C 
ATOM     14  O   UNL     1      -0.913   0.922  24.670  0.00  0.00    -0.348 OA
ATOM     15  C   UNL     1      -1.338   1.276  24.060  0.00  0.00    +0.168 C 
ATOM     16  C   UNL     1      -2.007   1.726  23.884  0.00  0.00    +0.155 C 
ATOM     17  C   UNL     1      -2.027   1.849  23.069  0.00  0.00    +0.166 C 
ATOM     18  O   UNL     1      -1.370   1.474  22.740  0.00  0.00    -0.348 OA
ATOM     19  C   UNL     1      -0.944   1.120  23.352  0.00  0.00    +0.186 C 
ENDROOT
BRANCH  16  20
ATOM     20  N   UNL     1      -2.560   2.005  24.430  0.00  0.00    -0.198 NA
ATOM     21  C   UNL     1      -3.261   2.351  24.167  0.00  0.00    +0.268 C 
ATOM     22  O   UNL     1      -3.410   2.420  23.358  0.00  0.00    -0.268 OA
BRANCH  21  23
ATOM     23  C   UNL     1      -3.814   2.630  24.712  0.00  0.00    +0.093 A 
ATOM     24  C   UNL     1      -3.679   3.340  25.110  0.00  0.00    +0.107 A 
ATOM     25  N   UNL     1      -4.232   3.620  25.656  0.00  0.00    -0.222 NA
ATOM     26  C   UNL     1      -4.920   3.187  25.803  0.00  0.00    +0.199 A 
ATOM     27  N   UNL     1      -5.053   2.478  25.405  0.00  0.00    -0.222 NA
ATOM     28  C   UNL     1      -4.501   2.198  24.859  0.00  0.00    +0.107 A 
ENDBRANCH  21  23
ENDBRANCH  16  20
BRANCH  12  11
ATOM     11  O   UNL     1       0.278   0.392  22.980  0.00  0.00    -0.432 OA
BRANCH  11   9
ATOM      8  N   UNL     1       1.630   0.073  22.646  0.00  0.00    -0.142 NA
ATOM      9  C   UNL     1       1.082   0.412  23.161  0.00  0.00    +0.425 C 
ATOM     10  O   UNL     1       1.339   0.772  23.858  0.00  0.00    -0.224 OA
BRANCH   8   7
ATOM      4  C   UNL     1       4.044   0.132  23.189  0.00  0.00    -0.022 A 
ATOM      5  C   UNL     1       3.600  -0.544  23.356  0.00  0.00    -0.003 A 
ATOM      6  C   UNL     1       2.795  -0.563  23.175  0.00  0.00    +0.016 A 
ATOM      7  C   UNL     1       2.435   0.093  22.827  0.00  0.00    +0.077 A 
ATOM     29  C   UNL     1       2.879   0.767  22.661  0.00  0.00    +0.016 A 
ATOM     30  C   UNL     1       3.683   0.787  22.841  0.00  0.00    -0.003 A 
BRANCH   4   2
ATOM      1  C   UNL     1       5.248   0.872  23.397  0.00  0.00    +0.005 C 
ATOM      2  C   UNL     1       4.848   0.151  23.371  0.00  0.00    +0.022 C 
ATOM      3  C   UNL     1       5.254  -0.551  23.525  0.00  0.00    +0.005 C 
ENDBRANCH   4   2
ENDBRANCH   8   7
ENDBRANCH  11   9
ENDBRANCH  12  11
TORSDOF 6
ENDMDL
MODEL 3
REMARK VINA RESULT:      -7.5      3.249      4.970
REMARK  Name = 
REMARK  6 active torsions:
REMARK  status: ('A' for Active; 'I' for Inactive)
REMARK    1  A    between atoms: C_2  and  C_4
REMARK    2  A    between atoms: C_7  and  N_8
REMARK    3  A    between atoms: C_9  and  O_11
REMARK    4  A    between atoms: O_11  and  C_12
REMARK    5  A    between atoms: C_16  and  N_20
REMARK    6  A    between atoms: C_21  and  C_23
REMARK                            x       y       z     vdW  Elec       q    Type
REMARK                         _______ _______ _______ _____ _____    ______ ____
ROOT
ATOM     12  C   UNL     1      -0.304   0.509  24.698  0.00  0.00    +0.229 C 
ATOM     13  C   UNL     1      -0.218   0.836  23.946  0.00  0.00    +0.188 C 
ATOM     14  O   UNL     1      -0.275   1.655  24.017  0.00  0.00    -0.348 OA
ATOM     15  C   UNL     1      -0.396   1.835  24.812  0.00  0.00    +0.168 C 
ATOM     16  C   UNL     1      -0.506   2.452  25.349  0.00  0.00    +0.155 C 
ATOM     17  C   UNL     1      -0.592   2.125  26.101  0.00  0.00    +0.166 C 
ATOM     18  O   UNL     1      -0.535   1.306  26.030  0.00  0.00    -0.348 OA
ATOM     19  C   UNL     1      -0.414   1.126  25.233  0.00  0.00    +0.186 C 
ENDROOT
BRANCH  16  20
ATOM     20  N   UNL     1      -0.527   3.256  25.164  0.00  0.00    -0.198 NA
ATOM     21  C   UNL     1      -1.185   3.710  25.369  0.00  0.00    +0.268 C 
ATOM     22  O   UNL     1      -1.823   3.360  25.757  0.00  0.00    -0.268 OA
BRANCH  21  23
ATOM     23  C   UNL     1      -1.206   4.514  25.184  0.00  0.00    +0.093 A 
ATOM     24  C   UNL     1      -0.553   4.873  24.830  0.00  0.00    +0.107 A 
ATOM     25  N   UNL     1      -0.573   5.677  24.645  0.00  0.00    -0.222 NA
ATOM     26  C   UNL     1      -1.248   6.121  24.816  0.00  0.00    +0.199 A 
ATOM     27  N   UNL     1      -1.900   5.762  25.170  0.00  0.00    -0.222 NA
ATOM     28  C   UNL     1      -1.880   4.958  25.355  0.00  0.00    +0.107 A 
ENDBRANCH  21  23
ENDBRANCH  16  20
BRANCH  12  11
ATOM     11  O   UNL     1      -0.283  -0.296  24.883  0.00  0.00    -0.432 OA
BRANCH  11   9
ATOM      8  N   UNL     1      -1.498  -1.000  25.147  0.00  0.00    -0.142 NA
ATOM      9  C   UNL     1      -0.890  -0.793  24.629  0.00  0.00    +0.425 C 
ATOM     10  O   UNL     1      -0.890  -1.084  23.857  0.00  0.00    -0.224 OA
BRANCH   8   7
ATOM      4  C   UNL     1      -3.321  -2.491  24.387  0.00  0.00    -0.022 A 
ATOM      5  C   UNL     1      -3.481  -1.701  24.564  0.00  0.00    -0.003 A 
ATOM      6  C   UNL     1      -2.873  -1.205  24.818  0.00  0.00    +0.016 A 
ATOM      7  C   UNL     1      -2.105  -1.497  24.894  0.00  0.00    +0.077 A 
ATOM     29  C   UNL     1      -1.946  -2.287  24.717  0.00  0.00    +0.016 A 
ATOM     30  C   UNL     1      -2.553  -2.784  24.464  0.00  0.00    -0.003 A 
BRANCH   4   2
ATOM      1  C   UNL     1      -3.904  -3.794  24.311  0.00  0.00    +0.005 C 
ATOM      2  C   UNL     1      -3.929  -2.988  24.134  0.00  0.00    +0.022 C 
ATOM      3  C   UNL     1      -4.562  -2.680  23.704  0.00  0.00    +0.005 C 
ENDBRANCH   4   2
ENDBRANCH   8   7
ENDBRANCH  11   9
ENDBRANCH  12  11
TORSDOF 6
ENDMDL
MODEL 4
REMARK VINA RESULT:      -7.5      3.197      5.189
REMARK  Name = 
REMARK  6 active torsions:
REMARK  status: ('A' for Active; 'I' for Inactive)
REMARK    1  A    between atoms: C_2  and  C_4
REMARK    2  A    between atoms: C_7  and  N_8
REMARK    3  A    between atoms: C_9  and  O_11
REMARK    4  A    between atoms: O_11  and  C_12
REMARK    5  A    between atoms: C_16  and  N_20
REMARK    6  A    between atoms: C_21  and  C_23
REMARK                            x       y       z     vdW  Elec       q    Type
REMARK                         _______ _______ _______ _____ _____    ______ ____
ROOT
ATOM     12  C   UNL     1      -0.444   0.580  24.790  0.00  0.00    +0.229 C 
ATOM     13  C   UNL     1      -0.413   0.328  24.005  0.00  0.00    +0.188 C 
ATOM     14  O   UNL     1      -0.929  -0.310  23.923  0.00  0.00    -0.348 OA
ATOM     15  C   UNL     1      -1.278  -0.454  24.655  0.00  0.00    +0.168 C 
ATOM     16  C   UNL     1      -1.812  -0.936  25.058  0.00  0.00    +0.155 C 
ATOM     17  C   UNL     1      -1.842  -0.685  25.843  0.00  0.00    +0.166 C 
ATOM     18  O   UNL     1      -1.327  -0.046  25.926  0.00  0.00    -0.348 OA
ATOM     19  C   UNL     1      -0.978   0.097  25.192  0.00  0.00    +0.186 C 
ENDROOT
BRANCH  16  20
ATOM     20  N   UNL     1      -2.240  -1.562  24.733  0.00  0.00    -0.198 NA
ATOM     21  C   UNL     1      -3.061  -1.584  24.810  0.00  0.00    +0.268 C 
ATOM     22  O   UNL     1      -3.454  -0.980  25.212  0.00  0.00    -0.268 OA
BRANCH  21  23
ATOM     23  C   UNL     1      -3.490  -2.209  24.484  0.00  0.00    +0.093 A 
ATOM     24  C   UNL     1      -3.328  -2.985  24.714  0.00  0.00    +0.107 A 
ATOM     25  N   UNL     1      -3.756  -3.610  24.389  0.00  0.00    -0.222 NA
ATOM     26  C   UNL     1      -4.347  -3.459  23.832  0.00  0.00    +0.199 A 
ATOM     27  N   UNL     1      -4.509  -2.684  23.603  0.00  0.00    -0.222 NA
ATOM     28  C   UNL     1      -4.081  -2.059  23.928  0.00  0.00    +0.107 A 
ENDBRANCH  21  23
ENDBRANCH  16  20
BRANCH  12  11
ATOM     11  O   UNL     1      -0.015   1.205  25.116  0.00  0.00    -0.432 OA
BRANCH  11   9
ATOM      8  N   UNL     1      -0.533   2.449  25.591  0.00  0.00    -0.142 NA
ATOM      9  C   UNL     1      -0.248   1.984  24.973  0.00  0.00    +0.425 C 
ATOM     10  O   UNL     1      -0.195   2.297  24.211  0.00  0.00    -0.224 OA
BRANCH   8   7
ATOM      4  C   UNL     1      -1.233   4.785  25.163  0.00  0.00    -0.022 A 
ATOM      5  C   UNL     1      -1.781   4.234  25.441  0.00  0.00    -0.003 A 
ATOM      6  C   UNL     1      -1.547   3.456  25.583  0.00  0.00    +0.016 A 
ATOM      7  C   UNL     1      -0.766   3.228  25.448  0.00  0.00    +0.077 A 
ATOM     29  C   UNL     1      -0.219   3.778  25.171  0.00  0.00    +0.016 A 
ATOM     30  C   UNL     1      -0.451   4.557  25.028  0.00  0.00    -0.003 A 
BRANCH   4   2
ATOM      1  C   UNL     1      -2.222   5.813  25.239  0.00  0.00    +0.005 C 
ATOM      2  C   UNL     1      -1.466   5.563  25.021  0.00  0.00    +0.022 C 
ATOM      3  C   UNL     1      -0.945   6.091  24.661  0.00  0.00    +0.005 C 
ENDBRANCH   4   2
ENDBRANCH   8   7
ENDBRANCH  11   9
ENDBRANCH  12  11
TORSDOF 6
ENDMDL
MODEL 5
REMARK VINA RESULT:      -6.5      1.549      2.328
REMARK  Name = 
REMARK  6 active torsions:
REMARK  status: ('A' for Active; 'I' for Inactive)
REMARK    1  A    between atoms: C_2  and  C_4
REMARK    2  A    between atoms: C_7  and  N_8
REMARK    3  A    between atoms: C_9  and  O_11
REMARK    4  A    between atoms: O_11  and  C_12
REMARK    5  A    between atoms: C_16  and  N_20
REMARK    6  A    between atoms: C_21  and  C_23
REMARK                            x       y       z     vdW  Elec       q    Type
REMARK                         _______ _______ _______ _____ _____    ______ ____
ROOT
ATOM     12  C   UNL     1      -1.205   3.347  24.725  0.00  0.00    +0.229 C 
ATOM     13  C   UNL     1      -1.036   3.616  23.963  0.00  0.00    +0.188 C 
ATOM     14  O   UNL     1      -0.404   3.173  23.673  0.00  0.00    -0.348 OA
ATOM     15  C   UNL     1      -0.182   2.632  24.253  0.00  0.00    +0.168 C 
ATOM     16  C   UNL     1       0.345   2.023  24.434  0.00  0.00    +0.155 C 
ATOM     17  C   UNL     1       0.176   1.755  25.195  0.00  0.00    +0.166 C 
ATOM     18  O   UNL     1      -0.457   2.197  25.485  0.00  0.00    -0.348 OA
ATOM     19  C   UNL     1      -0.678   2.739  24.904  0.00  0.00    +0.186 C 
ENDROOT
BRANCH  16  20
ATOM     20  N   UNL     1       0.939   1.734  23.938  0.00  0.00    -0.198 NA
ATOM     21  C   UNL     1       0.958   0.933  23.743  0.00  0.00    +0.268 C 
ATOM     22  O   UNL     1       0.385   0.420  24.042  0.00  0.00    -0.268 OA
BRANCH  21  23
ATOM     23  C   UNL     1       1.552   0.644  23.247  0.00  0.00    +0.093 A 
ATOM     24  C   UNL     1       2.324   0.925  23.321  0.00  0.00    +0.107 A 
ATOM     25  N   UNL     1       2.918   0.636  22.826  0.00  0.00    -0.222 NA
ATOM     26  C   UNL     1       2.738   0.065  22.257  0.00  0.00    +0.199 A 
ATOM     27  N   UNL     1       1.966  -0.215  22.184  0.00  0.00    -0.222 NA
ATOM     28  C   UNL     1       1.373   0.074  22.679  0.00  0.00    +0.107 A 
ENDBRANCH  21  23
ENDBRANCH  16  20
BRANCH  12  11
ATOM     11  O   UNL     1      -1.799   3.636  25.220  0.00  0.00    -0.432 OA
BRANCH  11   9
ATOM      8  N   UNL     1      -2.997   3.073  25.757  0.00  0.00    -0.142 NA
ATOM      9  C   UNL     1      -2.579   3.386  25.119  0.00  0.00    +0.425 C 
ATOM     10  O   UNL     1      -2.940   3.450  24.379  0.00  0.00    -0.224 OA
BRANCH   8   7
ATOM      4  C   UNL     1      -5.337   2.322  25.455  0.00  0.00    -0.022 A 
ATOM      5  C   UNL     1      -4.713   1.809  25.285  0.00  0.00    -0.003 A 
ATOM      6  C   UNL     1      -3.934   2.060  25.386  0.00  0.00    +0.016 A 
ATOM      7  C   UNL     1      -3.777   2.823  25.656  0.00  0.00    +0.077 A 
ATOM     29  C   UNL     1      -4.400   3.336  25.826  0.00  0.00    +0.016 A 
ATOM     30  C   UNL     1      -5.180   3.086  25.726  0.00  0.00    -0.003 A 
BRANCH   4   2
ATOM      1  C   UNL     1      -6.600   1.955  26.013  0.00  0.00    +0.005 C 
ATOM      2  C   UNL     1      -6.116   2.072  25.354  0.00  0.00    +0.022 C 
ATOM      3  C   UNL     1      -6.412   1.937  24.596  0.00  0.00    +0.005 C 
ENDBRANCH   4   2
ENDBRANCH   8   7
ENDBRANCH  11   9
ENDBRANCH  12  11
TORSDOF 6
ENDMDL
MODEL 6
REMARK VINA RESULT:      -6.5      4.187      5.486
REMARK  Name = 
REMARK  6 active torsions:
REMARK  status: ('A' for Active; 'I' for Inactive)
REMARK    1  A    between atoms: C_2  and  C_4
REMARK    2  A    between atoms: C_7  and  N_8
REMARK    3  A    between atoms: C_9  and  O_11
REMARK    4  A    between atoms: O_11  and  C_12
REMARK    5  A    between atoms: C_16  and  N_20
REMARK    6  A    between atoms: C_21  and  C_23
REMARK                            x       y       z     vdW  Elec       q    Type
REMARK                         _______ _______ _______ _____ _____    ______ ____
ROOT
ATOM     12  C   UNL     1      -4.414   1.774  24.492  0.00  0.00    +0.229 C 
ATOM     13  C   UNL     1      -4.105   1.938  23.745  0.00  0.00    +0.188 C 
ATOM     14  O   UNL     1      -3.626   2.606  23.809  0.00  0.00    -0.348 OA
ATOM     15  C   UNL     1      -3.638   2.856  24.594  0.00  0.00    +0.168 C 
ATOM     16  C   UNL     1      -3.351   3.422  25.121  0.00  0.00    +0.155 C 
ATOM     17  C   UNL     1      -3.660   3.258  25.867  0.00  0.00    +0.166 C 
ATOM     18  O   UNL     1      -4.139   2.590  25.804  0.00  0.00    -0.348 OA
ATOM     19  C   UNL     1      -4.126   2.341  25.017  0.00  0.00    +0.186 C 
ENDROOT
BRANCH  16  20
ATOM     20  N   UNL     1      -2.842   4.045  24.932  0.00  0.00    -0.198 NA
ATOM     21  C   UNL     1      -2.116   4.115  25.317  0.00  0.00    +0.268 C 
ATOM     22  O   UNL     1      -1.898   3.564  25.891  0.00  0.00    -0.268 OA
BRANCH  21  23
ATOM     23  C   UNL     1      -1.608   4.738  25.128  0.00  0.00    +0.093 A 
ATOM     24  C   UNL     1      -1.865   5.518  25.204  0.00  0.00    +0.107 A 
ATOM     25  N   UNL     1      -1.358   6.141  25.015  0.00  0.00    -0.222 NA
ATOM     26  C   UNL     1      -0.592   5.981  24.751  0.00  0.00    +0.199 A 
ATOM     27  N   UNL     1      -0.336   5.202  24.675  0.00  0.00    -0.222 NA
ATOM     28  C   UNL     1      -0.843   4.579  24.864  0.00  0.00    +0.107 A 
ENDBRANCH  21  23
ENDBRANCH  16  20
BRANCH  12  11
ATOM     11  O   UNL     1      -4.922   1.152  24.681  0.00  0.00    -0.432 OA
BRANCH  11   9
ATOM      8  N   UNL     1      -4.329  -0.024  24.127  0.00  0.00    -0.142 NA
ATOM      9  C   UNL     1      -4.622   0.389  24.777  0.00  0.00    +0.425 C 
ATOM     10  O   UNL     1      -4.618   0.040  25.525  0.00  0.00    -0.224 OA
BRANCH   8   7
ATOM      4  C   UNL     1      -3.431  -2.313  24.416  0.00  0.00    -0.022 A 
ATOM      5  C   UNL     1      -4.139  -2.196  24.008  0.00  0.00    -0.003 A 
ATOM      6  C   UNL     1      -4.438  -1.433  23.912  0.00  0.00    +0.016 A 
ATOM      7  C   UNL     1      -4.029  -0.787  24.224  0.00  0.00    +0.077 A 
ATOM     29  C   UNL     1      -3.322  -0.905  24.631  0.00  0.00    +0.016 A 
ATOM     30  C   UNL     1      -3.023  -1.668  24.727  0.00  0.00    -0.003 A 
BRANCH   4   2
ATOM      1  C   UNL     1      -3.639  -3.693  24.721  0.00  0.00    +0.005 C 
ATOM      2  C   UNL     1      -3.133  -3.076  24.512  0.00  0.00    +0.022 C 
ATOM      3  C   UNL     1      -2.329  -3.222  24.398  0.00  0.00    +0.005 C 
ENDBRANCH   4   2
ENDBRANCH   8   7
ENDBRANCH  11   9
ENDBRANCH  12  11
TORSDOF 6
ENDMDL
MODEL 7
REMARK VINA RESULT:      -6.0      1.450      2.058
REMARK  Name = 
REMARK  6 active torsions:
REMARK  status: ('A' for Active; 'I' for Inactive)
REMARK    1  A    between atoms: C_2  and  C_4
REMARK    2  A    between atoms: C_7  and  N_8
REMARK    3  A    between atoms: C_9  and  O_11
REMARK    4  A    between atoms: O_11  and  C_12
REMARK    5  A    between atoms: C_16  and  N_20
REMARK    6  A    between atoms: C_21  and  C_23
REMARK                            x       y       z     vdW  Elec       q    Type
REMARK                         _______ _______ _______ _____ _____    ______ ____
ROOT
ATOM     12  C   UNL     1      -2.007  -1.179  24.707  0.00  0.00    +0.229 C 
ATOM     13  C   UNL     1      -1.980  -1.650  24.030  0.00  0.00    +0.188 C 
ATOM     14  O   UNL     1      -1.253  -1.523  23.662  0.00  0.00    -0.348 OA
ATOM     15  C   UNL     1      -0.831  -0.976  24.110  0.00  0.00    +0.168 C 
ATOM     16  C   UNL     1      -0.121  -0.559  24.161  0.00  0.00    +0.155 C 
ATOM     17  C   UNL     1      -0.148  -0.088  24.838  0.00  0.00    +0.166 C 
ATOM     18  O   UNL     1      -0.875  -0.214  25.206  0.00  0.00    -0.348 OA
ATOM     19  C   UNL     1      -1.297  -0.763  24.756  0.00  0.00    +0.186 C 
ENDROOT
BRANCH  16  20
ATOM     20  N   UNL     1       0.507  -0.605  23.627  0.00  0.00    -0.198 NA
ATOM     21  C   UNL     1       0.871   0.085  23.358  0.00  0.00    +0.268 C 
ATOM     22  O   UNL     1       0.608   0.821  23.622  0.00  0.00    -0.268 OA
BRANCH  21  23
ATOM     23  C   UNL     1       1.499   0.039  22.824  0.00  0.00    +0.093 A 
ATOM     24  C   UNL     1       2.255   0.275  23.055  0.00  0.00    +0.107 A 
ATOM     25  N   UNL     1       2.883   0.229  22.522  0.00  0.00    -0.222 NA
ATOM     26  C   UNL     1       2.753  -0.052  21.757  0.00  0.00    +0.199 A 
ATOM     27  N   UNL     1       1.998  -0.287  21.526  0.00  0.00    -0.222 NA
ATOM     28  C   UNL     1       1.370  -0.242  22.059  0.00  0.00    +0.107 A 
ENDBRANCH  21  23
ENDBRANCH  16  20
BRANCH  12  11
ATOM     11  O   UNL     1      -2.635  -1.133  25.240  0.00  0.00    -0.432 OA
BRANCH  11   9
ATOM      8  N   UNL     1      -3.369   0.058  25.532  0.00  0.00    -0.142 NA
ATOM      9  C   UNL     1      -3.271  -0.630  25.088  0.00  0.00    +0.425 C 
ATOM     10  O   UNL     1      -3.809  -0.816  24.490  0.00  0.00    -0.224 OA
BRANCH   8   7
ATOM      4  C   UNL     1      -5.276   1.567  25.075  0.00  0.00    -0.022 A 
ATOM      5  C   UNL     1      -5.392   0.875  25.509  0.00  0.00    -0.003 A 
ATOM      6  C   UNL     1      -4.756   0.372  25.661  0.00  0.00    +0.016 A 
ATOM      7  C   UNL     1      -4.004   0.561  25.379  0.00  0.00    +0.077 A 
ATOM     29  C   UNL     1      -3.888   1.253  24.946  0.00  0.00    +0.016 A 
ATOM     30  C   UNL     1      -4.524   1.756  24.793  0.00  0.00    -0.003 A 
BRANCH   4   2
ATOM      1  C   UNL     1      -5.870   2.865  25.140  0.00  0.00    +0.005 C 
ATOM      2  C   UNL     1      -5.912   2.070  24.923  0.00  0.00    +0.022 C 
ATOM      3  C   UNL     1      -6.590   1.778  24.554  0.00  0.00    +0.005 C 
ENDBRANCH   4   2
ENDBRANCH   8   7
ENDBRANCH  11   9
ENDBRANCH  12  11
TORSDOF 6
ENDMDL
