REMARK  Name = 
REMARK  3 active torsions:
REMARK  status: ('A' for Active; 'I' for Inactive)
REMARK    1  A    between atoms: C_3  and  N_7
REMARK    2  A    between atoms: C_12  and  C_13
REMARK    3  A    between atoms: C_15  and  C_18
REMARK                            x       y       z     vdW  Elec       q    Type
REMARK                         _______ _______ _______ _____ _____    ______ ____
ROOT
ATOM      7  N   UNL     1       0.000   0.000   0.000  0.00  0.00    -0.265 NA
ATOM      8  C   UNL     1       0.000   0.825   0.000  0.00  0.00    +0.105 C 
ATOM      9  C   UNL     1       0.715   1.238   0.000  0.00  0.00    +0.160 C 
ATOM     10  O   UNL     1       1.429   0.825   0.000  0.00  0.00    -0.350 OA
ATOM     11  C   UNL     1       1.429   0.000   0.000  0.00  0.00    +0.166 C 
ATOM     12  C   UNL     1       0.715  -0.412   0.000  0.00  0.00    +0.147 C 
ENDROOT
BRANCH   7   3
ATOM      1  C   UNL     1      -2.143  -0.412   0.000  0.00  0.00    +0.090 C 
ATOM      2  C   UNL     1      -1.429   0.000   0.000  0.00  0.00    +0.035 C 
ATOM      3  C   UNL     1      -0.715  -0.412   0.000  0.00  0.00    +0.061 C 
ATOM      4  C   UNL     1      -0.715  -1.238   0.000  0.00  0.00    +0.035 C 
ATOM      5  C   UNL     1      -1.429  -1.650   0.000  0.00  0.00    +0.090 C 
ATOM      6  N   UNL     1      -2.143  -1.238   0.000  0.00  0.00    -0.218 NA
ENDBRANCH   7   3
BRANCH  12  13
ATOM     13  C   UNL     1       0.715  -1.238   0.000  0.00  0.00    +0.156 A 
ATOM     14  N   UNL     1       1.382  -1.722   0.000  0.00  0.00    -0.228 NA
ATOM     15  C   UNL     1       1.127  -2.507   0.000  0.00  0.00    +0.103 A 
ATOM     16  C   UNL     1       0.302  -2.507   0.000  0.00  0.00    +0.119 A 
ATOM     17  N   UNL     1       0.047  -1.722   0.000  0.00  0.00    -0.226 NA
BRANCH  15  18
ATOM     18  C   UNL     1       1.612  -3.175   0.000  0.00  0.00    +0.038 A 
ATOM     19  C   UNL     1       2.432  -3.088   0.000  0.00  0.00    +0.005 A 
ATOM     20  C   UNL     1       2.917  -3.756   0.000  0.00  0.00    +0.021 A 
ATOM     21  C   UNL     1       2.582  -4.509   0.000  0.00  0.00    +0.099 A 
ATOM     22  N   UNL     1       1.761  -4.596   0.000  0.00  0.00    -0.242 NA
ATOM     23  C   UNL     1       1.276  -3.928   0.000  0.00  0.00    +0.100 A 
ENDBRANCH  15  18
ENDBRANCH  12  13
TORSDOF 3
