MODEL 1
REMARK VINA RESULT:      -9.1      0.000      0.000
REMARK  Name = 
REMARK  8 active torsions:
REMARK  status: ('A' for Active; 'I' for Inactive)
REMARK    1  A    between atoms: O_2  and  C_3
REMARK    2  A    between atoms: C_6  and  C_7
REMARK    3  A    between atoms: C_7  and  N_8
REMARK    4  A    between atoms: C_9  and  C_15
REMARK    5  A    between atoms: C_15  and  C_17
REMARK    6  A    between atoms: C_20  and  N_21
REMARK    7  A    between atoms: C_22  and  C_24
REMARK    8  A    between atoms: C_27  and  C_30
REMARK                            x       y       z     vdW  Elec       q    Type
REMARK                         _______ _______ _______ _____ _____    ______ ____
ROOT
ATOM     17  C   UNL     1      -1.836  -0.959  25.067  0.00  0.00    +0.010 A 
ATOM     18  C   UNL     1      -1.453  -1.512  24.589  0.00  0.00    -0.000 A 
ATOM     19  C   UNL     1      -0.693  -1.356  24.305  0.00  0.00    +0.016 A 
ATOM     20  C   UNL     1      -0.318  -0.648  24.500  0.00  0.00    +0.074 A 
ATOM     34  C   UNL     1      -0.700  -0.096  24.977  0.00  0.00    +0.016 A 
ATOM     35  C   UNL     1      -1.460  -0.252  25.261  0.00  0.00    -0.000 A 
ENDROOT
BRANCH  20  21
ATOM     21  N   UNL     1       0.441  -0.493  24.217  0.00  0.00    -0.175 NA
ATOM     22  C   UNL     1       0.543  -0.018  23.550  0.00  0.00    +0.269 C 
ATOM     23  O   UNL     1      -0.113   0.301  23.166  0.00  0.00    -0.268 OA
BRANCH  22  24
ATOM     24  C   UNL     1       1.302   0.137  23.267  0.00  0.00    +0.055 A 
ATOM     25  C   UNL     1       1.714   0.802  23.531  0.00  0.00    +0.004 A 
ATOM     26  C   UNL     1       2.473   0.958  23.247  0.00  0.00    -0.004 A 
ATOM     27  C   UNL     1       2.821   0.448  22.700  0.00  0.00    -0.023 A 
ATOM     28  C   UNL     1       2.410  -0.217  22.436  0.00  0.00    -0.004 A 
ATOM     29  C   UNL     1       1.651  -0.372  22.719  0.00  0.00    +0.004 A 
BRANCH  27  30
ATOM     30  C   UNL     1       3.579   0.603  22.416  0.00  0.00    +0.019 C 
ATOM     31  C   UNL     1       4.339   0.759  22.133  0.00  0.00    +0.004 C 
ATOM     32  C   UNL     1       3.815   0.831  23.173  0.00  0.00    +0.004 C 
ATOM     33  C   UNL     1       3.344   0.375  21.660  0.00  0.00    +0.004 C 
ENDBRANCH  27  30
ENDBRANCH  22  24
ENDBRANCH  20  21
BRANCH  17  15
ATOM     15  C   UNL     1      -2.595  -1.115  25.350  0.00  0.00    +0.195 C 
ATOM     16  O   UNL     1      -2.746  -1.092  26.161  0.00  0.00    -0.216 OA
BRANCH  15   9
ATOM      8  N   UNL     1      -3.903  -0.856  24.837  0.00  0.00    -0.270 N 
ATOM      9  C   UNL     1      -3.204  -1.293  24.823  0.00  0.00    +0.140 C 
ATOM     10  C   UNL     1      -3.113  -1.910  24.282  0.00  0.00    +0.165 C 
ATOM     11  O   UNL     1      -3.722  -2.088  23.754  0.00  0.00    -0.343 OA
ATOM     12  C   UNL     1      -4.422  -1.651  23.768  0.00  0.00    +0.227 C 
ATOM     13  C   UNL     1      -4.512  -1.035  24.310  0.00  0.00    +0.256 C 
ATOM     14  O   UNL     1      -5.211  -0.598  24.324  0.00  0.00    -0.272 OA
BRANCH   8   7
ATOM      7  C   UNL     1      -3.994  -0.240  25.378  0.00  0.00    +0.120 C 
BRANCH   7   6
ATOM      3  C   UNL     1      -4.787   1.975  24.610  0.00  0.00    +0.139 A 
ATOM      4  C   UNL     1      -5.220   1.553  25.171  0.00  0.00    +0.037 A 
ATOM      5  C   UNL     1      -4.956   0.815  25.427  0.00  0.00    +0.001 A 
ATOM      6  C   UNL     1      -4.258   0.498  25.122  0.00  0.00    -0.002 A 
ATOM     36  C   UNL     1      -3.825   0.920  24.561  0.00  0.00    +0.001 A 
ATOM     37  C   UNL     1      -4.090   1.657  24.305  0.00  0.00    +0.037 A 
BRANCH   3   2
ATOM      1  C   UNL     1      -4.794   3.398  24.734  0.00  0.00    +0.252 C 
ATOM      2  O   UNL     1      -5.052   2.713  24.354  0.00  0.00    -0.471 OA
ENDBRANCH   3   2
ENDBRANCH   7   6
ENDBRANCH   8   7
ENDBRANCH  15   9
ENDBRANCH  17  15
TORSDOF 8
ENDMDL
MODEL 2
REMARK VINA RESULT:      -8.7      1.121      1.572
REMARK  Name = 
REMARK  8 active torsions:
REMARK  status: ('A' for Active; 'I' for Inactive)
REMARK    1  A    between atoms: O_2  and  C_3
REMARK    2  A    between atoms: C_6  and  C_7
REMARK    3  A    between atoms: C_7  and  N_8
REMARK    4  A    between atoms: C_9  and  C_15
REMARK    5  A    between atoms: C_15  and  C_17
REMARK    6  A    between atoms: C_20  and  N_21
REMARK    7  A    between atoms: C_22  and  C_24
REMARK    8  A    between atoms: C_27  and  C_30
REMARK                            x       y       z     vdW  Elec       q    Type
REMARK                         _______ _______ _______ _____ _____    ______ ____
ROOT
ATOM     17  C   UNL     1      -1.549   0.338  23.893  0.00  0.00    +0.010 A 
ATOM     18  C   UNL     1      -1.143   1.047  24.004  0.00  0.00    -0.000 A 
ATOM     19  C   UNL     1      -0.317   1.056  23.987  0.00  0.00    +0.016 A 
ATOM     20  C   UNL     1       0.100   0.356  23.860  0.00  0.00    +0.074 A 
ATOM     34  C   UNL     1      -0.306  -0.352  23.750  0.00  0.00    +0.016 A 
ATOM     35  C   UNL     1      -1.132  -0.361  23.766  0.00  0.00    -0.000 A 
ENDROOT
BRANCH  20  21
ATOM     21  N   UNL     1       0.925   0.365  23.844  0.00  0.00    -0.175 NA
ATOM     22  C   UNL     1       1.325   0.213  23.139  0.00  0.00    +0.269 C 
ATOM     23  O   UNL     1       0.901   0.051  22.450  0.00  0.00    -0.268 OA
BRANCH  22  24
ATOM     24  C   UNL     1       2.150   0.222  23.122  0.00  0.00    +0.055 A 
ATOM     25  C   UNL     1       2.553   0.935  23.018  0.00  0.00    +0.004 A 
ATOM     26  C   UNL     1       3.378   0.944  23.002  0.00  0.00    -0.004 A 
ATOM     27  C   UNL     1       3.800   0.240  23.089  0.00  0.00    -0.023 A 
ATOM     28  C   UNL     1       3.397  -0.472  23.194  0.00  0.00    -0.004 A 
ATOM     29  C   UNL     1       2.572  -0.481  23.210  0.00  0.00    +0.004 A 
BRANCH  27  30
ATOM     30  C   UNL     1       4.624   0.249  23.073  0.00  0.00    +0.019 C 
ATOM     31  C   UNL     1       5.449   0.258  23.057  0.00  0.00    +0.004 C 
ATOM     32  C   UNL     1       4.641  -0.421  23.554  0.00  0.00    +0.004 C 
ATOM     33  C   UNL     1       4.607   0.919  22.592  0.00  0.00    +0.004 C 
ENDBRANCH  27  30
ENDBRANCH  22  24
ENDBRANCH  20  21
BRANCH  17  15
ATOM     15  C   UNL     1      -2.374   0.329  23.910  0.00  0.00    +0.195 C 
ATOM     16  O   UNL     1      -2.803   0.683  23.301  0.00  0.00    -0.216 OA
BRANCH  15   9
ATOM      8  N   UNL     1      -3.540   0.195  24.726  0.00  0.00    -0.270 N 
ATOM      9  C   UNL     1      -2.771  -0.035  24.535  0.00  0.00    +0.140 C 
ATOM     10  C   UNL     1      -2.397  -0.629  24.970  0.00  0.00    +0.165 C 
ATOM     11  O   UNL     1      -2.794  -0.993  25.596  0.00  0.00    -0.343 OA
ATOM     12  C   UNL     1      -3.563  -0.763  25.787  0.00  0.00    +0.227 C 
ATOM     13  C   UNL     1      -3.935  -0.169  25.351  0.00  0.00    +0.256 C 
ATOM     14  O   UNL     1      -4.704   0.061  25.542  0.00  0.00    -0.272 OA
BRANCH   8   7
ATOM      7  C   UNL     1      -3.912   0.788  24.291  0.00  0.00    +0.120 C 
BRANCH   7   6
ATOM      3  C   UNL     1      -4.964   2.701  25.457  0.00  0.00    +0.139 A 
ATOM      4  C   UNL     1      -5.434   2.139  25.079  0.00  0.00    +0.037 A 
ATOM      5  C   UNL     1      -5.084   1.502  24.691  0.00  0.00    +0.001 A 
ATOM      6  C   UNL     1      -4.263   1.426  24.680  0.00  0.00    -0.002 A 
ATOM     36  C   UNL     1      -3.792   1.989  25.058  0.00  0.00    +0.001 A 
ATOM     37  C   UNL     1      -4.142   2.625  25.446  0.00  0.00    +0.037 A 
BRANCH   3   2
ATOM      1  C   UNL     1      -5.508   4.022  25.426  0.00  0.00    +0.252 C 
ATOM      2  O   UNL     1      -5.314   3.339  25.846  0.00  0.00    -0.471 OA
ENDBRANCH   3   2
ENDBRANCH   7   6
ENDBRANCH   8   7
ENDBRANCH  15   9
ENDBRANCH  17  15
TORSDOF 8
ENDMDL
MODEL 3
REMARK VINA RESULT:      -8.4      1.796      7.083
REMARK  Name = 
REMARK  8 active torsions:
REMARK  status: ('A' for Active; 'I' for Inactive)
REMARK    1  A    between atoms: O_2  and  C_3
REMARK    2  A    between atoms: C_6  and  C_7
REMARK    3  A    between atoms: C_7  and  N_8
REMARK    4  A    between atoms: C_9  and  C_15
REMARK    5  A    between atoms: C_15  and  C_17
REMARK    6  A    between atoms: C_20  and  N_21
REMARK    7  A    between atoms: C_22  and  C_24
REMARK    8  A    between atoms: C_27  and  C_30
REMARK                            x       y       z     vdW  Elec       q    Type
REMARK                         _______ _______ _______ _____ _____    ______ ____
ROOT
ATOM     17  C   UNL     1       0.228   1.036  24.019  0.00  0.00    +0.010 A 
ATOM     18  C   UNL     1      -0.143   1.731  23.775  0.00  0.00    -0.000 A 
ATOM     19  C   UNL     1      -0.909   1.902  24.033  0.00  0.00    +0.016 A 
ATOM     20  C   UNL     1      -1.302   1.378  24.534  0.00  0.00    +0.074 A 
ATOM     34  C   UNL     1      -0.930   0.684  24.778  0.00  0.00    +0.016 A 
ATOM     35  C   UNL     1      -0.164   0.513  24.520  0.00  0.00    -0.000 A 
ENDROOT
BRANCH  20  21
ATOM     21  N   UNL     1      -2.067   1.549  24.792  0.00  0.00    -0.175 NA
ATOM     22  C   UNL     1      -2.710   1.401  24.298  0.00  0.00    +0.269 C 
ATOM     23  O   UNL     1      -2.590   1.082  23.547  0.00  0.00    -0.268 OA
BRANCH  22  24
ATOM     24  C   UNL     1      -3.475   1.572  24.556  0.00  0.00    +0.055 A 
ATOM     25  C   UNL     1      -3.952   0.971  24.860  0.00  0.00    +0.004 A 
ATOM     26  C   UNL     1      -4.717   1.142  25.118  0.00  0.00    -0.004 A 
ATOM     27  C   UNL     1      -5.006   1.914  25.071  0.00  0.00    -0.023 A 
ATOM     28  C   UNL     1      -4.529   2.514  24.766  0.00  0.00    -0.004 A 
ATOM     29  C   UNL     1      -3.764   2.343  24.509  0.00  0.00    +0.004 A 
BRANCH  27  30
ATOM     30  C   UNL     1      -5.770   2.085  25.328  0.00  0.00    +0.019 C 
ATOM     31  C   UNL     1      -6.535   2.256  25.586  0.00  0.00    +0.004 C 
ATOM     32  C   UNL     1      -6.067   1.487  24.843  0.00  0.00    +0.004 C 
ATOM     33  C   UNL     1      -5.473   2.682  25.813  0.00  0.00    +0.004 C 
ENDBRANCH  27  30
ENDBRANCH  22  24
ENDBRANCH  20  21
BRANCH  17  15
ATOM     15  C   UNL     1       0.993   0.865  23.762  0.00  0.00    +0.195 C 
ATOM     16  O   UNL     1       1.643   1.186  24.156  0.00  0.00    -0.216 OA
BRANCH  15   9
ATOM      8  N   UNL     1       1.812   0.416  22.680  0.00  0.00    -0.270 N 
ATOM      9  C   UNL     1       1.109   0.374  23.110  0.00  0.00    +0.140 C 
ATOM     10  C   UNL     1       0.521  -0.162  22.887  0.00  0.00    +0.165 C 
ATOM     11  O   UNL     1       0.637  -0.654  22.235  0.00  0.00    -0.343 OA
ATOM     12  C   UNL     1       1.340  -0.611  21.805  0.00  0.00    +0.227 C 
ATOM     13  C   UNL     1       1.927  -0.076  22.028  0.00  0.00    +0.256 C 
ATOM     14  O   UNL     1       2.630  -0.034  21.598  0.00  0.00    -0.272 OA
BRANCH   8   7
ATOM      7  C   UNL     1       2.399   0.951  22.902  0.00  0.00    +0.120 C 
BRANCH   7   6
ATOM      3  C   UNL     1       4.740   0.186  23.147  0.00  0.00    +0.139 A 
ATOM      4  C   UNL     1       4.125  -0.257  23.472  0.00  0.00    +0.037 A 
ATOM      5  C   UNL     1       3.346  -0.002  23.391  0.00  0.00    +0.001 A 
ATOM      6  C   UNL     1       3.180   0.696  22.984  0.00  0.00    -0.002 A 
ATOM     36  C   UNL     1       3.795   1.139  22.659  0.00  0.00    +0.001 A 
ATOM     37  C   UNL     1       4.574   0.884  22.740  0.00  0.00    +0.037 A 
BRANCH   3   2
ATOM      1  C   UNL     1       5.810  -0.278  23.972  0.00  0.00    +0.252 C 
ATOM      2  O   UNL     1       5.521  -0.069  23.229  0.00  0.00    -0.471 OA
ENDBRANCH   3   2
ENDBRANCH   7   6
ENDBRANCH   8   7
ENDBRANCH  15   9
ENDBRANCH  17  15
TORSDOF 8
ENDMDL
MODEL 4
REMARK VINA RESULT:      -8.3      1.520      2.894
REMARK  Name = 
REMARK  8 active torsions:
REMARK  status: ('A' for Active; 'I' for Inactive)
REMARK    1  A    between atoms: O_2  and  C_3
REMARK    2  A    between atoms: C_6  and  C_7
REMARK    3  A    between atoms: C_7  and  N_8
REMARK    4  A    between atoms: C_9  and  C_15
REMARK    5  A    between atoms: C_15  and  C_17
REMARK    6  A    between atoms: C_20  and  N_21
REMARK    7  A    between atoms: C_22  and  C_24
REMARK    8  A    between atoms: C_27  and  C_30
REMARK                            x       y       z     vdW  Elec       q    Type
REMARK                         _______ _______ _______ _____ _____    ______ ____
ROOT
ATOM     17  C   UNL     1      -1.052   1.281  23.548  0.00  0.00    +0.010 A 
ATOM     18  C   UNL     1      -0.763   0.511  23.599  0.00  0.00    -0.000 A 
ATOM     19  C   UNL     1       0.051   0.378  23.647  0.00  0.00    +0.016 A 
ATOM     20  C   UNL     1       0.573   1.015  23.644  0.00  0.00    +0.074 A 
ATOM     34  C   UNL     1       0.284   1.785  23.592  0.00  0.00    +0.016 A 
ATOM     35  C   UNL     1      -0.530   1.919  23.544  0.00  0.00    -0.000 A 
ENDROOT
BRANCH  20  21
ATOM     21  N   UNL     1       1.386   0.882  23.692  0.00  0.00    -0.175 NA
ATOM     22  C   UNL     1       1.777   0.496  23.077  0.00  0.00    +0.269 C 
ATOM     23  O   UNL     1       1.357   0.243  22.414  0.00  0.00    -0.268 OA
BRANCH  22  24
ATOM     24  C   UNL     1       2.590   0.363  23.125  0.00  0.00    +0.055 A 
ATOM     25  C   UNL     1       3.119   0.986  23.001  0.00  0.00    +0.004 A 
ATOM     26  C   UNL     1       3.931   0.853  23.049  0.00  0.00    -0.004 A 
ATOM     27  C   UNL     1       4.217   0.097  23.221  0.00  0.00    -0.023 A 
ATOM     28  C   UNL     1       3.689  -0.524  23.345  0.00  0.00    -0.004 A 
ATOM     29  C   UNL     1       2.876  -0.391  23.297  0.00  0.00    +0.004 A 
BRANCH  27  30
ATOM     30  C   UNL     1       5.029  -0.035  23.269  0.00  0.00    +0.019 C 
ATOM     31  C   UNL     1       5.841  -0.168  23.317  0.00  0.00    +0.004 C 
ATOM     32  C   UNL     1       5.153   0.504  22.657  0.00  0.00    +0.004 C 
ATOM     33  C   UNL     1       4.904  -0.575  23.881  0.00  0.00    +0.004 C 
ENDBRANCH  27  30
ENDBRANCH  22  24
ENDBRANCH  20  21
BRANCH  17  15
ATOM     15  C   UNL     1      -1.865   1.414  23.500  0.00  0.00    +0.195 C 
ATOM     16  O   UNL     1      -2.264   1.282  22.790  0.00  0.00    -0.216 OA
BRANCH  15   9
ATOM      8  N   UNL     1      -3.008   1.342  24.355  0.00  0.00    -0.270 N 
ATOM      9  C   UNL     1      -2.280   1.679  24.162  0.00  0.00    +0.140 C 
ATOM     10  C   UNL     1      -1.966   2.281  24.631  0.00  0.00    +0.165 C 
ATOM     11  O   UNL     1      -2.381   2.547  25.294  0.00  0.00    -0.343 OA
ATOM     12  C   UNL     1      -3.109   2.210  25.487  0.00  0.00    +0.227 C 
ATOM     13  C   UNL     1      -3.422   1.608  25.018  0.00  0.00    +0.256 C 
ATOM     14  O   UNL     1      -4.150   1.271  25.211  0.00  0.00    -0.272 OA
BRANCH   8   7
ATOM      7  C   UNL     1      -3.321   0.740  23.887  0.00  0.00    +0.120 C 
BRANCH   7   6
ATOM      3  C   UNL     1      -3.752  -1.492  24.865  0.00  0.00    +0.139 A 
ATOM      4  C   UNL     1      -4.124  -1.270  24.163  0.00  0.00    +0.037 A 
ATOM      5  C   UNL     1      -3.980  -0.527  23.837  0.00  0.00    +0.001 A 
ATOM      6  C   UNL     1      -3.465  -0.004  24.213  0.00  0.00    -0.002 A 
ATOM     36  C   UNL     1      -3.093  -0.226  24.915  0.00  0.00    +0.001 A 
ATOM     37  C   UNL     1      -3.237  -0.969  25.240  0.00  0.00    +0.037 A 
BRANCH   3   2
ATOM      1  C   UNL     1      -3.504  -2.898  24.895  0.00  0.00    +0.252 C 
ATOM      2  O   UNL     1      -3.896  -2.236  25.191  0.00  0.00    -0.471 OA
ENDBRANCH   3   2
ENDBRANCH   7   6
ENDBRANCH   8   7
ENDBRANCH  15   9
ENDBRANCH  17  15
TORSDOF 8
ENDMDL
MODEL 5
REMARK VINA RESULT:      -8.0      2.735      5.332
REMARK  Name = 
REMARK  8 active torsions:
REMARK  status: ('A' for Active; 'I' for Inactive)
REMARK    1  A    between atoms: O_2  and  C_3
REMARK    2  A    between atoms: C_6  and  C_7
REMARK    3  A    between atoms: C_7  and  N_8
REMARK    4  A    between atoms: C_9  and  C_15
REMARK    5  A    between atoms: C_15  and  C_17
REMARK    6  A    between atoms: C_20  and  N_21
REMARK    7  A    between atoms: C_22  and  C_24
REMARK    8  A    between atoms: C_27  and  C_30
REMARK                            x       y       z     vdW  Elec       q    Type
REMARK                         _______ _______ _______ _____ _____    ______ ____
ROOT
ATOM     17  C   UNL     1      -0.715   2.088  25.344  0.00  0.00    +0.010 A 
ATOM     18  C   UNL     1      -0.928   1.556  25.936  0.00  0.00    -0.000 A 
ATOM     19  C   UNL     1      -1.271   0.831  25.737  0.00  0.00    +0.016 A 
ATOM     20  C   UNL     1      -1.400   0.641  24.946  0.00  0.00    +0.074 A 
ATOM     34  C   UNL     1      -1.188   1.173  24.353  0.00  0.00    +0.016 A 
ATOM     35  C   UNL     1      -0.845   1.897  24.552  0.00  0.00    -0.000 A 
ENDROOT
BRANCH  20  21
ATOM     21  N   UNL     1      -1.743  -0.083  24.746  0.00  0.00    -0.175 NA
ATOM     22  C   UNL     1      -2.558  -0.185  24.813  0.00  0.00    +0.269 C 
ATOM     23  O   UNL     1      -3.032   0.436  25.078  0.00  0.00    -0.268 OA
BRANCH  22  24
ATOM     24  C   UNL     1      -2.901  -0.909  24.614  0.00  0.00    +0.055 A 
ATOM     25  C   UNL     1      -2.503  -1.613  24.778  0.00  0.00    +0.004 A 
ATOM     26  C   UNL     1      -2.845  -2.337  24.579  0.00  0.00    -0.004 A 
ATOM     27  C   UNL     1      -3.586  -2.357  24.215  0.00  0.00    -0.023 A 
ATOM     28  C   UNL     1      -3.984  -1.653  24.052  0.00  0.00    -0.004 A 
ATOM     29  C   UNL     1      -3.641  -0.929  24.251  0.00  0.00    +0.004 A 
BRANCH  27  30
ATOM     30  C   UNL     1      -3.929  -3.080  24.017  0.00  0.00    +0.019 C 
ATOM     31  C   UNL     1      -4.271  -3.803  23.817  0.00  0.00    +0.004 C 
ATOM     32  C   UNL     1      -3.399  -3.468  24.515  0.00  0.00    +0.004 C 
ATOM     33  C   UNL     1      -4.459  -2.691  23.518  0.00  0.00    +0.004 C 
ENDBRANCH  27  30
ENDBRANCH  22  24
ENDBRANCH  20  21
BRANCH  17  15
ATOM     15  C   UNL     1      -0.373   2.811  25.543  0.00  0.00    +0.195 C 
ATOM     16  O   UNL     1       0.019   2.899  26.263  0.00  0.00    -0.216 OA
BRANCH  15   9
ATOM      8  N   UNL     1      -0.918   4.085  25.192  0.00  0.00    -0.270 N 
ATOM      9  C   UNL     1      -0.421   3.449  25.021  0.00  0.00    +0.140 C 
ATOM     10  C   UNL     1       0.028   3.449  24.328  0.00  0.00    +0.165 C 
ATOM     11  O   UNL     1      -0.020   4.087  23.806  0.00  0.00    -0.343 OA
ATOM     12  C   UNL     1      -0.517   4.723  23.976  0.00  0.00    +0.227 C 
ATOM     13  C   UNL     1      -0.965   4.722  24.669  0.00  0.00    +0.256 C 
ATOM     14  O   UNL     1      -1.462   5.358  24.840  0.00  0.00    -0.272 OA
BRANCH   8   7
ATOM      7  C   UNL     1      -1.366   4.084  25.884  0.00  0.00    +0.120 C 
BRANCH   7   6
ATOM      3  C   UNL     1      -3.837   4.121  25.756  0.00  0.00    +0.139 A 
ATOM      4  C   UNL     1      -3.462   4.104  26.491  0.00  0.00    +0.037 A 
ATOM      5  C   UNL     1      -2.639   4.092  26.533  0.00  0.00    +0.001 A 
ATOM      6  C   UNL     1      -2.190   4.096  25.841  0.00  0.00    -0.002 A 
ATOM     36  C   UNL     1      -2.565   4.113  25.107  0.00  0.00    +0.001 A 
ATOM     37  C   UNL     1      -3.388   4.126  25.065  0.00  0.00    +0.037 A 
BRANCH   3   2
ATOM      1  C   UNL     1      -5.073   3.453  25.497  0.00  0.00    +0.252 C 
ATOM      2  O   UNL     1      -4.661   4.133  25.714  0.00  0.00    -0.471 OA
ENDBRANCH   3   2
ENDBRANCH   7   6
ENDBRANCH   8   7
ENDBRANCH  15   9
ENDBRANCH  17  15
TORSDOF 8
ENDMDL
MODEL 6
REMARK VINA RESULT:      -7.8      3.103      5.827
REMARK  Name = 
REMARK  8 active torsions:
REMARK  status: ('A' for Active; 'I' for Inactive)
REMARK    1  A    between atoms: O_2  and  C_3
REMARK    2  A    between atoms: C_6  and  C_7
REMARK    3  A    between atoms: C_7  and  N_8
REMARK    4  A    between atoms: C_9  and  C_15
REMARK    5  A    between atoms: C_15  and  C_17
REMARK    6  A    between atoms: C_20  and  N_21
REMARK    7  A    between atoms: C_22  and  C_24
REMARK    8  A    between atoms: C_27  and  C_30
REMARK                            x       y       z     vdW  Elec       q    Type
REMARK                         _______ _______ _______ _____ _____    ______ ____
ROOT
ATOM     17  C   UNL     1      -3.881   2.761  24.251  0.00  0.00    +0.010 A 
ATOM     18  C   UNL     1      -4.398   2.316  24.713  0.00  0.00    -0.000 A 
ATOM     19  C   UNL     1      -4.438   1.496  24.616  0.00  0.00    +0.016 A 
ATOM     20  C   UNL     1      -3.960   1.124  24.057  0.00  0.00    +0.074 A 
ATOM     34  C   UNL     1      -3.443   1.569  23.595  0.00  0.00    +0.016 A 
ATOM     35  C   UNL     1      -3.403   2.388  23.692  0.00  0.00    -0.000 A 
ENDROOT
BRANCH  20  21
ATOM     21  N   UNL     1      -4.000   0.306  23.960  0.00  0.00    -0.175 NA
ATOM     22  C   UNL     1      -3.605  -0.191  24.486  0.00  0.00    +0.269 C 
ATOM     23  O   UNL     1      -3.170   0.129  25.110  0.00  0.00    -0.268 OA
BRANCH  22  24
ATOM     24  C   UNL     1      -3.645  -1.009  24.389  0.00  0.00    +0.055 A 
ATOM     25  C   UNL     1      -3.065  -1.493  24.723  0.00  0.00    +0.004 A 
ATOM     26  C   UNL     1      -3.105  -2.312  24.626  0.00  0.00    -0.004 A 
ATOM     27  C   UNL     1      -3.725  -2.647  24.196  0.00  0.00    -0.023 A 
ATOM     28  C   UNL     1      -4.304  -2.163  23.863  0.00  0.00    -0.004 A 
ATOM     29  C   UNL     1      -4.264  -1.345  23.960  0.00  0.00    +0.004 A 
BRANCH  27  30
ATOM     30  C   UNL     1      -3.765  -3.464  24.099  0.00  0.00    +0.019 C 
ATOM     31  C   UNL     1      -3.804  -4.283  24.002  0.00  0.00    +0.004 C 
ATOM     32  C   UNL     1      -4.276  -3.364  23.459  0.00  0.00    +0.004 C 
ATOM     33  C   UNL     1      -3.254  -3.565  24.739  0.00  0.00    +0.004 C 
ENDBRANCH  27  30
ENDBRANCH  22  24
ENDBRANCH  20  21
BRANCH  17  15
ATOM     15  C   UNL     1      -3.841   3.579  24.347  0.00  0.00    +0.195 C 
ATOM     16  O   UNL     1      -3.815   4.072  23.687  0.00  0.00    -0.216 OA
BRANCH  15   9
ATOM      8  N   UNL     1      -3.145   4.277  25.382  0.00  0.00    -0.270 N 
ATOM      9  C   UNL     1      -3.827   3.905  25.105  0.00  0.00    +0.140 C 
ATOM     10  C   UNL     1      -4.496   3.859  25.586  0.00  0.00    +0.165 C 
ATOM     11  O   UNL     1      -4.483   4.185  26.345  0.00  0.00    -0.343 OA
ATOM     12  C   UNL     1      -3.801   4.557  26.622  0.00  0.00    +0.227 C 
ATOM     13  C   UNL     1      -3.132   4.603  26.140  0.00  0.00    +0.256 C 
ATOM     14  O   UNL     1      -2.450   4.975  26.417  0.00  0.00    -0.272 OA
BRANCH   8   7
ATOM      7  C   UNL     1      -2.477   4.323  24.901  0.00  0.00    +0.120 C 
BRANCH   7   6
ATOM      3  C   UNL     1      -0.331   3.359  25.671  0.00  0.00    +0.139 A 
ATOM      4  C   UNL     1      -0.337   3.933  25.079  0.00  0.00    +0.037 A 
ATOM      5  C   UNL     1      -1.051   4.254  24.822  0.00  0.00    +0.001 A 
ATOM      6  C   UNL     1      -1.761   4.002  25.158  0.00  0.00    -0.002 A 
ATOM     36  C   UNL     1      -1.755   3.427  25.750  0.00  0.00    +0.001 A 
ATOM     37  C   UNL     1      -1.041   3.106  26.006  0.00  0.00    +0.037 A 
BRANCH   3   2
ATOM      1  C   UNL     1       0.386   2.412  26.464  0.00  0.00    +0.252 C 
ATOM      2  O   UNL     1       0.385   3.038  25.927  0.00  0.00    -0.471 OA
ENDBRANCH   3   2
ENDBRANCH   7   6
ENDBRANCH   8   7
ENDBRANCH  15   9
ENDBRANCH  17  15
TORSDOF 8
ENDMDL
