MODEL 1
REMARK VINA RESULT:     -11.7      0.000      0.000
REMARK  Name = 
REMARK  7 active torsions:
REMARK  status: ('A' for Active; 'I' for Inactive)
REMARK    1  A    between atoms: C_2  and  C_3
REMARK    2  A    between atoms: C_3  and  N_4
REMARK    3  A    between atoms: C_5  and  C_7
REMARK    4  A    between atoms: N_11  and  C_12
REMARK    5  A    between atoms: C_12  and  C_13
REMARK    6  A    between atoms: C_26  and  C_27
REMARK    7  A    between atoms: C_27  and  C_28
REMARK                            x       y       z     vdW  Elec       q    Type
REMARK                         _______ _______ _______ _____ _____    ______ ____
ROOT
ATOM      7  C   UNL     1      -3.838   0.665  24.944  0.00  0.00    +0.155 C 
ATOM      8  C   UNL     1      -3.047   0.898  24.951  0.00  0.00    +0.055 C 
ATOM      9  C   UNL     1      -2.733   1.657  24.876  0.00  0.00    -0.002 A 
ATOM     10  C   UNL     1      -1.924   1.819  24.892  0.00  0.00    +0.072 A 
ATOM     11  N   UNL     1      -1.824   2.633  24.801  0.00  0.00    -0.322 N 
ATOM     20  C   UNL     1      -2.572   2.975  24.729  0.00  0.00    +0.060 A 
ATOM     21  C   UNL     1      -3.134   2.372  24.775  0.00  0.00    +0.011 A 
ATOM     22  C   UNL     1      -3.947   2.503  24.725  0.00  0.00    -0.005 A 
ATOM     23  C   UNL     1      -4.178   3.333  24.619  0.00  0.00    -0.003 A 
ATOM     24  C   UNL     1      -3.617   3.936  24.573  0.00  0.00    +0.001 A 
ATOM     25  C   UNL     1      -2.814   3.756  24.628  0.00  0.00    +0.017 A 
ATOM     26  C   UNL     1      -4.559   1.953  24.763  0.00  0.00    +0.095 C 
ATOM     31  N   UNL     1      -4.512   1.135  24.860  0.00  0.00    -0.207 NA
ENDROOT
BRANCH   7   5
ATOM      4  N   UNL     1      -4.019  -0.629  24.367  0.00  0.00    -0.204 NA
ATOM      5  C   UNL     1      -3.975  -0.144  25.032  0.00  0.00    +0.258 C 
ATOM      6  O   UNL     1      -4.067  -0.466  25.787  0.00  0.00    -0.272 OA
BRANCH   4   3
ATOM      3  C   UNL     1      -4.156  -1.438  24.457  0.00  0.00    +0.115 C 
BRANCH   3   2
ATOM      1  C   UNL     1      -4.028  -2.711  23.818  0.00  0.00    +0.002 C 
ATOM      2  C   UNL     1      -4.250  -1.916  23.791  0.00  0.00    +0.023 C 
ENDBRANCH   3   2
ENDBRANCH   4   3
ENDBRANCH   7   5
BRANCH  11  12
ATOM     12  C   UNL     1      -1.104   3.035  24.785  0.00  0.00    +0.137 C 
BRANCH  12  13
ATOM     13  C   UNL     1      -0.416   2.659  25.040  0.00  0.00    +0.050 A 
ATOM     14  C   UNL     1       0.117   2.247  24.563  0.00  0.00    +0.152 A 
ATOM     15  C   UNL     1       0.054   2.138  23.748  0.00  0.00    +0.075 C 
ATOM     16  O   UNL     1       0.723   1.963  25.045  0.00  0.00    -0.358 OA
ATOM     17  N   UNL     1       0.565   2.199  25.819  0.00  0.00    -0.082 NA
ATOM     18  C   UNL     1      -0.138   2.630  25.816  0.00  0.00    +0.098 A 
ATOM     19  C   UNL     1      -0.501   2.971  26.474  0.00  0.00    +0.055 C 
ENDBRANCH  12  13
ENDBRANCH  11  12
BRANCH  26  27
ATOM     27  C   UNL     1      -5.322   2.260  24.695  0.00  0.00    +0.022 C 
BRANCH  27  28
ATOM     28  C   UNL     1      -5.932   1.957  25.161  0.00  0.00    +0.002 C 
ATOM     29  C   UNL     1      -6.515   1.482  24.820  0.00  0.00    +0.000 C 
ATOM     30  C   UNL     1      -5.959   2.130  25.967  0.00  0.00    +0.000 C 
ENDBRANCH  27  28
ENDBRANCH  26  27
TORSDOF 7
ENDMDL
MODEL 2
REMARK VINA RESULT:     -11.2      1.736      3.497
REMARK  Name = 
REMARK  7 active torsions:
REMARK  status: ('A' for Active; 'I' for Inactive)
REMARK    1  A    between atoms: C_2  and  C_3
REMARK    2  A    between atoms: C_3  and  N_4
REMARK    3  A    between atoms: C_5  and  C_7
REMARK    4  A    between atoms: N_11  and  C_12
REMARK    5  A    between atoms: C_12  and  C_13
REMARK    6  A    between atoms: C_26  and  C_27
REMARK    7  A    between atoms: C_27  and  C_28
REMARK                            x       y       z     vdW  Elec       q    Type
REMARK                         _______ _______ _______ _____ _____    ______ ____
ROOT
ATOM      7  C   UNL     1      -1.859  -0.042  24.658  0.00  0.00    +0.155 C 
ATOM      8  C   UNL     1      -1.992   0.758  24.803  0.00  0.00    +0.055 C 
ATOM      9  C   UNL     1      -2.711   1.154  24.887  0.00  0.00    -0.002 A 
ATOM     10  C   UNL     1      -2.771   1.964  25.033  0.00  0.00    +0.072 A 
ATOM     11  N   UNL     1      -3.571   2.156  25.083  0.00  0.00    -0.322 N 
ATOM     20  C   UNL     1      -4.007   1.465  24.968  0.00  0.00    +0.060 A 
ATOM     21  C   UNL     1      -3.475   0.845  24.847  0.00  0.00    +0.011 A 
ATOM     22  C   UNL     1      -3.709   0.065  24.712  0.00  0.00    -0.005 A 
ATOM     23  C   UNL     1      -4.567  -0.065  24.706  0.00  0.00    -0.003 A 
ATOM     24  C   UNL     1      -5.099   0.554  24.826  0.00  0.00    +0.001 A 
ATOM     25  C   UNL     1      -4.819   1.319  24.957  0.00  0.00    +0.017 A 
ATOM     26  C   UNL     1      -3.236  -0.598  24.585  0.00  0.00    +0.095 C 
ATOM     31  N   UNL     1      -2.413  -0.646  24.561  0.00  0.00    -0.207 NA
ENDROOT
BRANCH   7   5
ATOM      4  N   UNL     1      -0.662  -0.181  23.890  0.00  0.00    -0.204 NA
ATOM      5  C   UNL     1      -1.068  -0.270  24.602  0.00  0.00    +0.258 C 
ATOM      6  O   UNL     1      -0.683  -0.588  25.260  0.00  0.00    -0.272 OA
BRANCH   4   3
ATOM      3  C   UNL     1       0.129  -0.409  23.835  0.00  0.00    +0.115 C 
BRANCH   3   2
ATOM      1  C   UNL     1       1.259  -0.057  23.033  0.00  0.00    +0.002 C 
ATOM      2  C   UNL     1       0.511  -0.399  23.104  0.00  0.00    +0.023 C 
ENDBRANCH   3   2
ENDBRANCH   4   3
ENDBRANCH   7   5
BRANCH  11  12
ATOM     12  C   UNL     1      -3.883   2.907  25.222  0.00  0.00    +0.137 C 
BRANCH  12  13
ATOM     13  C   UNL     1      -3.401   3.573  25.155  0.00  0.00    +0.050 A 
ATOM     14  C   UNL     1      -3.252   3.996  24.463  0.00  0.00    +0.152 A 
ATOM     15  C   UNL     1      -3.559   3.828  23.716  0.00  0.00    +0.075 C 
ATOM     16  O   UNL     1      -2.742   4.617  24.648  0.00  0.00    -0.358 OA
ATOM     17  N   UNL     1      -2.576   4.578  25.455  0.00  0.00    -0.082 NA
ATOM     18  C   UNL     1      -2.983   3.933  25.768  0.00  0.00    +0.098 A 
ATOM     19  C   UNL     1      -2.973   3.690  26.557  0.00  0.00    +0.055 C 
ENDBRANCH  12  13
ENDBRANCH  11  12
BRANCH  26  27
ATOM     27  C   UNL     1      -3.639  -1.308  24.466  0.00  0.00    +0.022 C 
BRANCH  27  28
ATOM     28  C   UNL     1      -3.335  -2.011  24.774  0.00  0.00    +0.002 C 
ATOM     29  C   UNL     1      -2.997  -2.569  24.269  0.00  0.00    +0.000 C 
ATOM     30  C   UNL     1      -3.371  -2.156  25.585  0.00  0.00    +0.000 C 
ENDBRANCH  27  28
ENDBRANCH  26  27
TORSDOF 7
ENDMDL
MODEL 3
REMARK VINA RESULT:     -10.8      1.062      4.292
REMARK  Name = 
REMARK  7 active torsions:
REMARK  status: ('A' for Active; 'I' for Inactive)
REMARK    1  A    between atoms: C_2  and  C_3
REMARK    2  A    between atoms: C_3  and  N_4
REMARK    3  A    between atoms: C_5  and  C_7
REMARK    4  A    between atoms: N_11  and  C_12
REMARK    5  A    between atoms: C_12  and  C_13
REMARK    6  A    between atoms: C_26  and  C_27
REMARK    7  A    between atoms: C_27  and  C_28
REMARK                            x       y       z     vdW  Elec       q    Type
REMARK                         _______ _______ _______ _____ _____    ______ ____
ROOT
ATOM      7  C   UNL     1      -2.315   1.994  24.525  0.00  0.00    +0.155 C 
ATOM      8  C   UNL     1      -2.464   1.184  24.570  0.00  0.00    +0.055 C 
ATOM      9  C   UNL     1      -3.184   0.797  24.680  0.00  0.00    -0.002 A 
ATOM     10  C   UNL     1      -3.260  -0.023  24.715  0.00  0.00    +0.072 A 
ATOM     11  N   UNL     1      -4.057  -0.202  24.830  0.00  0.00    -0.322 N 
ATOM     20  C   UNL     1      -4.475   0.509  24.866  0.00  0.00    +0.060 A 
ATOM     21  C   UNL     1      -3.935   1.127  24.773  0.00  0.00    +0.011 A 
ATOM     22  C   UNL     1      -4.150   1.923  24.779  0.00  0.00    -0.005 A 
ATOM     23  C   UNL     1      -4.998   2.073  24.890  0.00  0.00    -0.003 A 
ATOM     24  C   UNL     1      -5.538   1.456  24.983  0.00  0.00    +0.001 A 
ATOM     25  C   UNL     1      -5.276   0.674  24.970  0.00  0.00    +0.017 A 
ATOM     26  C   UNL     1      -3.669   2.587  24.693  0.00  0.00    +0.095 C 
ATOM     31  N   UNL     1      -2.852   2.619  24.580  0.00  0.00    -0.207 NA
ENDROOT
BRANCH   7   5
ATOM      4  N   UNL     1      -1.011   2.239  25.053  0.00  0.00    -0.204 NA
ATOM      5  C   UNL     1      -1.527   2.208  24.411  0.00  0.00    +0.258 C 
ATOM      6  O   UNL     1      -1.255   2.392  23.653  0.00  0.00    -0.272 OA
BRANCH   4   3
ATOM      3  C   UNL     1      -0.222   2.454  24.938  0.00  0.00    +0.115 C 
BRANCH   3   2
ATOM      1  C   UNL     1       0.294   2.718  26.245  0.00  0.00    +0.002 C 
ATOM      2  C   UNL     1       0.335   2.309  25.529  0.00  0.00    +0.023 C 
ENDBRANCH   3   2
ENDBRANCH   4   3
ENDBRANCH   7   5
BRANCH  11  12
ATOM     12  C   UNL     1      -4.381  -0.957  24.897  0.00  0.00    +0.137 C 
BRANCH  12  13
ATOM     13  C   UNL     1      -3.898  -1.622  24.823  0.00  0.00    +0.050 A 
ATOM     14  C   UNL     1      -3.429  -1.950  25.418  0.00  0.00    +0.152 A 
ATOM     15  C   UNL     1      -3.362  -1.671  26.191  0.00  0.00    +0.075 C 
ATOM     16  O   UNL     1      -3.040  -2.605  25.103  0.00  0.00    -0.358 OA
ATOM     17  N   UNL     1      -3.268  -2.683  24.314  0.00  0.00    -0.082 NA
ATOM     18  C   UNL     1      -3.798  -2.075  24.141  0.00  0.00    +0.098 A 
ATOM     19  C   UNL     1      -4.164  -1.943  23.413  0.00  0.00    +0.055 C 
ENDBRANCH  12  13
ENDBRANCH  11  12
BRANCH  26  27
ATOM     27  C   UNL     1      -4.054   3.315  24.724  0.00  0.00    +0.022 C 
BRANCH  27  28
ATOM     28  C   UNL     1      -3.687   3.960  25.086  0.00  0.00    +0.002 C 
ATOM     29  C   UNL     1      -3.632   3.994  25.909  0.00  0.00    +0.000 C 
ATOM     30  C   UNL     1      -3.377   4.570  24.626  0.00  0.00    +0.000 C 
ENDBRANCH  27  28
ENDBRANCH  26  27
TORSDOF 7
ENDMDL
MODEL 4
REMARK VINA RESULT:     -10.6      1.896      3.646
REMARK  Name = 
REMARK  7 active torsions:
REMARK  status: ('A' for Active; 'I' for Inactive)
REMARK    1  A    between atoms: C_2  and  C_3
REMARK    2  A    between atoms: C_3  and  N_4
REMARK    3  A    between atoms: C_5  and  C_7
REMARK    4  A    between atoms: N_11  and  C_12
REMARK    5  A    between atoms: C_12  and  C_13
REMARK    6  A    between atoms: C_26  and  C_27
REMARK    7  A    between atoms: C_27  and  C_28
REMARK                            x       y       z     vdW  Elec       q    Type
REMARK                         _______ _______ _______ _____ _____    ______ ____
ROOT
ATOM      7  C   UNL     1      -2.949   2.611  24.838  0.00  0.00    +0.155 C 
ATOM      8  C   UNL     1      -2.628   1.854  24.776  0.00  0.00    +0.055 C 
ATOM      9  C   UNL     1      -1.884   1.589  25.014  0.00  0.00    -0.002 A 
ATOM     10  C   UNL     1      -1.626   0.812  24.921  0.00  0.00    +0.072 A 
ATOM     11  N   UNL     1      -0.859   0.758  25.221  0.00  0.00    -0.322 N 
ATOM     20  C   UNL     1      -0.643   1.504  25.501  0.00  0.00    +0.060 A 
ATOM     21  C   UNL     1      -1.276   2.018  25.373  0.00  0.00    +0.011 A 
ATOM     22  C   UNL     1      -1.264   2.816  25.583  0.00  0.00    -0.005 A 
ATOM     23  C   UNL     1      -0.527   3.086  25.954  0.00  0.00    -0.003 A 
ATOM     24  C   UNL     1       0.106   2.573  26.083  0.00  0.00    +0.001 A 
ATOM     25  C   UNL     1       0.048   1.781  25.856  0.00  0.00    +0.017 A 
ATOM     26  C   UNL     1      -1.855   3.382  25.485  0.00  0.00    +0.095 C 
ATOM     31  N   UNL     1      -2.605   3.291  25.154  0.00  0.00    -0.207 NA
ENDROOT
BRANCH   7   5
ATOM      4  N   UNL     1      -4.363   2.523  25.027  0.00  0.00    -0.204 NA
ATOM      5  C   UNL     1      -3.716   2.700  24.547  0.00  0.00    +0.258 C 
ATOM      6  O   UNL     1      -3.835   2.966  23.774  0.00  0.00    -0.272 OA
BRANCH   4   3
ATOM      3  C   UNL     1      -5.129   2.613  24.734  0.00  0.00    +0.115 C 
BRANCH   3   2
ATOM      1  C   UNL     1      -6.315   1.905  25.103  0.00  0.00    +0.002 C 
ATOM      2  C   UNL     1      -5.777   2.516  25.237  0.00  0.00    +0.023 C 
ENDBRANCH   3   2
ENDBRANCH   4   3
ENDBRANCH   7   5
BRANCH  11  12
ATOM     12  C   UNL     1      -0.391   0.080  25.240  0.00  0.00    +0.137 C 
BRANCH  12  13
ATOM     13  C   UNL     1      -0.657  -0.615  24.885  0.00  0.00    +0.050 A 
ATOM     14  C   UNL     1      -0.494  -0.859  24.113  0.00  0.00    +0.152 A 
ATOM     15  C   UNL     1      -0.036  -0.450  23.562  0.00  0.00    +0.075 C 
ATOM     16  O   UNL     1      -0.868  -1.583  23.991  0.00  0.00    -0.358 OA
ATOM     17  N   UNL     1      -1.263  -1.787  24.685  0.00  0.00    -0.082 NA
ATOM     18  C   UNL     1      -1.133  -1.189  25.238  0.00  0.00    +0.098 A 
ATOM     19  C   UNL     1      -1.426  -1.168  26.009  0.00  0.00    +0.055 C 
ENDBRANCH  12  13
ENDBRANCH  11  12
BRANCH  26  27
ATOM     27  C   UNL     1      -1.673   4.140  25.754  0.00  0.00    +0.022 C 
BRANCH  27  28
ATOM     28  C   UNL     1      -1.865   4.798  25.294  0.00  0.00    +0.002 C 
ATOM     29  C   UNL     1      -2.534   5.247  25.474  0.00  0.00    +0.000 C 
ATOM     30  C   UNL     1      -1.387   5.008  24.655  0.00  0.00    +0.000 C 
ENDBRANCH  27  28
ENDBRANCH  26  27
TORSDOF 7
ENDMDL
MODEL 5
REMARK VINA RESULT:     -10.6      1.906      3.783
REMARK  Name = 
REMARK  7 active torsions:
REMARK  status: ('A' for Active; 'I' for Inactive)
REMARK    1  A    between atoms: C_2  and  C_3
REMARK    2  A    between atoms: C_3  and  N_4
REMARK    3  A    between atoms: C_5  and  C_7
REMARK    4  A    between atoms: N_11  and  C_12
REMARK    5  A    between atoms: C_12  and  C_13
REMARK    6  A    between atoms: C_26  and  C_27
REMARK    7  A    between atoms: C_27  and  C_28
REMARK                            x       y       z     vdW  Elec       q    Type
REMARK                         _______ _______ _______ _____ _____    ______ ____
ROOT
ATOM      7  C   UNL     1      -2.759   2.742  25.318  0.00  0.00    +0.155 C 
ATOM      8  C   UNL     1      -2.282   2.079  25.208  0.00  0.00    +0.055 C 
ATOM      9  C   UNL     1      -2.496   1.331  24.932  0.00  0.00    -0.002 A 
ATOM     10  C   UNL     1      -1.962   0.708  24.846  0.00  0.00    +0.072 A 
ATOM     11  N   UNL     1      -2.376   0.055  24.558  0.00  0.00    -0.322 N 
ATOM     20  C   UNL     1      -3.166   0.274  24.466  0.00  0.00    +0.060 A 
ATOM     21  C   UNL     1      -3.241   1.063  24.697  0.00  0.00    +0.011 A 
ATOM     22  C   UNL     1      -3.955   1.477  24.681  0.00  0.00    -0.005 A 
ATOM     23  C   UNL     1      -4.637   1.019  24.400  0.00  0.00    -0.003 A 
ATOM     24  C   UNL     1      -4.563   0.231  24.169  0.00  0.00    +0.001 A 
ATOM     25  C   UNL     1      -3.828  -0.142  24.202  0.00  0.00    +0.017 A 
ATOM     26  C   UNL     1      -4.100   2.259  24.895  0.00  0.00    +0.095 C 
ATOM     31  N   UNL     1      -3.569   2.823  25.179  0.00  0.00    -0.207 NA
ENDROOT
BRANCH   7   5
ATOM      4  N   UNL     1      -2.038   3.952  25.080  0.00  0.00    -0.204 NA
ATOM      5  C   UNL     1      -2.377   3.415  25.606  0.00  0.00    +0.258 C 
ATOM      6  O   UNL     1      -2.335   3.549  26.419  0.00  0.00    -0.272 OA
BRANCH   4   3
ATOM      3  C   UNL     1      -1.656   4.625  25.369  0.00  0.00    +0.115 C 
BRANCH   3   2
ATOM      1  C   UNL     1      -0.663   5.391  24.683  0.00  0.00    +0.002 C 
ATOM      2  C   UNL     1      -1.455   5.238  24.854  0.00  0.00    +0.023 C 
ENDBRANCH   3   2
ENDBRANCH   4   3
ENDBRANCH   7   5
BRANCH  11  12
ATOM     12  C   UNL     1      -2.057  -0.687  24.392  0.00  0.00    +0.137 C 
BRANCH  12  13
ATOM     13  C   UNL     1      -1.334  -0.909  24.720  0.00  0.00    +0.050 A 
ATOM     14  C   UNL     1      -1.223  -1.252  25.463  0.00  0.00    +0.152 A 
ATOM     15  C   UNL     1      -1.816  -1.434  26.006  0.00  0.00    +0.075 C 
ATOM     16  O   UNL     1      -0.415  -1.382  25.565  0.00  0.00    -0.358 OA
ATOM     17  N   UNL     1      -0.027  -1.119  24.887  0.00  0.00    -0.082 NA
ATOM     18  C   UNL     1      -0.595  -0.827  24.365  0.00  0.00    +0.098 A 
ATOM     19  C   UNL     1      -0.448  -0.508  23.618  0.00  0.00    +0.055 C 
ENDBRANCH  12  13
ENDBRANCH  11  12
BRANCH  26  27
ATOM     27  C   UNL     1      -4.881   2.513  24.816  0.00  0.00    +0.022 C 
BRANCH  27  28
ATOM     28  C   UNL     1      -5.218   2.998  25.393  0.00  0.00    +0.002 C 
ATOM     29  C   UNL     1      -5.288   3.810  25.260  0.00  0.00    +0.000 C 
ATOM     30  C   UNL     1      -5.485   2.671  26.101  0.00  0.00    +0.000 C 
ENDBRANCH  27  28
ENDBRANCH  26  27
TORSDOF 7
ENDMDL
MODEL 6
REMARK VINA RESULT:     -10.6      1.780      3.528
REMARK  Name = 
REMARK  7 active torsions:
REMARK  status: ('A' for Active; 'I' for Inactive)
REMARK    1  A    between atoms: C_2  and  C_3
REMARK    2  A    between atoms: C_3  and  N_4
REMARK    3  A    between atoms: C_5  and  C_7
REMARK    4  A    between atoms: N_11  and  C_12
REMARK    5  A    between atoms: C_12  and  C_13
REMARK    6  A    between atoms: C_26  and  C_27
REMARK    7  A    between atoms: C_27  and  C_28
REMARK                            x       y       z     vdW  Elec       q    Type
REMARK                         _______ _______ _______ _____ _____    ______ ____
ROOT
ATOM      7  C   UNL     1      -2.693  -0.255  25.118  0.00  0.00    +0.155 C 
ATOM      8  C   UNL     1      -3.035   0.491  25.040  0.00  0.00    +0.055 C 
ATOM      9  C   UNL     1      -2.661   1.225  24.987  0.00  0.00    -0.002 A 
ATOM     10  C   UNL     1      -3.068   1.938  24.909  0.00  0.00    +0.072 A 
ATOM     11  N   UNL     1      -2.512   2.547  24.873  0.00  0.00    -0.322 N 
ATOM     20  C   UNL     1      -1.761   2.210  24.928  0.00  0.00    +0.060 A 
ATOM     21  C   UNL     1      -1.853   1.393  24.998  0.00  0.00    +0.011 A 
ATOM     22  C   UNL     1      -1.220   0.867  25.066  0.00  0.00    -0.005 A 
ATOM     23  C   UNL     1      -0.434   1.238  25.058  0.00  0.00    -0.003 A 
ATOM     24  C   UNL     1      -0.342   2.055  24.988  0.00  0.00    +0.001 A 
ATOM     25  C   UNL     1      -1.006   2.541  24.923  0.00  0.00    +0.017 A 
ATOM     26  C   UNL     1      -1.238   0.047  25.138  0.00  0.00    +0.095 C 
ATOM     31  N   UNL     1      -1.893  -0.453  25.162  0.00  0.00    -0.207 NA
ENDROOT
BRANCH   7   5
ATOM      4  N   UNL     1      -3.466  -1.265  24.466  0.00  0.00    -0.204 NA
ATOM      5  C   UNL     1      -3.221  -0.888  25.158  0.00  0.00    +0.258 C 
ATOM      6  O   UNL     1      -3.504  -1.144  25.890  0.00  0.00    -0.272 OA
BRANCH   4   3
ATOM      3  C   UNL     1      -3.994  -1.898  24.507  0.00  0.00    +0.115 C 
BRANCH   3   2
ATOM      1  C   UNL     1      -4.230  -3.070  23.722  0.00  0.00    +0.002 C 
ATOM      2  C   UNL     1      -4.269  -2.250  23.813  0.00  0.00    +0.023 C 
ENDBRANCH   3   2
ENDBRANCH   4   3
ENDBRANCH   7   5
BRANCH  11  12
ATOM     12  C   UNL     1      -2.677   3.351  24.796  0.00  0.00    +0.137 C 
BRANCH  12  13
ATOM     13  C   UNL     1      -3.440   3.632  24.935  0.00  0.00    +0.050 A 
ATOM     14  C   UNL     1      -4.046   3.688  24.377  0.00  0.00    +0.152 A 
ATOM     15  C   UNL     1      -3.994   3.473  23.582  0.00  0.00    +0.075 C 
ATOM     16  O   UNL     1      -4.711   3.996  24.753  0.00  0.00    -0.358 OA
ATOM     17  N   UNL     1      -4.518   4.130  25.544  0.00  0.00    -0.082 NA
ATOM     18  C   UNL     1      -3.732   3.905  25.656  0.00  0.00    +0.098 A 
ATOM     19  C   UNL     1      -3.312   3.947  26.365  0.00  0.00    +0.055 C 
ENDBRANCH  12  13
ENDBRANCH  11  12
BRANCH  26  27
ATOM     27  C   UNL     1      -0.503  -0.324  25.196  0.00  0.00    +0.022 C 
BRANCH  27  28
ATOM     28  C   UNL     1      -0.392  -1.072  24.864  0.00  0.00    +0.002 C 
ATOM     29  C   UNL     1      -0.391  -1.742  25.347  0.00  0.00    +0.000 C 
ATOM     30  C   UNL     1      -0.282  -1.149  24.050  0.00  0.00    +0.000 C 
ENDBRANCH  27  28
ENDBRANCH  26  27
TORSDOF 7
ENDMDL
MODEL 7
REMARK VINA RESULT:     -10.1      1.471      3.309
REMARK  Name = 
REMARK  7 active torsions:
REMARK  status: ('A' for Active; 'I' for Inactive)
REMARK    1  A    between atoms: C_2  and  C_3
REMARK    2  A    between atoms: C_3  and  N_4
REMARK    3  A    between atoms: C_5  and  C_7
REMARK    4  A    between atoms: N_11  and  C_12
REMARK    5  A    between atoms: C_12  and  C_13
REMARK    6  A    between atoms: C_26  and  C_27
REMARK    7  A    between atoms: C_27  and  C_28
REMARK                            x       y       z     vdW  Elec       q    Type
REMARK                         _______ _______ _______ _____ _____    ______ ____
ROOT
ATOM      7  C   UNL     1      -3.493   0.171  24.593  0.00  0.00    +0.155 C 
ATOM      8  C   UNL     1      -2.942   0.779  24.673  0.00  0.00    +0.055 C 
ATOM      9  C   UNL     1      -2.120   0.726  24.723  0.00  0.00    -0.002 A 
ATOM     10  C   UNL     1      -1.625   1.381  24.803  0.00  0.00    +0.072 A 
ATOM     11  N   UNL     1      -0.846   1.111  24.834  0.00  0.00    -0.322 N 
ATOM     20  C   UNL     1      -0.859   0.288  24.773  0.00  0.00    +0.060 A 
ATOM     21  C   UNL     1      -1.646   0.050  24.704  0.00  0.00    +0.011 A 
ATOM     22  C   UNL     1      -1.879  -0.739  24.632  0.00  0.00    -0.005 A 
ATOM     23  C   UNL     1      -1.228  -1.314  24.632  0.00  0.00    -0.003 A 
ATOM     24  C   UNL     1      -0.441  -1.076  24.701  0.00  0.00    +0.001 A 
ATOM     25  C   UNL     1      -0.257  -0.275  24.771  0.00  0.00    +0.017 A 
ATOM     26  C   UNL     1      -2.640  -1.046  24.560  0.00  0.00    +0.095 C 
ATOM     31  N   UNL     1      -3.359  -0.642  24.542  0.00  0.00    -0.207 NA
ENDROOT
BRANCH   7   5
ATOM      4  N   UNL     1      -4.603   0.866  25.164  0.00  0.00    -0.204 NA
ATOM      5  C   UNL     1      -4.283   0.406  24.559  0.00  0.00    +0.258 C 
ATOM      6  O   UNL     1      -4.753   0.180  23.918  0.00  0.00    -0.272 OA
BRANCH   4   3
ATOM      3  C   UNL     1      -5.394   1.100  25.128  0.00  0.00    +0.115 C 
BRANCH   3   2
ATOM      1  C   UNL     1      -6.194   2.206  25.555  0.00  0.00    +0.002 C 
ATOM      2  C   UNL     1      -5.716   1.558  25.735  0.00  0.00    +0.023 C 
ENDBRANCH   3   2
ENDBRANCH   4   3
ENDBRANCH   7   5
BRANCH  11  12
ATOM     12  C   UNL     1      -0.173   1.580  24.912  0.00  0.00    +0.137 C 
BRANCH  12  13
ATOM     13  C   UNL     1      -0.246   2.386  25.073  0.00  0.00    +0.050 A 
ATOM     14  C   UNL     1      -0.259   2.731  25.823  0.00  0.00    +0.152 A 
ATOM     15  C   UNL     1      -0.201   2.332  26.542  0.00  0.00    +0.075 C 
ATOM     16  O   UNL     1      -0.341   3.546  25.726  0.00  0.00    -0.358 OA
ATOM     17  N   UNL     1      -0.379   3.704  24.917  0.00  0.00    -0.082 NA
ATOM     18  C   UNL     1      -0.320   2.987  24.514  0.00  0.00    +0.098 A 
ATOM     19  C   UNL     1      -0.333   2.889  23.695  0.00  0.00    +0.055 C 
ENDBRANCH  12  13
ENDBRANCH  11  12
BRANCH  26  27
ATOM     27  C   UNL     1      -2.690  -1.867  24.496  0.00  0.00    +0.022 C 
BRANCH  27  28
ATOM     28  C   UNL     1      -3.346  -2.264  24.802  0.00  0.00    +0.002 C 
ATOM     29  C   UNL     1      -3.925  -2.558  24.292  0.00  0.00    +0.000 C 
ATOM     30  C   UNL     1      -3.423  -2.368  25.617  0.00  0.00    +0.000 C 
ENDBRANCH  27  28
ENDBRANCH  26  27
TORSDOF 7
ENDMDL
