MODEL 1
REMARK VINA RESULT:     -11.5      0.000      0.000
REMARK  Name = 
REMARK  7 active torsions:
REMARK  status: ('A' for Active; 'I' for Inactive)
REMARK    1  A    between atoms: C_2  and  C_4
REMARK    2  A    between atoms: C_4  and  C_5
REMARK    3  A    between atoms: C_4  and  N_15
REMARK    4  A    between atoms: C_5  and  C_6
REMARK    5  A    between atoms: C_16  and  C_18
REMARK    6  A    between atoms: C_24  and  C_26
REMARK    7  A    between atoms: C_32  and  C_34
REMARK                            x       y       z     vdW  Elec       q    Type
REMARK                         _______ _______ _______ _____ _____    ______ ____
ROOT
ATOM     18  C   UNL     1      -1.782   1.031  24.445  0.00  0.00    +0.174 C 
ATOM     19  C   UNL     1      -2.490   0.693  24.701  0.00  0.00    +0.123 C 
ATOM     20  N   UNL     1      -2.611  -0.120  24.626  0.00  0.00    -0.272 N 
ATOM     21  C   UNL     1      -2.024  -0.595  24.295  0.00  0.00    +0.115 C 
ATOM     22  C   UNL     1      -1.316  -0.258  24.039  0.00  0.00    +0.115 C 
ATOM     23  N   UNL     1      -1.195   0.554  24.114  0.00  0.00    -0.270 N 
ATOM     24  C   UNL     1      -0.487   0.892  23.858  0.00  0.00    +0.226 C 
ATOM     25  O   UNL     1      -0.366   1.705  23.933  0.00  0.00    -0.275 OA
ATOM     32  C   UNL     1      -3.319  -0.456  24.882  0.00  0.00    +0.249 C 
ATOM     33  O   UNL     1      -3.906   0.019  25.213  0.00  0.00    -0.270 OA
ENDROOT
BRANCH  32  34
ATOM     34  C   UNL     1      -3.440  -1.270  24.807  0.00  0.00    +0.056 A 
ATOM     35  C   UNL     1      -3.130  -1.786  25.371  0.00  0.00    +0.005 A 
ATOM     36  C   UNL     1      -3.251  -2.599  25.296  0.00  0.00    +0.002 A 
ATOM     37  C   UNL     1      -3.681  -2.895  24.658  0.00  0.00    +0.030 A 
ATOM     38  C   UNL     1      -3.991  -2.378  24.094  0.00  0.00    +0.140 A 
ATOM     39  F   UNL     1      -4.421  -2.674  23.455  0.00  0.00    -0.204 F 
ATOM     40  C   UNL     1      -3.870  -1.565  24.169  0.00  0.00    +0.034 A 
ENDBRANCH  32  34
BRANCH  24  26
ATOM     26  C   UNL     1       0.101   0.416  23.527  0.00  0.00    +0.080 C 
ATOM     27  C   UNL     1       0.665   0.060  24.012  0.00  0.00    +0.028 C 
ATOM     28  C   UNL     1       1.253  -0.415  23.681  0.00  0.00    +0.089 C 
ATOM     29  N   UNL     1       1.275  -0.535  22.865  0.00  0.00    -0.218 NA
ATOM     30  C   UNL     1       0.711  -0.179  22.380  0.00  0.00    +0.089 C 
ATOM     31  C   UNL     1       0.124   0.297  22.711  0.00  0.00    +0.028 C 
ENDBRANCH  24  26
BRANCH  18  16
ATOM     15  N   UNL     1      -1.805   2.217  25.241  0.00  0.00    -0.196 NA
ATOM     16  C   UNL     1      -1.661   1.843  24.520  0.00  0.00    +0.262 C 
ATOM     17  O   UNL     1      -1.396   2.281  23.873  0.00  0.00    -0.271 OA
BRANCH  15   4
ATOM      4  C   UNL     1      -1.684   3.029  25.315  0.00  0.00    +0.179 C 
BRANCH   4   2
ATOM      1  N   UNL     1      -0.582   3.938  25.266  0.00  0.00    -0.086 NA
ATOM      2  C   UNL     1      -0.976   3.313  25.631  0.00  0.00    +0.281 C 
ATOM      3  O   UNL     1      -0.663   2.969  26.314  0.00  0.00    -0.270 OA
ENDBRANCH   4   2
BRANCH   4   5
ATOM      5  C   UNL     1      -2.270   3.558  25.075  0.00  0.00    +0.059 C 
BRANCH   5   6
ATOM      6  C   UNL     1      -2.915   3.711  25.565  0.00  0.00    +0.001 A 
ATOM      7  C   UNL     1      -2.882   3.871  26.374  0.00  0.00    +0.095 A 
ATOM      8  N   UNL     1      -3.654   3.989  26.642  0.00  0.00    -0.244 NA
ATOM      9  C   UNL     1      -4.162   3.901  25.999  0.00  0.00    +0.081 A 
ATOM     10  C   UNL     1      -3.706   3.729  25.334  0.00  0.00    +0.015 A 
ATOM     11  C   UNL     1      -4.071   3.612  24.603  0.00  0.00    +0.001 A 
ATOM     12  C   UNL     1      -4.891   3.667  24.537  0.00  0.00    +0.000 A 
ATOM     13  C   UNL     1      -5.347   3.839  25.202  0.00  0.00    +0.002 A 
ATOM     14  C   UNL     1      -4.984   3.956  25.933  0.00  0.00    +0.019 A 
ENDBRANCH   5   6
ENDBRANCH   4   5
ENDBRANCH  15   4
ENDBRANCH  18  16
TORSDOF 7
ENDMDL
MODEL 2
REMARK VINA RESULT:     -10.7      1.969      4.773
REMARK  Name = 
REMARK  7 active torsions:
REMARK  status: ('A' for Active; 'I' for Inactive)
REMARK    1  A    between atoms: C_2  and  C_4
REMARK    2  A    between atoms: C_4  and  C_5
REMARK    3  A    between atoms: C_4  and  N_15
REMARK    4  A    between atoms: C_5  and  C_6
REMARK    5  A    between atoms: C_16  and  C_18
REMARK    6  A    between atoms: C_24  and  C_26
REMARK    7  A    between atoms: C_32  and  C_34
REMARK                            x       y       z     vdW  Elec       q    Type
REMARK                         _______ _______ _______ _____ _____    ______ ____
ROOT
ATOM     18  C   UNL     1      -1.418   1.014  24.480  0.00  0.00    +0.174 C 
ATOM     19  C   UNL     1      -1.012   0.383  24.136  0.00  0.00    +0.123 C 
ATOM     20  N   UNL     1      -0.258   0.500  23.820  0.00  0.00    -0.272 N 
ATOM     21  C   UNL     1       0.089   1.248  23.848  0.00  0.00    +0.115 C 
ATOM     22  C   UNL     1      -0.317   1.879  24.192  0.00  0.00    +0.115 C 
ATOM     23  N   UNL     1      -1.069   1.762  24.508  0.00  0.00    -0.270 N 
ATOM     24  C   UNL     1      -1.475   2.393  24.851  0.00  0.00    +0.226 C 
ATOM     25  O   UNL     1      -2.229   2.276  25.168  0.00  0.00    -0.275 OA
ATOM     32  C   UNL     1       0.147  -0.131  23.477  0.00  0.00    +0.249 C 
ATOM     33  O   UNL     1      -0.201  -0.879  23.449  0.00  0.00    -0.270 OA
ENDROOT
BRANCH  32  34
ATOM     34  C   UNL     1       0.900  -0.014  23.160  0.00  0.00    +0.056 A 
ATOM     35  C   UNL     1       1.516   0.239  23.647  0.00  0.00    +0.005 A 
ATOM     36  C   UNL     1       2.270   0.356  23.331  0.00  0.00    +0.002 A 
ATOM     37  C   UNL     1       2.406   0.220  22.528  0.00  0.00    +0.030 A 
ATOM     38  C   UNL     1       1.789  -0.033  22.043  0.00  0.00    +0.140 A 
ATOM     39  F   UNL     1       1.926  -0.169  21.240  0.00  0.00    -0.204 F 
ATOM     40  C   UNL     1       1.036  -0.150  22.358  0.00  0.00    +0.034 A 
ENDBRANCH  32  34
BRANCH  24  26
ATOM     26  C   UNL     1      -1.128   3.140  24.879  0.00  0.00    +0.080 C 
ATOM     27  C   UNL     1      -0.631   3.342  25.506  0.00  0.00    +0.028 C 
ATOM     28  C   UNL     1      -0.283   4.089  25.534  0.00  0.00    +0.089 C 
ATOM     29  N   UNL     1      -0.433   4.636  24.934  0.00  0.00    -0.218 NA
ATOM     30  C   UNL     1      -0.930   4.435  24.308  0.00  0.00    +0.089 C 
ATOM     31  C   UNL     1      -1.277   3.688  24.280  0.00  0.00    +0.028 C 
ENDBRANCH  24  26
BRANCH  18  16
ATOM     15  N   UNL     1      -2.782   0.623  24.316  0.00  0.00    -0.196 NA
ATOM     16  C   UNL     1      -2.170   0.897  24.796  0.00  0.00    +0.262 C 
ATOM     17  O   UNL     1      -2.312   1.055  25.593  0.00  0.00    -0.271 OA
BRANCH  15   4
ATOM      4  C   UNL     1      -3.535   0.507  24.632  0.00  0.00    +0.179 C 
BRANCH   4   2
ATOM      1  N   UNL     1      -4.565   1.304  25.219  0.00  0.00    -0.086 NA
ATOM      2  C   UNL     1      -4.105   1.100  24.566  0.00  0.00    +0.281 C 
ATOM      3  O   UNL     1      -4.214   1.488  23.846  0.00  0.00    -0.270 OA
ENDBRANCH   4   2
BRANCH   4   5
ATOM      5  C   UNL     1      -3.718  -0.202  25.013  0.00  0.00    +0.059 C 
BRANCH   5   6
ATOM      6  C   UNL     1      -3.885  -0.878  24.570  0.00  0.00    +0.001 A 
ATOM      7  C   UNL     1      -4.264  -0.896  23.837  0.00  0.00    +0.095 A 
ATOM      8  N   UNL     1      -4.315  -1.683  23.597  0.00  0.00    -0.244 NA
ATOM      9  C   UNL     1      -3.969  -2.151  24.180  0.00  0.00    +0.081 A 
ATOM     10  C   UNL     1      -3.703  -1.653  24.782  0.00  0.00    +0.015 A 
ATOM     11  C   UNL     1      -3.329  -1.972  25.445  0.00  0.00    +0.001 A 
ATOM     12  C   UNL     1      -3.222  -2.787  25.507  0.00  0.00    +0.000 A 
ATOM     13  C   UNL     1      -3.488  -3.285  24.905  0.00  0.00    +0.002 A 
ATOM     14  C   UNL     1      -3.862  -2.967  24.242  0.00  0.00    +0.019 A 
ENDBRANCH   5   6
ENDBRANCH   4   5
ENDBRANCH  15   4
ENDBRANCH  18  16
TORSDOF 7
ENDMDL
MODEL 3
REMARK VINA RESULT:     -10.4      1.284      2.068
REMARK  Name = 
REMARK  7 active torsions:
REMARK  status: ('A' for Active; 'I' for Inactive)
REMARK    1  A    between atoms: C_2  and  C_4
REMARK    2  A    between atoms: C_4  and  C_5
REMARK    3  A    between atoms: C_4  and  N_15
REMARK    4  A    between atoms: C_5  and  C_6
REMARK    5  A    between atoms: C_16  and  C_18
REMARK    6  A    between atoms: C_24  and  C_26
REMARK    7  A    between atoms: C_32  and  C_34
REMARK                            x       y       z     vdW  Elec       q    Type
REMARK                         _______ _______ _______ _____ _____    ______ ____
ROOT
ATOM     18  C   UNL     1      -2.813   0.819  23.841  0.00  0.00    +0.174 C 
ATOM     19  C   UNL     1      -3.415   0.309  24.082  0.00  0.00    +0.123 C 
ATOM     20  N   UNL     1      -3.234  -0.461  24.319  0.00  0.00    -0.272 N 
ATOM     21  C   UNL     1      -2.450  -0.720  24.316  0.00  0.00    +0.115 C 
ATOM     22  C   UNL     1      -1.848  -0.209  24.075  0.00  0.00    +0.115 C 
ATOM     23  N   UNL     1      -2.029   0.559  23.838  0.00  0.00    -0.270 N 
ATOM     24  C   UNL     1      -1.427   1.070  23.597  0.00  0.00    +0.226 C 
ATOM     25  O   UNL     1      -1.608   1.839  23.359  0.00  0.00    -0.275 OA
ATOM     32  C   UNL     1      -3.836  -0.970  24.560  0.00  0.00    +0.249 C 
ATOM     33  O   UNL     1      -4.619  -0.711  24.563  0.00  0.00    -0.270 OA
ENDROOT
BRANCH  32  34
ATOM     34  C   UNL     1      -3.655  -1.739  24.798  0.00  0.00    +0.056 A 
ATOM     35  C   UNL     1      -3.397  -1.883  25.568  0.00  0.00    +0.005 A 
ATOM     36  C   UNL     1      -3.215  -2.652  25.806  0.00  0.00    +0.002 A 
ATOM     37  C   UNL     1      -3.293  -3.277  25.273  0.00  0.00    +0.030 A 
ATOM     38  C   UNL     1      -3.551  -3.133  24.503  0.00  0.00    +0.140 A 
ATOM     39  F   UNL     1      -3.628  -3.759  23.970  0.00  0.00    -0.204 F 
ATOM     40  C   UNL     1      -3.732  -2.365  24.265  0.00  0.00    +0.034 A 
ENDBRANCH  32  34
BRANCH  24  26
ATOM     26  C   UNL     1      -0.644   0.811  23.594  0.00  0.00    +0.080 C 
ATOM     27  C   UNL     1      -0.128   1.051  24.191  0.00  0.00    +0.028 C 
ATOM     28  C   UNL     1       0.656   0.792  24.188  0.00  0.00    +0.089 C 
ATOM     29  N   UNL     1       0.922   0.293  23.588  0.00  0.00    -0.218 NA
ATOM     30  C   UNL     1       0.407   0.053  22.991  0.00  0.00    +0.089 C 
ATOM     31  C   UNL     1      -0.376   0.312  22.994  0.00  0.00    +0.028 C 
ENDBRANCH  24  26
BRANCH  18  16
ATOM     15  N   UNL     1      -3.333   2.116  24.138  0.00  0.00    -0.196 NA
ATOM     16  C   UNL     1      -2.994   1.588  23.603  0.00  0.00    +0.262 C 
ATOM     17  O   UNL     1      -2.835   1.828  22.830  0.00  0.00    -0.271 OA
BRANCH  15   4
ATOM      4  C   UNL     1      -3.514   2.885  23.901  0.00  0.00    +0.179 C 
BRANCH   4   2
ATOM      1  N   UNL     1      -4.931   2.832  24.079  0.00  0.00    -0.086 NA
ATOM      2  C   UNL     1      -4.275   3.067  23.638  0.00  0.00    +0.281 C 
ATOM      3  O   UNL     1      -4.379   3.484  22.933  0.00  0.00    -0.270 OA
ENDBRANCH   4   2
BRANCH   4   5
ATOM      5  C   UNL     1      -2.934   3.472  23.925  0.00  0.00    +0.059 C 
BRANCH   5   6
ATOM      6  C   UNL     1      -2.771   3.861  24.633  0.00  0.00    +0.001 A 
ATOM      7  C   UNL     1      -3.222   3.824  25.323  0.00  0.00    +0.095 A 
ATOM      8  N   UNL     1      -2.857   4.296  25.893  0.00  0.00    -0.244 NA
ATOM      9  C   UNL     1      -2.180   4.624  25.556  0.00  0.00    +0.081 A 
ATOM     10  C   UNL     1      -2.127   4.355  24.777  0.00  0.00    +0.015 A 
ATOM     11  C   UNL     1      -1.498   4.596  24.301  0.00  0.00    +0.001 A 
ATOM     12  C   UNL     1      -0.923   5.105  24.601  0.00  0.00    +0.000 A 
ATOM     13  C   UNL     1      -0.977   5.374  25.380  0.00  0.00    +0.002 A 
ATOM     14  C   UNL     1      -1.605   5.134  25.857  0.00  0.00    +0.019 A 
ENDBRANCH   5   6
ENDBRANCH   4   5
ENDBRANCH  15   4
ENDBRANCH  18  16
TORSDOF 7
ENDMDL
MODEL 4
REMARK VINA RESULT:     -10.3      1.947      3.903
REMARK  Name = 
REMARK  7 active torsions:
REMARK  status: ('A' for Active; 'I' for Inactive)
REMARK    1  A    between atoms: C_2  and  C_4
REMARK    2  A    between atoms: C_4  and  C_5
REMARK    3  A    between atoms: C_4  and  N_15
REMARK    4  A    between atoms: C_5  and  C_6
REMARK    5  A    between atoms: C_16  and  C_18
REMARK    6  A    between atoms: C_24  and  C_26
REMARK    7  A    between atoms: C_32  and  C_34
REMARK                            x       y       z     vdW  Elec       q    Type
REMARK                         _______ _______ _______ _____ _____    ______ ____
ROOT
ATOM     18  C   UNL     1      -2.910   0.562  24.527  0.00  0.00    +0.174 C 
ATOM     19  C   UNL     1      -3.298   1.262  24.728  0.00  0.00    +0.123 C 
ATOM     20  N   UNL     1      -4.102   1.250  24.912  0.00  0.00    -0.272 N 
ATOM     21  C   UNL     1      -4.519   0.538  24.894  0.00  0.00    +0.115 C 
ATOM     22  C   UNL     1      -4.131  -0.162  24.693  0.00  0.00    +0.115 C 
ATOM     23  N   UNL     1      -3.327  -0.150  24.509  0.00  0.00    -0.270 N 
ATOM     24  C   UNL     1      -2.940  -0.850  24.308  0.00  0.00    +0.226 C 
ATOM     25  O   UNL     1      -2.135  -0.839  24.124  0.00  0.00    -0.275 OA
ATOM     32  C   UNL     1      -4.489   1.950  25.113  0.00  0.00    +0.249 C 
ATOM     33  O   UNL     1      -4.072   2.662  25.130  0.00  0.00    -0.270 OA
ENDROOT
BRANCH  32  34
ATOM     34  C   UNL     1      -5.294   1.938  25.297  0.00  0.00    +0.056 A 
ATOM     35  C   UNL     1      -5.855   1.960  24.692  0.00  0.00    +0.005 A 
ATOM     36  C   UNL     1      -6.659   1.948  24.876  0.00  0.00    +0.002 A 
ATOM     37  C   UNL     1      -6.902   1.915  25.664  0.00  0.00    +0.030 A 
ATOM     38  C   UNL     1      -6.340   1.894  26.268  0.00  0.00    +0.140 A 
ATOM     39  F   UNL     1      -6.584   1.860  27.056  0.00  0.00    -0.204 F 
ATOM     40  C   UNL     1      -5.536   1.905  26.084  0.00  0.00    +0.034 A 
ENDBRANCH  32  34
BRANCH  24  26
ATOM     26  C   UNL     1      -3.356  -1.562  24.291  0.00  0.00    +0.080 C 
ATOM     27  C   UNL     1      -3.247  -2.119  24.890  0.00  0.00    +0.028 C 
ATOM     28  C   UNL     1      -3.664  -2.831  24.873  0.00  0.00    +0.089 C 
ATOM     29  N   UNL     1      -4.190  -2.985  24.256  0.00  0.00    -0.218 NA
ATOM     30  C   UNL     1      -4.299  -2.429  23.657  0.00  0.00    +0.089 C 
ATOM     31  C   UNL     1      -3.882  -1.718  23.675  0.00  0.00    +0.028 C 
ENDBRANCH  24  26
BRANCH  18  16
ATOM     15  N   UNL     1      -1.557   0.823  24.906  0.00  0.00    -0.196 NA
ATOM     16  C   UNL     1      -2.106   0.573  24.343  0.00  0.00    +0.262 C 
ATOM     17  O   UNL     1      -1.851   0.334  23.596  0.00  0.00    -0.271 OA
BRANCH  15   4
ATOM      4  C   UNL     1      -0.754   0.835  24.722  0.00  0.00    +0.179 C 
BRANCH   4   2
ATOM      1  N   UNL     1       0.180  -0.105  24.185  0.00  0.00    -0.086 NA
ATOM      2  C   UNL     1      -0.303   0.148  24.804  0.00  0.00    +0.281 C 
ATOM      3  O   UNL     1      -0.336  -0.285  25.506  0.00  0.00    -0.270 OA
ENDBRANCH   4   2
BRANCH   4   5
ATOM      5  C   UNL     1      -0.400   1.532  24.457  0.00  0.00    +0.059 C 
BRANCH   5   6
ATOM      6  C   UNL     1      -0.316   2.173  24.969  0.00  0.00    +0.001 A 
ATOM      7  C   UNL     1      -0.112   2.132  25.768  0.00  0.00    +0.095 A 
ATOM      8  N   UNL     1      -0.091   2.901  26.065  0.00  0.00    -0.244 NA
ATOM      9  C   UNL     1      -0.283   3.417  25.451  0.00  0.00    +0.081 A 
ATOM     10  C   UNL     1      -0.422   2.967  24.774  0.00  0.00    +0.015 A 
ATOM     11  C   UNL     1      -0.626   3.339  24.067  0.00  0.00    +0.001 A 
ATOM     12  C   UNL     1      -0.692   4.160  24.036  0.00  0.00    +0.000 A 
ATOM     13  C   UNL     1      -0.553   4.610  24.713  0.00  0.00    +0.002 A 
ATOM     14  C   UNL     1      -0.348   4.239  25.421  0.00  0.00    +0.019 A 
ENDBRANCH   5   6
ENDBRANCH   4   5
ENDBRANCH  15   4
ENDBRANCH  18  16
TORSDOF 7
ENDMDL
MODEL 5
REMARK VINA RESULT:     -10.0      1.997      3.789
REMARK  Name = 
REMARK  7 active torsions:
REMARK  status: ('A' for Active; 'I' for Inactive)
REMARK    1  A    between atoms: C_2  and  C_4
REMARK    2  A    between atoms: C_4  and  C_5
REMARK    3  A    between atoms: C_4  and  N_15
REMARK    4  A    between atoms: C_5  and  C_6
REMARK    5  A    between atoms: C_16  and  C_18
REMARK    6  A    between atoms: C_24  and  C_26
REMARK    7  A    between atoms: C_32  and  C_34
REMARK                            x       y       z     vdW  Elec       q    Type
REMARK                         _______ _______ _______ _____ _____    ______ ____
ROOT
ATOM     18  C   UNL     1      -0.503   0.927  24.716  0.00  0.00    +0.174 C 
ATOM     19  C   UNL     1       0.148   1.255  24.330  0.00  0.00    +0.123 C 
ATOM     20  N   UNL     1       0.630   0.780  23.856  0.00  0.00    -0.272 N 
ATOM     21  C   UNL     1       0.461  -0.022  23.770  0.00  0.00    +0.115 C 
ATOM     22  C   UNL     1      -0.190  -0.350  24.156  0.00  0.00    +0.115 C 
ATOM     23  N   UNL     1      -0.672   0.124  24.629  0.00  0.00    -0.270 N 
ATOM     24  C   UNL     1      -1.323  -0.204  25.016  0.00  0.00    +0.226 C 
ATOM     25  O   UNL     1      -1.804   0.270  25.489  0.00  0.00    -0.275 OA
ATOM     32  C   UNL     1       1.280   1.109  23.470  0.00  0.00    +0.249 C 
ATOM     33  O   UNL     1       1.450   1.912  23.557  0.00  0.00    -0.270 OA
ENDROOT
BRANCH  32  34
ATOM     34  C   UNL     1       1.762   0.634  22.997  0.00  0.00    +0.056 A 
ATOM     35  C   UNL     1       1.437   0.224  22.359  0.00  0.00    +0.005 A 
ATOM     36  C   UNL     1       1.919  -0.251  21.886  0.00  0.00    +0.002 A 
ATOM     37  C   UNL     1       2.725  -0.315  22.051  0.00  0.00    +0.030 A 
ATOM     38  C   UNL     1       3.049   0.096  22.689  0.00  0.00    +0.140 A 
ATOM     39  F   UNL     1       3.855   0.032  22.853  0.00  0.00    -0.204 F 
ATOM     40  C   UNL     1       2.568   0.571  23.162  0.00  0.00    +0.034 A 
ENDBRANCH  32  34
BRANCH  24  26
ATOM     26  C   UNL     1      -1.492  -1.007  24.929  0.00  0.00    +0.080 C 
ATOM     27  C   UNL     1      -2.115  -1.247  24.444  0.00  0.00    +0.028 C 
ATOM     28  C   UNL     1      -2.284  -2.050  24.358  0.00  0.00    +0.089 C 
ATOM     29  N   UNL     1      -1.831  -2.612  24.756  0.00  0.00    -0.218 NA
ATOM     30  C   UNL     1      -1.208  -2.373  25.241  0.00  0.00    +0.089 C 
ATOM     31  C   UNL     1      -1.039  -1.570  25.327  0.00  0.00    +0.028 C 
ENDBRANCH  24  26
BRANCH  18  16
ATOM     15  N   UNL     1      -1.383   2.044  24.859  0.00  0.00    -0.196 NA
ATOM     16  C   UNL     1      -0.984   1.401  25.189  0.00  0.00    +0.262 C 
ATOM     17  O   UNL     1      -1.067   1.233  25.992  0.00  0.00    -0.271 OA
BRANCH  15   4
ATOM      4  C   UNL     1      -1.864   2.517  25.332  0.00  0.00    +0.179 C 
BRANCH   4   2
ATOM      1  N   UNL     1      -1.114   3.730  25.230  0.00  0.00    -0.086 NA
ATOM      2  C   UNL     1      -1.556   3.199  25.681  0.00  0.00    +0.281 C 
ATOM      3  O   UNL     1      -1.691   3.349  26.481  0.00  0.00    -0.270 OA
ENDBRANCH   4   2
BRANCH   4   5
ATOM      5  C   UNL     1      -2.653   2.311  25.457  0.00  0.00    +0.059 C 
BRANCH   5   6
ATOM      6  C   UNL     1      -3.234   2.559  24.927  0.00  0.00    +0.001 A 
ATOM      7  C   UNL     1      -3.118   3.057  24.278  0.00  0.00    +0.095 A 
ATOM      8  N   UNL     1      -3.845   3.158  23.902  0.00  0.00    -0.244 NA
ATOM      9  C   UNL     1      -4.410   2.723  24.317  0.00  0.00    +0.081 A 
ATOM     10  C   UNL     1      -4.032   2.353  24.950  0.00  0.00    +0.015 A 
ATOM     11  C   UNL     1      -4.464   1.876  25.466  0.00  0.00    +0.001 A 
ATOM     12  C   UNL     1      -5.273   1.769  25.350  0.00  0.00    +0.000 A 
ATOM     13  C   UNL     1      -5.651   2.140  24.717  0.00  0.00    +0.002 A 
ATOM     14  C   UNL     1      -5.220   2.617  24.200  0.00  0.00    +0.019 A 
ENDBRANCH   5   6
ENDBRANCH   4   5
ENDBRANCH  15   4
ENDBRANCH  18  16
TORSDOF 7
ENDMDL
MODEL 6
REMARK VINA RESULT:      -9.9      1.538      3.779
REMARK  Name = 
REMARK  7 active torsions:
REMARK  status: ('A' for Active; 'I' for Inactive)
REMARK    1  A    between atoms: C_2  and  C_4
REMARK    2  A    between atoms: C_4  and  C_5
REMARK    3  A    between atoms: C_4  and  N_15
REMARK    4  A    between atoms: C_5  and  C_6
REMARK    5  A    between atoms: C_16  and  C_18
REMARK    6  A    between atoms: C_24  and  C_26
REMARK    7  A    between atoms: C_32  and  C_34
REMARK                            x       y       z     vdW  Elec       q    Type
REMARK                         _______ _______ _______ _____ _____    ______ ____
ROOT
ATOM     18  C   UNL     1      -2.757   0.485  24.664  0.00  0.00    +0.174 C 
ATOM     19  C   UNL     1      -2.036   0.841  24.476  0.00  0.00    +0.123 C 
ATOM     20  N   UNL     1      -1.416   0.385  24.178  0.00  0.00    -0.272 N 
ATOM     21  C   UNL     1      -1.516  -0.427  24.070  0.00  0.00    +0.115 C 
ATOM     22  C   UNL     1      -2.236  -0.782  24.259  0.00  0.00    +0.115 C 
ATOM     23  N   UNL     1      -2.856  -0.327  24.555  0.00  0.00    -0.270 N 
ATOM     24  C   UNL     1      -3.576  -0.682  24.744  0.00  0.00    +0.226 C 
ATOM     25  O   UNL     1      -4.197  -0.226  25.041  0.00  0.00    -0.275 OA
ATOM     32  C   UNL     1      -0.696   0.741  23.990  0.00  0.00    +0.249 C 
ATOM     33  O   UNL     1      -0.596   1.552  24.099  0.00  0.00    -0.270 OA
ENDROOT
BRANCH  32  34
ATOM     34  C   UNL     1      -0.076   0.285  23.693  0.00  0.00    +0.056 A 
ATOM     35  C   UNL     1       0.346  -0.215  24.196  0.00  0.00    +0.005 A 
ATOM     36  C   UNL     1       0.966  -0.671  23.899  0.00  0.00    +0.002 A 
ATOM     37  C   UNL     1       1.164  -0.627  23.099  0.00  0.00    +0.030 A 
ATOM     38  C   UNL     1       0.742  -0.127  22.597  0.00  0.00    +0.140 A 
ATOM     39  F   UNL     1       0.941  -0.084  21.797  0.00  0.00    -0.204 F 
ATOM     40  C   UNL     1       0.122   0.329  22.893  0.00  0.00    +0.034 A 
ENDBRANCH  32  34
BRANCH  24  26
ATOM     26  C   UNL     1      -3.676  -1.494  24.636  0.00  0.00    +0.080 C 
ATOM     27  C   UNL     1      -4.055  -1.776  23.959  0.00  0.00    +0.028 C 
ATOM     28  C   UNL     1      -4.155  -2.588  23.850  0.00  0.00    +0.089 C 
ATOM     29  N   UNL     1      -3.877  -3.117  24.419  0.00  0.00    -0.218 NA
ATOM     30  C   UNL     1      -3.498  -2.835  25.095  0.00  0.00    +0.089 C 
ATOM     31  C   UNL     1      -3.398  -2.024  25.203  0.00  0.00    +0.028 C 
ENDBRANCH  24  26
BRANCH  18  16
ATOM     15  N   UNL     1      -3.625   1.615  24.555  0.00  0.00    -0.196 NA
ATOM     16  C   UNL     1      -3.376   0.941  24.961  0.00  0.00    +0.262 C 
ATOM     17  O   UNL     1      -3.748   0.723  25.664  0.00  0.00    -0.271 OA
BRANCH  15   4
ATOM      4  C   UNL     1      -4.245   2.070  24.852  0.00  0.00    +0.179 C 
BRANCH   4   2
ATOM      1  N   UNL     1      -5.584   1.801  25.274  0.00  0.00    -0.086 NA
ATOM      2  C   UNL     1      -5.026   1.871  24.672  0.00  0.00    +0.281 C 
ATOM      3  O   UNL     1      -5.246   1.742  23.887  0.00  0.00    -0.270 OA
ENDBRANCH   4   2
BRANCH   4   5
ATOM      5  C   UNL     1      -4.085   2.725  25.329  0.00  0.00    +0.059 C 
BRANCH   5   6
ATOM      6  C   UNL     1      -3.763   3.407  24.998  0.00  0.00    +0.001 A 
ATOM      7  C   UNL     1      -4.001   3.764  24.293  0.00  0.00    +0.095 A 
ATOM      8  N   UNL     1      -3.530   4.431  24.174  0.00  0.00    -0.244 NA
ATOM      9  C   UNL     1      -3.002   4.486  24.804  0.00  0.00    +0.081 A 
ATOM     10  C   UNL     1      -3.146   3.854  25.314  0.00  0.00    +0.015 A 
ATOM     11  C   UNL     1      -2.695   3.767  26.000  0.00  0.00    +0.001 A 
ATOM     12  C   UNL     1      -2.102   4.311  26.176  0.00  0.00    +0.000 A 
ATOM     13  C   UNL     1      -1.958   4.944  25.666  0.00  0.00    +0.002 A 
ATOM     14  C   UNL     1      -2.408   5.032  24.980  0.00  0.00    +0.019 A 
ENDBRANCH   5   6
ENDBRANCH   4   5
ENDBRANCH  15   4
ENDBRANCH  18  16
TORSDOF 7
ENDMDL
MODEL 7
REMARK VINA RESULT:      -9.8      1.935      4.937
REMARK  Name = 
REMARK  7 active torsions:
REMARK  status: ('A' for Active; 'I' for Inactive)
REMARK    1  A    between atoms: C_2  and  C_4
REMARK    2  A    between atoms: C_4  and  C_5
REMARK    3  A    between atoms: C_4  and  N_15
REMARK    4  A    between atoms: C_5  and  C_6
REMARK    5  A    between atoms: C_16  and  C_18
REMARK    6  A    between atoms: C_24  and  C_26
REMARK    7  A    between atoms: C_32  and  C_34
REMARK                            x       y       z     vdW  Elec       q    Type
REMARK                         _______ _______ _______ _____ _____    ______ ____
ROOT
ATOM     18  C   UNL     1      -2.010   1.023  25.091  0.00  0.00    +0.174 C 
ATOM     19  C   UNL     1      -2.759   0.676  25.088  0.00  0.00    +0.123 C 
ATOM     20  N   UNL     1      -3.434   1.150  25.080  0.00  0.00    -0.272 N 
ATOM     21  C   UNL     1      -3.361   1.972  25.074  0.00  0.00    +0.115 C 
ATOM     22  C   UNL     1      -2.612   2.319  25.076  0.00  0.00    +0.115 C 
ATOM     23  N   UNL     1      -1.938   1.846  25.085  0.00  0.00    -0.270 N 
ATOM     24  C   UNL     1      -1.189   2.193  25.087  0.00  0.00    +0.226 C 
ATOM     25  O   UNL     1      -0.514   1.719  25.095  0.00  0.00    -0.275 OA
ATOM     32  C   UNL     1      -4.182   0.802  25.077  0.00  0.00    +0.249 C 
ATOM     33  O   UNL     1      -4.255  -0.019  25.084  0.00  0.00    -0.270 OA
ENDROOT
BRANCH  32  34
ATOM     34  C   UNL     1      -4.857   1.277  25.069  0.00  0.00    +0.056 A 
ATOM     35  C   UNL     1      -5.189   1.508  24.350  0.00  0.00    +0.005 A 
ATOM     36  C   UNL     1      -5.864   1.982  24.342  0.00  0.00    +0.002 A 
ATOM     37  C   UNL     1      -6.207   2.225  25.052  0.00  0.00    +0.030 A 
ATOM     38  C   UNL     1      -5.875   1.993  25.770  0.00  0.00    +0.140 A 
ATOM     39  F   UNL     1      -6.218   2.236  26.481  0.00  0.00    -0.204 F 
ATOM     40  C   UNL     1      -5.200   1.519  25.779  0.00  0.00    +0.034 A 
ENDBRANCH  32  34
BRANCH  24  26
ATOM     26  C   UNL     1      -1.116   3.015  25.081  0.00  0.00    +0.080 C 
ATOM     27  C   UNL     1      -0.892   3.404  24.388  0.00  0.00    +0.028 C 
ATOM     28  C   UNL     1      -0.819   4.226  24.382  0.00  0.00    +0.089 C 
ATOM     29  N   UNL     1      -0.970   4.658  25.069  0.00  0.00    -0.218 NA
ATOM     30  C   UNL     1      -1.193   4.269  25.761  0.00  0.00    +0.089 C 
ATOM     31  C   UNL     1      -1.267   3.448  25.767  0.00  0.00    +0.028 C 
ENDBRANCH  24  26
BRANCH  18  16
ATOM     15  N   UNL     1      -1.194   0.021  24.482  0.00  0.00    -0.196 NA
ATOM     16  C   UNL     1      -1.335   0.550  25.099  0.00  0.00    +0.262 C 
ATOM     17  O   UNL     1      -0.801   0.605  25.725  0.00  0.00    -0.271 OA
BRANCH  15   4
ATOM      4  C   UNL     1      -0.519  -0.453  24.490  0.00  0.00    +0.179 C 
BRANCH   4   2
ATOM      1  N   UNL     1      -1.146  -1.737  24.482  0.00  0.00    -0.086 NA
ATOM      2  C   UNL     1      -0.564  -1.229  24.768  0.00  0.00    +0.281 C 
ATOM      3  O   UNL     1      -0.024  -1.495  25.333  0.00  0.00    -0.270 OA
ENDBRANCH   4   2
BRANCH   4   5
ATOM      5  C   UNL     1       0.201  -0.151  24.221  0.00  0.00    +0.059 C 
BRANCH   5   6
ATOM      6  C   UNL     1       0.425  -0.259  23.435  0.00  0.00    +0.001 A 
ATOM      7  C   UNL     1      -0.049  -0.563  22.832  0.00  0.00    +0.095 A 
ATOM      8  N   UNL     1       0.396  -0.573  22.138  0.00  0.00    -0.244 NA
ATOM      9  C   UNL     1       1.145  -0.275  22.312  0.00  0.00    +0.081 A 
ATOM     10  C   UNL     1       1.163  -0.081  23.113  0.00  0.00    +0.015 A 
ATOM     11  C   UNL     1       1.850   0.233  23.446  0.00  0.00    +0.001 A 
ATOM     12  C   UNL     1       2.518   0.353  22.977  0.00  0.00    +0.000 A 
ATOM     13  C   UNL     1       2.500   0.158  22.176  0.00  0.00    +0.002 A 
ATOM     14  C   UNL     1       1.814  -0.156  21.842  0.00  0.00    +0.019 A 
ENDBRANCH   5   6
ENDBRANCH   4   5
ENDBRANCH  15   4
ENDBRANCH  18  16
TORSDOF 7
ENDMDL
MODEL 8
REMARK VINA RESULT:      -9.8      1.592      4.052
REMARK  Name = 
REMARK  7 active torsions:
REMARK  status: ('A' for Active; 'I' for Inactive)
REMARK    1  A    between atoms: C_2  and  C_4
REMARK    2  A    between atoms: C_4  and  C_5
REMARK    3  A    between atoms: C_4  and  N_15
REMARK    4  A    between atoms: C_5  and  C_6
REMARK    5  A    between atoms: C_16  and  C_18
REMARK    6  A    between atoms: C_24  and  C_26
REMARK    7  A    between atoms: C_32  and  C_34
REMARK                            x       y       z     vdW  Elec       q    Type
REMARK                         _______ _______ _______ _____ _____    ______ ____
ROOT
ATOM     18  C   UNL     1      -3.364   1.467  24.840  0.00  0.00    +0.174 C 
ATOM     19  C   UNL     1      -2.925   0.782  24.702  0.00  0.00    +0.123 C 
ATOM     20  N   UNL     1      -3.295   0.044  24.715  0.00  0.00    -0.272 N 
ATOM     21  C   UNL     1      -4.104  -0.009  24.866  0.00  0.00    +0.115 C 
ATOM     22  C   UNL     1      -4.544   0.676  25.003  0.00  0.00    +0.115 C 
ATOM     23  N   UNL     1      -4.174   1.413  24.990  0.00  0.00    -0.270 N 
ATOM     24  C   UNL     1      -4.614   2.097  25.128  0.00  0.00    +0.226 C 
ATOM     25  O   UNL     1      -4.244   2.835  25.115  0.00  0.00    -0.275 OA
ATOM     32  C   UNL     1      -2.854  -0.640  24.578  0.00  0.00    +0.249 C 
ATOM     33  O   UNL     1      -2.045  -0.586  24.427  0.00  0.00    -0.270 OA
ENDROOT
BRANCH  32  34
ATOM     34  C   UNL     1      -3.224  -1.377  24.591  0.00  0.00    +0.056 A 
ATOM     35  C   UNL     1      -3.153  -1.863  25.254  0.00  0.00    +0.005 A 
ATOM     36  C   UNL     1      -3.522  -2.600  25.267  0.00  0.00    +0.002 A 
ATOM     37  C   UNL     1      -3.963  -2.852  24.617  0.00  0.00    +0.030 A 
ATOM     38  C   UNL     1      -4.034  -2.366  23.954  0.00  0.00    +0.140 A 
ATOM     39  F   UNL     1      -4.475  -2.619  23.303  0.00  0.00    -0.204 F 
ATOM     40  C   UNL     1      -3.665  -1.629  23.941  0.00  0.00    +0.034 A 
ENDBRANCH  32  34
BRANCH  24  26
ATOM     26  C   UNL     1      -5.423   2.044  25.278  0.00  0.00    +0.080 C 
ATOM     27  C   UNL     1      -5.700   2.058  26.056  0.00  0.00    +0.028 C 
ATOM     28  C   UNL     1      -6.510   2.005  26.206  0.00  0.00    +0.089 C 
ATOM     29  N   UNL     1      -7.042   1.938  25.579  0.00  0.00    -0.218 NA
ATOM     30  C   UNL     1      -6.766   1.924  24.803  0.00  0.00    +0.089 C 
ATOM     31  C   UNL     1      -5.956   1.977  24.652  0.00  0.00    +0.028 C 
ENDBRANCH  24  26
BRANCH  18  16
ATOM     15  N   UNL     1      -2.395   2.375  25.366  0.00  0.00    -0.196 NA
ATOM     16  C   UNL     1      -2.995   2.204  24.827  0.00  0.00    +0.262 C 
ATOM     17  O   UNL     1      -3.227   2.771  24.274  0.00  0.00    -0.271 OA
BRANCH  15   4
ATOM      4  C   UNL     1      -2.026   3.112  25.354  0.00  0.00    +0.179 C 
BRANCH   4   2
ATOM      1  N   UNL     1      -2.459   4.470  25.456  0.00  0.00    -0.086 NA
ATOM      2  C   UNL     1      -2.332   3.733  25.803  0.00  0.00    +0.281 C 
ATOM      3  O   UNL     1      -2.509   3.616  26.600  0.00  0.00    -0.270 OA
ENDBRANCH   4   2
BRANCH   4   5
ATOM      5  C   UNL     1      -1.352   3.228  24.892  0.00  0.00    +0.059 C 
BRANCH   5   6
ATOM      6  C   UNL     1      -0.642   2.864  25.100  0.00  0.00    +0.001 A 
ATOM      7  C   UNL     1      -0.306   2.849  25.854  0.00  0.00    +0.095 A 
ATOM      8  N   UNL     1       0.401   2.426  25.810  0.00  0.00    -0.244 NA
ATOM      9  C   UNL     1       0.502   2.181  25.029  0.00  0.00    +0.081 A 
ATOM     10  C   UNL     1      -0.142   2.451  24.591  0.00  0.00    +0.015 A 
ATOM     11  C   UNL     1      -0.189   2.286  23.783  0.00  0.00    +0.001 A 
ATOM     12  C   UNL     1       0.407   1.851  23.415  0.00  0.00    +0.000 A 
ATOM     13  C   UNL     1       1.051   1.581  23.854  0.00  0.00    +0.002 A 
ATOM     14  C   UNL     1       1.099   1.745  24.661  0.00  0.00    +0.019 A 
ENDBRANCH   5   6
ENDBRANCH   4   5
ENDBRANCH  15   4
ENDBRANCH  18  16
TORSDOF 7
ENDMDL
MODEL 9
REMARK VINA RESULT:      -9.6      1.931      4.140
REMARK  Name = 
REMARK  7 active torsions:
REMARK  status: ('A' for Active; 'I' for Inactive)
REMARK    1  A    between atoms: C_2  and  C_4
REMARK    2  A    between atoms: C_4  and  C_5
REMARK    3  A    between atoms: C_4  and  N_15
REMARK    4  A    between atoms: C_5  and  C_6
REMARK    5  A    between atoms: C_16  and  C_18
REMARK    6  A    between atoms: C_24  and  C_26
REMARK    7  A    between atoms: C_32  and  C_34
REMARK                            x       y       z     vdW  Elec       q    Type
REMARK                         _______ _______ _______ _____ _____    ______ ____
ROOT
ATOM     18  C   UNL     1      -1.025   0.416  24.801  0.00  0.00    +0.174 C 
ATOM     19  C   UNL     1      -0.613  -0.162  24.381  0.00  0.00    +0.123 C 
ATOM     20  N   UNL     1       0.033   0.048  23.912  0.00  0.00    -0.272 N 
ATOM     21  C   UNL     1       0.266   0.838  23.862  0.00  0.00    +0.115 C 
ATOM     22  C   UNL     1      -0.146   1.417  24.282  0.00  0.00    +0.115 C 
ATOM     23  N   UNL     1      -0.791   1.207  24.751  0.00  0.00    -0.270 N 
ATOM     24  C   UNL     1      -1.203   1.785  25.170  0.00  0.00    +0.226 C 
ATOM     25  O   UNL     1      -1.848   1.575  25.639  0.00  0.00    -0.275 OA
ATOM     32  C   UNL     1       0.444  -0.531  23.493  0.00  0.00    +0.249 C 
ATOM     33  O   UNL     1       0.211  -1.321  23.543  0.00  0.00    -0.270 OA
ENDROOT
BRANCH  32  34
ATOM     34  C   UNL     1       1.090  -0.320  23.024  0.00  0.00    +0.056 A 
ATOM     35  C   UNL     1       1.776  -0.028  23.375  0.00  0.00    +0.005 A 
ATOM     36  C   UNL     1       2.422   0.183  22.906  0.00  0.00    +0.002 A 
ATOM     37  C   UNL     1       2.380   0.102  22.086  0.00  0.00    +0.030 A 
ATOM     38  C   UNL     1       1.693  -0.191  21.736  0.00  0.00    +0.140 A 
ATOM     39  F   UNL     1       1.651  -0.273  20.915  0.00  0.00    -0.204 F 
ATOM     40  C   UNL     1       1.048  -0.402  22.204  0.00  0.00    +0.034 A 
ENDBRANCH  32  34
BRANCH  24  26
ATOM     26  C   UNL     1      -0.970   2.575  25.120  0.00  0.00    +0.080 C 
ATOM     27  C   UNL     1      -0.396   2.869  25.636  0.00  0.00    +0.028 C 
ATOM     28  C   UNL     1      -0.163   3.659  25.586  0.00  0.00    +0.089 C 
ATOM     29  N   UNL     1      -0.503   4.154  25.021  0.00  0.00    -0.218 NA
ATOM     30  C   UNL     1      -1.076   3.861  24.506  0.00  0.00    +0.089 C 
ATOM     31  C   UNL     1      -1.309   3.071  24.556  0.00  0.00    +0.028 C 
ENDBRANCH  24  26
BRANCH  18  16
ATOM     15  N   UNL     1      -2.348  -0.108  24.922  0.00  0.00    -0.196 NA
ATOM     16  C   UNL     1      -1.670   0.206  25.270  0.00  0.00    +0.262 C 
ATOM     17  O   UNL     1      -1.636   0.310  26.087  0.00  0.00    -0.271 OA
BRANCH  15   4
ATOM      4  C   UNL     1      -2.993  -0.319  25.391  0.00  0.00    +0.179 C 
BRANCH   4   2
ATOM      1  N   UNL     1      -2.989  -1.724  25.131  0.00  0.00    -0.086 NA
ATOM      2  C   UNL     1      -3.072  -1.096  25.657  0.00  0.00    +0.281 C 
ATOM      3  O   UNL     1      -3.235  -1.243  26.453  0.00  0.00    -0.270 OA
ENDBRANCH   4   2
BRANCH   4   5
ATOM      5  C   UNL     1      -3.559   0.247  25.593  0.00  0.00    +0.059 C 
BRANCH   5   6
ATOM      6  C   UNL     1      -4.201   0.385  25.095  0.00  0.00    +0.001 A 
ATOM      7  C   UNL     1      -4.407  -0.064  24.433  0.00  0.00    +0.095 A 
ATOM      8  N   UNL     1      -5.084   0.269  24.100  0.00  0.00    -0.244 NA
ATOM      9  C   UNL     1      -5.297   0.923  24.556  0.00  0.00    +0.081 A 
ATOM     10  C   UNL     1      -4.751   0.994  25.170  0.00  0.00    +0.015 A 
ATOM     11  C   UNL     1      -4.827   1.606  25.719  0.00  0.00    +0.001 A 
ATOM     12  C   UNL     1      -5.447   2.145  25.654  0.00  0.00    +0.000 A 
ATOM     13  C   UNL     1      -5.992   2.074  25.039  0.00  0.00    +0.002 A 
ATOM     14  C   UNL     1      -5.918   1.463  24.490  0.00  0.00    +0.019 A 
ENDBRANCH   5   6
ENDBRANCH   4   5
ENDBRANCH  15   4
ENDBRANCH  18  16
TORSDOF 7
ENDMDL
MODEL 10
REMARK VINA RESULT:      -9.5      1.839      4.703
REMARK  Name = 
REMARK  7 active torsions:
REMARK  status: ('A' for Active; 'I' for Inactive)
REMARK    1  A    between atoms: C_2  and  C_4
REMARK    2  A    between atoms: C_4  and  C_5
REMARK    3  A    between atoms: C_4  and  N_15
REMARK    4  A    between atoms: C_5  and  C_6
REMARK    5  A    between atoms: C_16  and  C_18
REMARK    6  A    between atoms: C_24  and  C_26
REMARK    7  A    between atoms: C_32  and  C_34
REMARK                            x       y       z     vdW  Elec       q    Type
REMARK                         _______ _______ _______ _____ _____    ______ ____
ROOT
ATOM     18  C   UNL     1      -2.382   1.123  24.694  0.00  0.00    +0.174 C 
ATOM     19  C   UNL     1      -3.199   1.045  24.772  0.00  0.00    +0.123 C 
ATOM     20  N   UNL     1      -3.662   1.703  24.956  0.00  0.00    -0.272 N 
ATOM     21  C   UNL     1      -3.307   2.440  25.061  0.00  0.00    +0.115 C 
ATOM     22  C   UNL     1      -2.489   2.519  24.982  0.00  0.00    +0.115 C 
ATOM     23  N   UNL     1      -2.027   1.862  24.799  0.00  0.00    -0.270 N 
ATOM     24  C   UNL     1      -1.210   1.940  24.720  0.00  0.00    +0.226 C 
ATOM     25  O   UNL     1      -0.747   1.282  24.537  0.00  0.00    -0.275 OA
ATOM     32  C   UNL     1      -4.479   1.624  25.034  0.00  0.00    +0.249 C 
ATOM     33  O   UNL     1      -4.834   0.886  24.929  0.00  0.00    -0.270 OA
ENDROOT
BRANCH  32  34
ATOM     34  C   UNL     1      -4.942   2.282  25.218  0.00  0.00    +0.056 A 
ATOM     35  C   UNL     1      -5.007   2.903  24.679  0.00  0.00    +0.005 A 
ATOM     36  C   UNL     1      -5.469   3.562  24.862  0.00  0.00    +0.002 A 
ATOM     37  C   UNL     1      -5.866   3.598  25.584  0.00  0.00    +0.030 A 
ATOM     38  C   UNL     1      -5.801   2.977  26.123  0.00  0.00    +0.140 A 
ATOM     39  F   UNL     1      -6.199   3.014  26.846  0.00  0.00    -0.204 F 
ATOM     40  C   UNL     1      -5.339   2.319  25.940  0.00  0.00    +0.034 A 
ENDBRANCH  32  34
BRANCH  24  26
ATOM     26  C   UNL     1      -0.855   2.677  24.825  0.00  0.00    +0.080 C 
ATOM     27  C   UNL     1      -0.775   3.192  24.185  0.00  0.00    +0.028 C 
ATOM     28  C   UNL     1      -0.420   3.929  24.290  0.00  0.00    +0.089 C 
ATOM     29  N   UNL     1      -0.144   4.152  25.035  0.00  0.00    -0.218 NA
ATOM     30  C   UNL     1      -0.223   3.638  25.675  0.00  0.00    +0.089 C 
ATOM     31  C   UNL     1      -0.578   2.901  25.570  0.00  0.00    +0.028 C 
ENDBRANCH  24  26
BRANCH  18  16
ATOM     15  N   UNL     1      -1.957  -0.210  24.982  0.00  0.00    -0.196 NA
ATOM     16  C   UNL     1      -1.920   0.466  24.510  0.00  0.00    +0.262 C 
ATOM     17  O   UNL     1      -1.419   0.484  23.855  0.00  0.00    -0.271 OA
BRANCH  15   4
ATOM      4  C   UNL     1      -1.495  -0.868  24.799  0.00  0.00    +0.179 C 
BRANCH   4   2
ATOM      1  N   UNL     1      -0.094  -1.107  24.648  0.00  0.00    -0.086 NA
ATOM      2  C   UNL     1      -0.743  -0.948  25.130  0.00  0.00    +0.281 C 
ATOM      3  O   UNL     1      -0.642  -0.868  25.945  0.00  0.00    -0.270 OA
ENDBRANCH   4   2
BRANCH   4   5
ATOM      5  C   UNL     1      -1.783  -1.445  24.285  0.00  0.00    +0.059 C 
BRANCH   5   6
ATOM      6  C   UNL     1      -2.290  -2.032  24.565  0.00  0.00    +0.001 A 
ATOM      7  C   UNL     1      -2.157  -2.514  25.222  0.00  0.00    +0.095 A 
ATOM      8  N   UNL     1      -2.803  -3.021  25.301  0.00  0.00    -0.244 NA
ATOM      9  C   UNL     1      -3.335  -2.852  24.695  0.00  0.00    +0.081 A 
ATOM     10  C   UNL     1      -3.018  -2.241  24.240  0.00  0.00    +0.015 A 
ATOM     11  C   UNL     1      -3.434  -1.954  23.588  0.00  0.00    +0.001 A 
ATOM     12  C   UNL     1      -4.167  -2.277  23.391  0.00  0.00    +0.000 A 
ATOM     13  C   UNL     1      -4.484  -2.888  23.846  0.00  0.00    +0.002 A 
ATOM     14  C   UNL     1      -4.068  -3.176  24.498  0.00  0.00    +0.019 A 
ENDBRANCH   5   6
ENDBRANCH   4   5
ENDBRANCH  15   4
ENDBRANCH  18  16
TORSDOF 7
ENDMDL
