REMARK  Name = 
REMARK  8 active torsions:
REMARK  status: ('A' for Active; 'I' for Inactive)
REMARK    1  A    between atoms: CG_2  and  CB_4
REMARK    2  A    between atoms: CB_4  and  CA_5
REMARK    3  A    between atoms: CA_5  and  C_6
REMARK    4  A    between atoms: CA_5  and  N_8
REMARK    5  A    between atoms: C_9  and  C_11
REMARK    6  A    between atoms: C_11  and  C_12
REMARK    7  A    between atoms: C_17  and  C_19
REMARK    8  A    between atoms: C_30  and  C_32
REMARK                            x       y       z     vdW  Elec       q    Type
REMARK                         _______ _______ _______ _____ _____    ______ ____
ROOT
ATOM     12  C   UNK A   0       7.859   2.062   0.000  0.00  0.00    +0.050 C 
ATOM     13  C   UNK A   0       8.574   2.475   0.000  0.00  0.00    +0.063 A 
ATOM     14  C   UNK A   0       9.288   2.062   0.000  0.00  0.00    +0.023 A 
ATOM     15  C   UNK A   0       9.288   1.238   0.000  0.00  0.00    +0.034 C 
ATOM     16  C   UNK A   0       8.574   0.825   0.000  0.00  0.00    +0.010 C 
ATOM     17  C   UNK A   0       8.574   0.000   0.000  0.00  0.00    +0.059 C 
ATOM     18  C   UNK A   0       9.386   0.143   0.000  0.00  0.00    +0.005 C 
ATOM     21  C   UNK A   0       7.859  -0.412   0.000  0.00  0.00    +0.154 C 
ATOM     22  O   UNK A   0       7.859  -1.238   0.000  0.00  0.00    -0.223 OA
ATOM     23  C   UNK A   0       7.145   0.000   0.000  0.00  0.00    +0.033 C 
ATOM     24  C   UNK A   0       7.145   0.825   0.000  0.00  0.00    +0.003 C 
ATOM     25  C   UNK A   0       7.859   1.238   0.000  0.00  0.00    +0.006 C 
ATOM     26  C   UNK A   0       7.145   1.650   0.000  0.00  0.00    +0.000 C 
ATOM     27  S   UNK A   0       9.901   2.615   0.000  0.00  0.00    -0.054 S 
ATOM     28  C   UNK A   0       9.566   3.368   0.000  0.00  0.00    +0.186 A 
ATOM     29  N   UNK A   0       9.978   4.083   0.000  0.00  0.00    -0.148 NA
ATOM     30  C   UNK A   0       9.566   4.797   0.000  0.00  0.00    +0.305 C 
ATOM     31  O   UNK A   0       8.741   4.797   0.000  0.00  0.00    -0.265 OA
ATOM     37  N   UNK A   0       8.745   3.282   0.000  0.00  0.00    -0.227 NA
ENDROOT
BRANCH  30  32
ATOM     32  C   UNK A   0       9.978   5.512   0.000  0.00  0.00    +0.201 A 
ATOM     33  C   UNK A   0       9.643   6.265   0.000  0.00  0.00    +0.046 A 
ATOM     34  C   UNK A   0      10.256   6.817   0.000  0.00  0.00    +0.044 A 
ATOM     35  C   UNK A   0      10.970   6.405   0.000  0.00  0.00    +0.180 A 
ATOM     36  O   UNK A   0      10.799   5.598   0.000  0.00  0.00    -0.446 OA
ENDBRANCH  30  32
BRANCH  17  19
ATOM     19  C   UNK A   0       8.856  -0.775   0.000  0.00  0.00    +0.184 C 
ATOM     20  O   UNK A   0       8.325  -1.407   0.000  0.00  0.00    -0.220 OA
ENDBRANCH  17  19
BRANCH  12  11
ATOM     11  C   UNK A   0       7.145   2.475   0.000  0.00  0.00    +0.093 C 
BRANCH  11   9
ATOM      8  N   LEU A   1       5.716   2.475   0.000  0.00  0.00    -0.204 NA
ATOM      9  C   UNK A   0       6.430   2.062   0.000  0.00  0.00    +0.242 C 
ATOM     10  O   UNK A   0       6.430   1.238   0.000  0.00  0.00    -0.273 OA
BRANCH   8   5
ATOM      5  CA  LEU A   1       5.001   2.062   0.000  0.00  0.00    +0.128 C 
BRANCH   5   6
ATOM      6  C   LEU A   1       5.001   1.238   0.000  0.00  0.00    +0.204 C 
ATOM      7  O   LEU A   1       5.716   0.825   0.000  0.00  0.00    -0.219 OA
ENDBRANCH   5   6
BRANCH   5   4
ATOM      4  CB  LEU A   1       4.287   2.475   0.000  0.00  0.00    +0.024 C 
BRANCH   4   2
ATOM      1  CD1 LEU A   1       2.858   2.475   0.000  0.00  0.00    +0.000 C 
ATOM      2  CG  LEU A   1       3.572   2.062   0.000  0.00  0.00    +0.002 C 
ATOM      3  CD2 LEU A   1       3.572   1.238   0.000  0.00  0.00    +0.000 C 
ENDBRANCH   4   2
ENDBRANCH   5   4
ENDBRANCH   8   5
ENDBRANCH  11   9
ENDBRANCH  12  11
TORSDOF 8
