REMARK  Name = 
REMARK  3 active torsions:
REMARK  status: ('A' for Active; 'I' for Inactive)
REMARK    1  A    between atoms: C_5  and  C_7
REMARK    2  A    between atoms: C_10  and  C_12
REMARK    3  A    between atoms: N_17  and  C_18
REMARK                            x       y       z     vdW  Elec       q    Type
REMARK                         _______ _______ _______ _____ _____    ______ ____
ROOT
ATOM      7  C   UNL     1       0.327  -0.288   0.000  0.00  0.00    +0.108 A 
ATOM      8  C   UNL     1      -0.086   0.427   0.000  0.00  0.00    +0.120 A 
ATOM      9  N   UNL     1       0.466   1.040   0.000  0.00  0.00    -0.226 NA
ATOM     10  C   UNL     1       1.220   0.704   0.000  0.00  0.00    +0.156 A 
ATOM     11  N   UNL     1       1.133  -0.116   0.000  0.00  0.00    -0.227 NA
ENDROOT
BRANCH   7   5
ATOM      1 CL   UNL     1       0.023  -3.176   0.000  0.00  0.00    -0.075 Cl
ATOM      2  C   UNL     1      -0.149  -2.369   0.000  0.00  0.00    +0.087 A 
ATOM      3  C   UNL     1      -0.902  -2.034   0.000  0.00  0.00    +0.019 A 
ATOM      4  C   UNL     1      -0.816  -1.213   0.000  0.00  0.00    +0.009 A 
ATOM      5  C   UNL     1      -0.009  -1.042   0.000  0.00  0.00    +0.049 A 
ATOM      6  S   UNL     1       0.403  -1.756   0.000  0.00  0.00    -0.074 S 
ENDBRANCH   7   5
BRANCH  10  12
ATOM     12  C   UNL     1       1.934   1.117   0.000  0.00  0.00    +0.147 C 
ATOM     13  C   UNL     1       1.934   1.942   0.000  0.00  0.00    +0.166 C 
ATOM     14  O   UNL     1       2.649   2.354   0.000  0.00  0.00    -0.350 OA
ATOM     15  C   UNL     1       3.363   1.942   0.000  0.00  0.00    +0.160 C 
ATOM     16  C   UNL     1       3.363   1.117   0.000  0.00  0.00    +0.105 C 
ATOM     17  N   UNL     1       2.649   0.704   0.000  0.00  0.00    -0.265 NA
BRANCH  17  18
ATOM     18  C   UNL     1       2.649  -0.121   0.000  0.00  0.00    +0.058 C 
ATOM     19  C   UNL     1       3.232  -0.704   0.000  0.00  0.00    +0.016 C 
ATOM     20  C   UNL     1       2.649  -1.288   0.000  0.00  0.00    +0.003 C 
ATOM     21  C   UNL     1       2.065  -0.704   0.000  0.00  0.00    +0.016 C 
ENDBRANCH  17  18
ENDBRANCH  10  12
TORSDOF 3
