MODEL 1
REMARK VINA RESULT:     -12.3      0.000      0.000
REMARK  Name = 
REMARK  3 active torsions:
REMARK  status: ('A' for Active; 'I' for Inactive)
REMARK    1  A    between atoms: C_6  and  C_7
REMARK    2  A    between atoms: C_7  and  N_8
REMARK    3  A    between atoms: C_11  and  C_13
REMARK                            x       y       z     vdW  Elec       q    Type
REMARK                         _______ _______ _______ _____ _____    ______ ____
ROOT
ATOM      8  N   UNL     1      -4.370   2.145  24.631  0.00  0.00    -0.269 NA
ATOM      9  C   UNL     1      -5.031   1.966  25.092  0.00  0.00    +0.073 C 
ATOM     10  C   UNL     1      -5.056   1.147  25.194  0.00  0.00    +0.026 C 
ATOM     11  C   UNL     1      -4.410   0.821  24.797  0.00  0.00    +0.076 C 
ATOM     12  C   UNL     1      -3.987   1.437  24.449  0.00  0.00    +0.080 C 
ENDROOT
BRANCH  11  13
ATOM     13  C   UNL     1      -4.222   0.019  24.756  0.00  0.00    +0.142 A 
ATOM     14  N   UNL     1      -3.828  -0.418  25.334  0.00  0.00    -0.210 NA
ATOM     15  C   UNL     1      -3.757  -1.193  25.064  0.00  0.00    +0.181 A 
ATOM     16  C   UNL     1      -4.107  -1.237  24.318  0.00  0.00    +0.118 A 
ATOM     17  N   UNL     1      -4.394  -0.488  24.127  0.00  0.00    -0.228 NA
ATOM     18  C   UNL     1      -4.118  -1.954  23.910  0.00  0.00    +0.024 A 
ATOM     19  C   UNL     1      -3.780  -2.626  24.246  0.00  0.00    +0.022 A 
ATOM     20  C   UNL     1      -3.431  -2.583  24.992  0.00  0.00    +0.101 A 
ATOM     21  N   UNL     1      -3.419  -1.867  25.402  0.00  0.00    -0.224 NA
ENDBRANCH  11  13
BRANCH   8   7
ATOM      7  C   UNL     1      -4.134   2.899  24.394  0.00  0.00    +0.099 C 
BRANCH   7   6
ATOM      1  F   UNL     1      -1.667   4.426  25.965  0.00  0.00    -0.202 F 
ATOM      2  C   UNL     1      -2.284   4.044  25.572  0.00  0.00    +0.167 A 
ATOM      3  C   UNL     1      -3.045   4.059  25.888  0.00  0.00    +0.167 A 
ATOM      4  F   UNL     1      -3.191   4.456  26.597  0.00  0.00    -0.202 F 
ATOM      5  C   UNL     1      -3.663   3.677  25.496  0.00  0.00    +0.029 A 
ATOM      6  C   UNL     1      -3.517   3.281  24.786  0.00  0.00    -0.004 A 
ATOM     22  C   UNL     1      -2.756   3.266  24.470  0.00  0.00    -0.000 A 
ATOM     23  C   UNL     1      -2.138   3.648  24.864  0.00  0.00    +0.032 A 
ENDBRANCH   7   6
ENDBRANCH   8   7
TORSDOF 3
ENDMDL
MODEL 2
REMARK VINA RESULT:     -12.2      2.591      5.146
REMARK  Name = 
REMARK  3 active torsions:
REMARK  status: ('A' for Active; 'I' for Inactive)
REMARK    1  A    between atoms: C_6  and  C_7
REMARK    2  A    between atoms: C_7  and  N_8
REMARK    3  A    between atoms: C_11  and  C_13
REMARK                            x       y       z     vdW  Elec       q    Type
REMARK                         _______ _______ _______ _____ _____    ______ ____
ROOT
ATOM      8  N   UNL     1      -3.789   0.750  24.407  0.00  0.00    -0.269 NA
ATOM      9  C   UNL     1      -3.521   0.794  23.628  0.00  0.00    +0.073 C 
ATOM     10  C   UNL     1      -3.021   1.448  23.567  0.00  0.00    +0.026 C 
ATOM     11  C   UNL     1      -2.980   1.807  24.309  0.00  0.00    +0.076 C 
ATOM     12  C   UNL     1      -3.454   1.376  24.828  0.00  0.00    +0.080 C 
ENDROOT
BRANCH  11  13
ATOM     13  C   UNL     1      -2.541   2.480  24.498  0.00  0.00    +0.142 A 
ATOM     14  N   UNL     1      -1.734   2.586  24.363  0.00  0.00    -0.210 NA
ATOM     15  C   UNL     1      -1.527   3.336  24.637  0.00  0.00    +0.181 A 
ATOM     16  C   UNL     1      -2.205   3.693  24.942  0.00  0.00    +0.118 A 
ATOM     17  N   UNL     1      -2.832   3.164  24.857  0.00  0.00    -0.228 NA
ATOM     18  C   UNL     1      -2.163   4.454  25.259  0.00  0.00    +0.024 A 
ATOM     19  C   UNL     1      -1.445   4.857  25.270  0.00  0.00    +0.022 A 
ATOM     20  C   UNL     1      -0.767   4.500  24.965  0.00  0.00    +0.101 A 
ATOM     21  N   UNL     1      -0.807   3.740  24.648  0.00  0.00    -0.224 NA
ENDBRANCH  11  13
BRANCH   8   7
ATOM      7  C   UNL     1      -4.302   0.180  24.712  0.00  0.00    +0.099 C 
BRANCH   7   6
ATOM      1  F   UNL     1      -3.291  -2.945  25.037  0.00  0.00    -0.202 F 
ATOM      2  C   UNL     1      -3.544  -2.163  24.956  0.00  0.00    +0.167 A 
ATOM      3  C   UNL     1      -3.949  -1.929  24.277  0.00  0.00    +0.167 A 
ATOM      4  F   UNL     1      -4.103  -2.477  23.678  0.00  0.00    -0.202 F 
ATOM      5  C   UNL     1      -4.202  -1.148  24.195  0.00  0.00    +0.029 A 
ATOM      6  C   UNL     1      -4.049  -0.601  24.794  0.00  0.00    -0.004 A 
ATOM     22  C   UNL     1      -3.643  -0.835  25.473  0.00  0.00    -0.000 A 
ATOM     23  C   UNL     1      -3.391  -1.616  25.554  0.00  0.00    +0.032 A 
ENDBRANCH   7   6
ENDBRANCH   8   7
TORSDOF 3
ENDMDL
MODEL 3
REMARK VINA RESULT:     -11.4      1.747      2.407
REMARK  Name = 
REMARK  3 active torsions:
REMARK  status: ('A' for Active; 'I' for Inactive)
REMARK    1  A    between atoms: C_6  and  C_7
REMARK    2  A    between atoms: C_7  and  N_8
REMARK    3  A    between atoms: C_11  and  C_13
REMARK                            x       y       z     vdW  Elec       q    Type
REMARK                         _______ _______ _______ _____ _____    ______ ____
ROOT
ATOM      8  N   UNL     1      -1.036   1.873  25.286  0.00  0.00    -0.269 NA
ATOM      9  C   UNL     1      -0.631   1.661  24.600  0.00  0.00    +0.073 C 
ATOM     10  C   UNL     1      -1.007   1.001  24.276  0.00  0.00    +0.026 C 
ATOM     11  C   UNL     1      -1.644   0.806  24.764  0.00  0.00    +0.076 C 
ATOM     12  C   UNL     1      -1.662   1.345  25.388  0.00  0.00    +0.080 C 
ENDROOT
BRANCH  11  13
ATOM     13  C   UNL     1      -2.171   0.182  24.647  0.00  0.00    +0.142 A 
ATOM     14  N   UNL     1      -2.031  -0.611  24.827  0.00  0.00    -0.210 NA
ATOM     15  C   UNL     1      -2.703  -1.042  24.622  0.00  0.00    +0.181 A 
ATOM     16  C   UNL     1      -3.259  -0.516  24.314  0.00  0.00    +0.118 A 
ATOM     17  N   UNL     1      -2.930   0.241  24.330  0.00  0.00    -0.228 NA
ATOM     18  C   UNL     1      -3.993  -0.794  24.059  0.00  0.00    +0.024 A 
ATOM     19  C   UNL     1      -4.171  -1.597  24.112  0.00  0.00    +0.022 A 
ATOM     20  C   UNL     1      -3.615  -2.123  24.419  0.00  0.00    +0.101 A 
ATOM     21  N   UNL     1      -2.881  -1.846  24.674  0.00  0.00    -0.224 NA
ENDBRANCH  11  13
BRANCH   8   7
ATOM      7  C   UNL     1      -0.848   2.503  25.784  0.00  0.00    +0.099 C 
BRANCH   7   6
ATOM      1  F   UNL     1      -1.892   5.549  25.061  0.00  0.00    -0.202 F 
ATOM      2  C   UNL     1      -1.631   4.787  25.242  0.00  0.00    +0.167 A 
ATOM      3  C   UNL     1      -0.883   4.540  25.001  0.00  0.00    +0.167 A 
ATOM      4  F   UNL     1      -0.394   5.054  24.578  0.00  0.00    -0.202 F 
ATOM      5  C   UNL     1      -0.621   3.779  25.181  0.00  0.00    +0.029 A 
ATOM      6  C   UNL     1      -1.110   3.265  25.604  0.00  0.00    -0.004 A 
ATOM     22  C   UNL     1      -1.859   3.512  25.845  0.00  0.00    -0.000 A 
ATOM     23  C   UNL     1      -2.119   4.274  25.664  0.00  0.00    +0.032 A 
ENDBRANCH   7   6
ENDBRANCH   8   7
TORSDOF 3
ENDMDL
