MODEL 1
REMARK VINA RESULT:     -13.1      0.000      0.000
REMARK  Name = 
REMARK  4 active torsions:
REMARK  status: ('A' for Active; 'I' for Inactive)
REMARK    1  A    between atoms: C_4  and  C_8
REMARK    2  A    between atoms: C_11  and  C_13
REMARK    3  A    between atoms: N_18  and  C_19
REMARK    4  A    between atoms: C_19  and  C_20
REMARK                            x       y       z     vdW  Elec       q    Type
REMARK                         _______ _______ _______ _____ _____    ______ ____
ROOT
ATOM     13  C   UNL     1      -4.363   2.073  24.964  0.00  0.00    +0.140 C 
ATOM     14  C   UNL     1      -5.112   2.300  25.226  0.00  0.00    +0.060 C 
ATOM     15  C   UNL     1      -5.061   3.074  25.507  0.00  0.00    +0.170 C 
ATOM     16  O   UNL     1      -5.681   3.518  25.821  0.00  0.00    -0.222 OA
ATOM     17  C   UNL     1      -4.280   3.326  25.419  0.00  0.00    +0.106 C 
ATOM     18  N   UNL     1      -3.848   2.707  25.083  0.00  0.00    -0.260 NA
ENDROOT
BRANCH  13  11
ATOM      8  C   UNL     1      -3.892   0.041  24.514  0.00  0.00    +0.203 A 
ATOM      9  N   UNL     1      -3.822   0.389  23.769  0.00  0.00    -0.056 NA
ATOM     10  O   UNL     1      -3.990   1.193  23.847  0.00  0.00    -0.336 OA
ATOM     11  C   UNL     1      -4.163   1.342  24.640  0.00  0.00    +0.251 A 
ATOM     12  N   UNL     1      -4.103   0.629  25.052  0.00  0.00    -0.190 NA
BRANCH   8   4
ATOM      1  C   UNL     1      -4.144  -2.716  23.803  0.00  0.00    +0.031 C 
ATOM      2  C   UNL     1      -3.897  -2.134  24.334  0.00  0.00    -0.022 A 
ATOM      3  C   UNL     1      -4.018  -1.337  24.159  0.00  0.00    -0.001 A 
ATOM      4  C   UNL     1      -3.771  -0.756  24.690  0.00  0.00    +0.039 A 
ATOM      5  C   UNL     1      -3.404  -0.972  25.397  0.00  0.00    +0.003 A 
ATOM      6  C   UNL     1      -3.284  -1.769  25.572  0.00  0.00    -0.000 A 
ATOM      7  C   UNL     1      -3.531  -2.351  25.041  0.00  0.00    -0.004 A 
ENDBRANCH   8   4
ENDBRANCH  13  11
BRANCH  18  19
ATOM     19  C   UNL     1      -3.045   2.721  24.900  0.00  0.00    +0.100 C 
BRANCH  19  20
ATOM     20  C   UNL     1      -2.589   3.381  25.091  0.00  0.00    -0.006 A 
ATOM     21  C   UNL     1      -2.552   4.022  24.573  0.00  0.00    -0.003 A 
ATOM     22  C   UNL     1      -2.096   4.683  24.764  0.00  0.00    -0.000 A 
ATOM     23  C   UNL     1      -1.676   4.701  25.474  0.00  0.00    -0.000 A 
ATOM     24  C   UNL     1      -1.713   4.061  25.992  0.00  0.00    -0.000 A 
ATOM     25  C   UNL     1      -2.169   3.401  25.801  0.00  0.00    -0.003 A 
ENDBRANCH  19  20
ENDBRANCH  18  19
TORSDOF 4
ENDMDL
MODEL 2
REMARK VINA RESULT:     -12.8      2.181      5.463
REMARK  Name = 
REMARK  4 active torsions:
REMARK  status: ('A' for Active; 'I' for Inactive)
REMARK    1  A    between atoms: C_4  and  C_8
REMARK    2  A    between atoms: C_11  and  C_13
REMARK    3  A    between atoms: N_18  and  C_19
REMARK    4  A    between atoms: C_19  and  C_20
REMARK                            x       y       z     vdW  Elec       q    Type
REMARK                         _______ _______ _______ _____ _____    ______ ____
ROOT
ATOM     13  C   UNL     1      -0.860   0.611  24.896  0.00  0.00    +0.140 C 
ATOM     14  C   UNL     1      -0.214   0.330  24.466  0.00  0.00    +0.060 C 
ATOM     15  C   UNL     1      -0.407  -0.416  24.173  0.00  0.00    +0.170 C 
ATOM     16  O   UNL     1       0.079  -0.898  23.712  0.00  0.00    -0.222 OA
ATOM     17  C   UNL     1      -1.174  -0.597  24.421  0.00  0.00    +0.106 C 
ATOM     18  N   UNL     1      -1.453   0.038  24.868  0.00  0.00    -0.260 NA
ENDROOT
BRANCH  13  11
ATOM      8  C   UNL     1      -1.159   2.620  25.552  0.00  0.00    +0.203 A 
ATOM      9  N   UNL     1      -0.789   2.290  26.212  0.00  0.00    -0.056 NA
ATOM     10  O   UNL     1      -0.632   1.497  26.047  0.00  0.00    -0.336 OA
ATOM     11  C   UNL     1      -0.905   1.337  25.284  0.00  0.00    +0.251 A 
ATOM     12  N   UNL     1      -1.230   2.031  24.979  0.00  0.00    -0.190 NA
BRANCH   8   4
ATOM      1  C   UNL     1      -0.678   5.309  24.710  0.00  0.00    +0.031 C 
ATOM      2  C   UNL     1      -1.172   4.745  25.058  0.00  0.00    -0.022 A 
ATOM      3  C   UNL     1      -0.919   3.964  25.131  0.00  0.00    -0.001 A 
ATOM      4  C   UNL     1      -1.412   3.402  25.479  0.00  0.00    +0.039 A 
ATOM      5  C   UNL     1      -2.159   3.620  25.753  0.00  0.00    +0.003 A 
ATOM      6  C   UNL     1      -2.412   4.402  25.679  0.00  0.00    -0.000 A 
ATOM      7  C   UNL     1      -1.918   4.965  25.332  0.00  0.00    -0.004 A 
ENDBRANCH   8   4
ENDBRANCH  13  11
BRANCH  18  19
ATOM     19  C   UNL     1      -2.195   0.090  25.225  0.00  0.00    +0.100 C 
BRANCH  19  20
ATOM     20  C   UNL     1      -2.778  -0.464  25.047  0.00  0.00    -0.006 A 
ATOM     21  C   UNL     1      -2.860  -1.141  25.511  0.00  0.00    -0.003 A 
ATOM     22  C   UNL     1      -3.444  -1.697  25.333  0.00  0.00    -0.000 A 
ATOM     23  C   UNL     1      -3.946  -1.574  24.690  0.00  0.00    -0.000 A 
ATOM     24  C   UNL     1      -3.865  -0.898  24.226  0.00  0.00    -0.000 A 
ATOM     25  C   UNL     1      -3.281  -0.343  24.404  0.00  0.00    -0.003 A 
ENDBRANCH  19  20
ENDBRANCH  18  19
TORSDOF 4
ENDMDL
MODEL 3
REMARK VINA RESULT:     -12.8      0.990      4.694
REMARK  Name = 
REMARK  4 active torsions:
REMARK  status: ('A' for Active; 'I' for Inactive)
REMARK    1  A    between atoms: C_4  and  C_8
REMARK    2  A    between atoms: C_11  and  C_13
REMARK    3  A    between atoms: N_18  and  C_19
REMARK    4  A    between atoms: C_19  and  C_20
REMARK                            x       y       z     vdW  Elec       q    Type
REMARK                         _______ _______ _______ _____ _____    ______ ____
ROOT
ATOM     13  C   UNL     1      -4.186   1.616  24.711  0.00  0.00    +0.140 C 
ATOM     14  C   UNL     1      -4.917   1.890  24.978  0.00  0.00    +0.060 C 
ATOM     15  C   UNL     1      -5.384   1.236  25.162  0.00  0.00    +0.170 C 
ATOM     16  O   UNL     1      -6.157   1.256  25.450  0.00  0.00    -0.222 OA
ATOM     17  C   UNL     1      -4.941   0.556  25.010  0.00  0.00    +0.106 C 
ATOM     18  N   UNL     1      -4.201   0.791  24.730  0.00  0.00    -0.260 NA
ENDROOT
BRANCH  13  11
ATOM      8  C   UNL     1      -2.472   2.868  24.487  0.00  0.00    +0.203 A 
ATOM      9  N   UNL     1      -2.682   2.743  23.698  0.00  0.00    -0.056 NA
ATOM     10  O   UNL     1      -3.350   2.259  23.686  0.00  0.00    -0.336 OA
ATOM     11  C   UNL     1      -3.553   2.084  24.467  0.00  0.00    +0.251 A 
ATOM     12  N   UNL     1      -3.009   2.461  24.961  0.00  0.00    -0.190 NA
BRANCH   8   4
ATOM      1  C   UNL     1      -1.325   5.416  25.085  0.00  0.00    +0.031 C 
ATOM      2  C   UNL     1      -1.262   4.594  25.052  0.00  0.00    -0.022 A 
ATOM      3  C   UNL     1      -1.899   4.141  24.786  0.00  0.00    -0.001 A 
ATOM      4  C   UNL     1      -1.835   3.320  24.753  0.00  0.00    +0.039 A 
ATOM      5  C   UNL     1      -1.135   2.950  24.986  0.00  0.00    +0.003 A 
ATOM      6  C   UNL     1      -0.499   3.402  25.252  0.00  0.00    -0.000 A 
ATOM      7  C   UNL     1      -0.562   4.225  25.285  0.00  0.00    -0.004 A 
ENDBRANCH   8   4
ENDBRANCH  13  11
BRANCH  18  19
ATOM     19  C   UNL     1      -3.584   0.290  24.510  0.00  0.00    +0.100 C 
BRANCH  19  20
ATOM     20  C   UNL     1      -3.673  -0.527  24.577  0.00  0.00    -0.006 A 
ATOM     21  C   UNL     1      -3.432  -0.913  25.264  0.00  0.00    -0.003 A 
ATOM     22  C   UNL     1      -3.521  -1.731  25.332  0.00  0.00    -0.000 A 
ATOM     23  C   UNL     1      -3.850  -2.162  24.710  0.00  0.00    -0.000 A 
ATOM     24  C   UNL     1      -4.090  -1.776  24.022  0.00  0.00    -0.000 A 
ATOM     25  C   UNL     1      -4.002  -0.959  23.955  0.00  0.00    -0.003 A 
ENDBRANCH  19  20
ENDBRANCH  18  19
TORSDOF 4
ENDMDL
MODEL 4
REMARK VINA RESULT:     -12.5      1.802      5.332
REMARK  Name = 
REMARK  4 active torsions:
REMARK  status: ('A' for Active; 'I' for Inactive)
REMARK    1  A    between atoms: C_4  and  C_8
REMARK    2  A    between atoms: C_11  and  C_13
REMARK    3  A    between atoms: N_18  and  C_19
REMARK    4  A    between atoms: C_19  and  C_20
REMARK                            x       y       z     vdW  Elec       q    Type
REMARK                         _______ _______ _______ _____ _____    ______ ____
ROOT
ATOM     13  C   UNL     1      -1.454   0.471  24.381  0.00  0.00    +0.140 C 
ATOM     14  C   UNL     1      -0.667   0.251  24.271  0.00  0.00    +0.060 C 
ATOM     15  C   UNL     1      -0.610  -0.563  24.393  0.00  0.00    +0.170 C 
ATOM     16  O   UNL     1       0.078  -1.015  24.339  0.00  0.00    -0.222 OA
ATOM     17  C   UNL     1      -1.362  -0.846  24.579  0.00  0.00    +0.106 C 
ATOM     18  N   UNL     1      -1.884  -0.207  24.572  0.00  0.00    -0.260 NA
ENDROOT
BRANCH  13  11
ATOM      8  C   UNL     1      -2.088   2.499  24.587  0.00  0.00    +0.203 A 
ATOM      9  N   UNL     1      -2.363   2.323  23.829  0.00  0.00    -0.056 NA
ATOM     10  O   UNL     1      -2.159   1.541  23.660  0.00  0.00    -0.336 OA
ATOM     11  C   UNL     1      -1.758   1.235  24.313  0.00  0.00    +0.251 A 
ATOM     12  N   UNL     1      -1.714   1.827  24.886  0.00  0.00    -0.190 NA
BRANCH   8   4
ATOM      1  C   UNL     1      -1.181   5.163  25.086  0.00  0.00    +0.031 C 
ATOM      2  C   UNL     1      -1.719   4.553  25.227  0.00  0.00    -0.022 A 
ATOM      3  C   UNL     1      -1.635   3.831  24.837  0.00  0.00    -0.001 A 
ATOM      4  C   UNL     1      -2.172   3.221  24.978  0.00  0.00    +0.039 A 
ATOM      5  C   UNL     1      -2.793   3.332  25.509  0.00  0.00    +0.003 A 
ATOM      6  C   UNL     1      -2.877   4.055  25.899  0.00  0.00    -0.000 A 
ATOM      7  C   UNL     1      -2.340   4.665  25.758  0.00  0.00    -0.004 A 
ENDBRANCH   8   4
ENDBRANCH  13  11
BRANCH  18  19
ATOM     19  C   UNL     1      -2.694  -0.240  24.727  0.00  0.00    +0.100 C 
BRANCH  19  20
ATOM     20  C   UNL     1      -3.086  -0.965  24.721  0.00  0.00    -0.006 A 
ATOM     21  C   UNL     1      -3.079  -1.444  25.393  0.00  0.00    -0.003 A 
ATOM     22  C   UNL     1      -3.472  -2.170  25.387  0.00  0.00    -0.000 A 
ATOM     23  C   UNL     1      -3.870  -2.417  24.708  0.00  0.00    -0.000 A 
ATOM     24  C   UNL     1      -3.877  -1.939  24.037  0.00  0.00    -0.000 A 
ATOM     25  C   UNL     1      -3.485  -1.213  24.043  0.00  0.00    -0.003 A 
ENDBRANCH  19  20
ENDBRANCH  18  19
TORSDOF 4
ENDMDL
MODEL 5
REMARK VINA RESULT:     -12.2      2.013      2.822
REMARK  Name = 
REMARK  4 active torsions:
REMARK  status: ('A' for Active; 'I' for Inactive)
REMARK    1  A    between atoms: C_4  and  C_8
REMARK    2  A    between atoms: C_11  and  C_13
REMARK    3  A    between atoms: N_18  and  C_19
REMARK    4  A    between atoms: C_19  and  C_20
REMARK                            x       y       z     vdW  Elec       q    Type
REMARK                         _______ _______ _______ _____ _____    ______ ____
ROOT
ATOM     13  C   UNL     1      -0.948   1.002  24.886  0.00  0.00    +0.140 C 
ATOM     14  C   UNL     1      -0.208   0.924  24.528  0.00  0.00    +0.060 C 
ATOM     15  C   UNL     1       0.122   1.676  24.458  0.00  0.00    +0.170 C 
ATOM     16  O   UNL     1       0.858   1.855  24.131  0.00  0.00    -0.222 OA
ATOM     17  C   UNL     1      -0.413   2.220  24.773  0.00  0.00    +0.106 C 
ATOM     18  N   UNL     1      -1.075   1.803  25.037  0.00  0.00    -0.260 NA
ENDROOT
BRANCH  13  11
ATOM      8  C   UNL     1      -2.427  -0.536  24.949  0.00  0.00    +0.203 A 
ATOM      9  N   UNL     1      -2.115  -0.584  25.712  0.00  0.00    -0.056 NA
ATOM     10  O   UNL     1      -1.522  -0.013  25.781  0.00  0.00    -0.336 OA
ATOM     11  C   UNL     1      -1.469   0.387  25.061  0.00  0.00    +0.251 A 
ATOM     12  N   UNL     1      -2.028   0.063  24.547  0.00  0.00    -0.190 NA
BRANCH   8   4
ATOM      1  C   UNL     1      -3.517  -3.120  24.400  0.00  0.00    +0.031 C 
ATOM      2  C   UNL     1      -3.577  -2.297  24.368  0.00  0.00    -0.022 A 
ATOM      3  C   UNL     1      -2.972  -1.828  24.675  0.00  0.00    -0.001 A 
ATOM      4  C   UNL     1      -3.032  -1.006  24.643  0.00  0.00    +0.039 A 
ATOM      5  C   UNL     1      -3.696  -0.653  24.304  0.00  0.00    +0.003 A 
ATOM      6  C   UNL     1      -4.301  -1.123  23.998  0.00  0.00    -0.000 A 
ATOM      7  C   UNL     1      -4.242  -1.946  24.030  0.00  0.00    -0.004 A 
ENDBRANCH   8   4
ENDBRANCH  13  11
BRANCH  18  19
ATOM     19  C   UNL     1      -1.744   2.130  25.391  0.00  0.00    +0.100 C 
BRANCH  19  20
ATOM     20  C   UNL     1      -1.895   2.937  25.321  0.00  0.00    -0.006 A 
ATOM     21  C   UNL     1      -1.545   3.469  25.844  0.00  0.00    -0.003 A 
ATOM     22  C   UNL     1      -1.696   4.278  25.775  0.00  0.00    -0.000 A 
ATOM     23  C   UNL     1      -2.198   4.553  25.180  0.00  0.00    -0.000 A 
ATOM     24  C   UNL     1      -2.548   4.021  24.657  0.00  0.00    -0.000 A 
ATOM     25  C   UNL     1      -2.397   3.214  24.726  0.00  0.00    -0.003 A 
ENDBRANCH  19  20
ENDBRANCH  18  19
TORSDOF 4
ENDMDL
