MODEL 1
REMARK VINA RESULT:     -10.0      0.000      0.000
REMARK  Name = 
REMARK  5 active torsions:
REMARK  status: ('A' for Active; 'I' for Inactive)
REMARK    1  A    between atoms: N_3  and  C_4
REMARK    2  A    between atoms: C_4  and  C_5
REMARK    3  A    between atoms: N_11  and  C_12
REMARK    4  A    between atoms: C_16  and  N_20
REMARK    5  A    between atoms: C_23  and  C_27
REMARK                            x       y       z     vdW  Elec       q    Type
REMARK                         _______ _______ _______ _____ _____    ______ ____
ROOT
ATOM     12  C   UNL     1       0.589   1.194  23.893  0.00  0.00    +0.156 C 
ATOM     13  C   UNL     1       0.125   0.655  23.475  0.00  0.00    +0.166 C 
ATOM     14  O   UNL     1      -0.647   0.710  23.760  0.00  0.00    -0.350 OA
ATOM     15  C   UNL     1      -0.661   1.283  24.352  0.00  0.00    +0.166 C 
ATOM     16  C   UNL     1      -1.146   1.672  24.895  0.00  0.00    +0.154 C 
ATOM     17  C   UNL     1      -0.682   2.210  25.313  0.00  0.00    +0.166 C 
ATOM     18  O   UNL     1       0.090   2.155  25.029  0.00  0.00    -0.350 OA
ATOM     19  C   UNL     1       0.104   1.582  24.435  0.00  0.00    +0.166 C 
ENDROOT
BRANCH  16  20
ATOM     20  N   UNL     1      -1.954   1.543  25.001  0.00  0.00    -0.200 NA
ATOM     21  C   UNL     1      -2.483   2.174  24.949  0.00  0.00    +0.237 A 
ATOM     22  N   UNL     1      -3.290   2.047  25.055  0.00  0.00    -0.212 NA
ATOM     23  C   UNL     1      -3.819   2.678  25.003  0.00  0.00    +0.092 A 
ATOM     24  C   UNL     1      -3.539   3.438  24.845  0.00  0.00    +0.040 A 
ATOM     25  C   UNL     1      -2.731   3.566  24.739  0.00  0.00    +0.103 A 
ATOM     26  N   UNL     1      -2.203   2.934  24.791  0.00  0.00    -0.211 NA
BRANCH  23  27
ATOM     27  C   UNL     1      -4.627   2.550  25.108  0.00  0.00    +0.047 A 
ATOM     28  C   UNL     1      -5.104   2.056  24.650  0.00  0.00    +0.009 A 
ATOM     29  C   UNL     1      -5.871   2.094  24.949  0.00  0.00    +0.008 A 
ATOM     30  C   UNL     1      -5.869   2.611  25.591  0.00  0.00    +0.035 A 
ATOM     31  S   UNL     1      -5.100   2.893  25.690  0.00  0.00    -0.085 S 
ENDBRANCH  23  27
ENDBRANCH  16  20
BRANCH  12  11
ATOM      1  O   UNL     1       1.507   0.071  23.106  0.00  0.00    -0.249 OA
ATOM      2  C   UNL     1       1.857   0.761  23.394  0.00  0.00    +0.340 C 
ATOM      3  N   UNL     1       2.664   0.889  23.288  0.00  0.00    -0.182 NA
ATOM     11  N   UNL     1       1.398   1.323  23.788  0.00  0.00    -0.184 NA
BRANCH   3   4
ATOM      4  C   UNL     1       3.123   0.328  22.894  0.00  0.00    +0.143 C 
BRANCH   4   5
ATOM      5  C   UNL     1       3.909   0.209  23.114  0.00  0.00    -0.001 A 
ATOM      6  C   UNL     1       4.149  -0.524  23.405  0.00  0.00    -0.003 A 
ATOM      7  C   UNL     1       4.935  -0.644  23.626  0.00  0.00    -0.000 A 
ATOM      8  C   UNL     1       5.482  -0.030  23.556  0.00  0.00    -0.000 A 
ATOM      9  C   UNL     1       5.241   0.705  23.265  0.00  0.00    -0.000 A 
ATOM     10  C   UNL     1       4.455   0.824  23.044  0.00  0.00    -0.003 A 
ENDBRANCH   4   5
ENDBRANCH   3   4
ENDBRANCH  12  11
TORSDOF 5
ENDMDL
MODEL 2
REMARK VINA RESULT:      -8.8      2.014      7.341
REMARK  Name = 
REMARK  5 active torsions:
REMARK  status: ('A' for Active; 'I' for Inactive)
REMARK    1  A    between atoms: N_3  and  C_4
REMARK    2  A    between atoms: C_4  and  C_5
REMARK    3  A    between atoms: N_11  and  C_12
REMARK    4  A    between atoms: C_16  and  N_20
REMARK    5  A    between atoms: C_23  and  C_27
REMARK                            x       y       z     vdW  Elec       q    Type
REMARK                         _______ _______ _______ _____ _____    ______ ____
ROOT
ATOM     12  C   UNL     1      -1.675   1.983  23.976  0.00  0.00    +0.156 C 
ATOM     13  C   UNL     1      -1.248   2.688  23.999  0.00  0.00    +0.166 C 
ATOM     14  O   UNL     1      -0.445   2.498  24.008  0.00  0.00    -0.350 OA
ATOM     15  C   UNL     1      -0.376   1.677  23.990  0.00  0.00    +0.166 C 
ATOM     16  C   UNL     1       0.162   1.052  23.984  0.00  0.00    +0.154 C 
ATOM     17  C   UNL     1      -0.265   0.347  23.961  0.00  0.00    +0.166 C 
ATOM     18  O   UNL     1      -1.068   0.536  23.952  0.00  0.00    -0.350 OA
ATOM     19  C   UNL     1      -1.136   1.358  23.970  0.00  0.00    +0.166 C 
ENDROOT
BRANCH  16  20
ATOM     20  N   UNL     1       0.984   1.120  23.999  0.00  0.00    -0.200 NA
ATOM     21  C   UNL     1       1.443   0.712  23.448  0.00  0.00    +0.237 A 
ATOM     22  N   UNL     1       2.264   0.780  23.463  0.00  0.00    -0.212 NA
ATOM     23  C   UNL     1       2.723   0.371  22.912  0.00  0.00    +0.092 A 
ATOM     24  C   UNL     1       2.359  -0.105  22.345  0.00  0.00    +0.040 A 
ATOM     25  C   UNL     1       1.537  -0.174  22.330  0.00  0.00    +0.103 A 
ATOM     26  N   UNL     1       1.079   0.235  22.882  0.00  0.00    -0.211 NA
BRANCH  23  27
ATOM     27  C   UNL     1       3.544   0.440  22.927  0.00  0.00    +0.047 A 
ATOM     28  C   UNL     1       3.982   1.092  22.673  0.00  0.00    +0.009 A 
ATOM     29  C   UNL     1       4.781   0.923  22.787  0.00  0.00    +0.008 A 
ATOM     30  C   UNL     1       4.838   0.167  23.111  0.00  0.00    +0.035 A 
ATOM     31  S   UNL     1       4.074  -0.132  23.197  0.00  0.00    -0.085 S 
ENDBRANCH  23  27
ENDBRANCH  16  20
BRANCH  12  11
ATOM      1  O   UNL     1      -2.600   2.929  24.961  0.00  0.00    -0.249 OA
ATOM      2  C   UNL     1      -2.960   2.388  24.453  0.00  0.00    +0.340 C 
ATOM      3  N   UNL     1      -3.782   2.319  24.438  0.00  0.00    -0.182 NA
ATOM     11  N   UNL     1      -2.497   1.914  23.961  0.00  0.00    -0.184 NA
BRANCH   3   4
ATOM      4  C   UNL     1      -4.244   2.793  24.931  0.00  0.00    +0.143 C 
BRANCH   4   5
ATOM      5  C   UNL     1      -4.990   2.534  25.171  0.00  0.00    -0.001 A 
ATOM      6  C   UNL     1      -5.301   2.786  25.892  0.00  0.00    -0.003 A 
ATOM      7  C   UNL     1      -6.048   2.528  26.132  0.00  0.00    -0.000 A 
ATOM      8  C   UNL     1      -6.482   2.017  25.651  0.00  0.00    -0.000 A 
ATOM      9  C   UNL     1      -6.170   1.766  24.929  0.00  0.00    -0.000 A 
ATOM     10  C   UNL     1      -5.424   2.024  24.689  0.00  0.00    -0.003 A 
ENDBRANCH   4   5
ENDBRANCH   3   4
ENDBRANCH  12  11
TORSDOF 5
ENDMDL
MODEL 3
REMARK VINA RESULT:      -6.8     16.156     17.506
REMARK  Name = 
REMARK  5 active torsions:
REMARK  status: ('A' for Active; 'I' for Inactive)
REMARK    1  A    between atoms: N_3  and  C_4
REMARK    2  A    between atoms: C_4  and  C_5
REMARK    3  A    between atoms: N_11  and  C_12
REMARK    4  A    between atoms: C_16  and  N_20
REMARK    5  A    between atoms: C_23  and  C_27
REMARK                            x       y       z     vdW  Elec       q    Type
REMARK                         _______ _______ _______ _____ _____    ______ ____
ROOT
ATOM     12  C   UNL     1      -5.799 -10.589  14.901  0.00  0.00    +0.156 C 
ATOM     13  C   UNL     1      -6.555 -10.523  14.578  0.00  0.00    +0.166 C 
ATOM     14  O   UNL     1      -6.476 -10.406  13.766  0.00  0.00    -0.350 OA
ATOM     15  C   UNL     1      -5.672 -10.400  13.585  0.00  0.00    +0.166 C 
ATOM     16  C   UNL     1      -5.125 -10.325  12.973  0.00  0.00    +0.154 C 
ATOM     17  C   UNL     1      -4.368 -10.391  13.295  0.00  0.00    +0.166 C 
ATOM     18  O   UNL     1      -4.448 -10.508  14.107  0.00  0.00    -0.350 OA
ATOM     19  C   UNL     1      -5.253 -10.513  14.287  0.00  0.00    +0.166 C 
ENDROOT
BRANCH  16  20
ATOM     20  N   UNL     1      -5.303 -10.204  12.176  0.00  0.00    -0.200 NA
ATOM     21  C   UNL     1      -4.696 -10.156  11.619  0.00  0.00    +0.237 A 
ATOM     22  N   UNL     1      -4.874 -10.036  10.823  0.00  0.00    -0.212 NA
ATOM     23  C   UNL     1      -4.267  -9.988  10.267  0.00  0.00    +0.092 A 
ATOM     24  C   UNL     1      -3.481 -10.060  10.507  0.00  0.00    +0.040 A 
ATOM     25  C   UNL     1      -3.303 -10.181  11.303  0.00  0.00    +0.103 A 
ATOM     26  N   UNL     1      -3.910 -10.229  11.859  0.00  0.00    -0.211 NA
BRANCH  23  27
ATOM     27  C   UNL     1      -4.446  -9.867   9.471  0.00  0.00    +0.047 A 
ATOM     28  C   UNL     1      -4.542 -10.456   8.901  0.00  0.00    +0.009 A 
ATOM     29  C   UNL     1      -4.715 -10.090   8.182  0.00  0.00    +0.008 A 
ATOM     30  C   UNL     1      -4.725  -9.275   8.308  0.00  0.00    +0.035 A 
ATOM     31  S   UNL     1      -4.558  -9.138   9.104  0.00  0.00    -0.085 S 
ENDBRANCH  23  27
ENDBRANCH  16  20
BRANCH  12  11
ATOM      1  O   UNL     1      -6.776  -9.957  16.070  0.00  0.00    -0.249 OA
ATOM      2  C   UNL     1      -6.109 -10.393  16.282  0.00  0.00    +0.340 C 
ATOM      3  N   UNL     1      -5.930 -10.514  17.078  0.00  0.00    -0.182 NA
ATOM     11  N   UNL     1      -5.620 -10.709  15.697  0.00  0.00    -0.184 NA
BRANCH   3   4
ATOM      4  C   UNL     1      -6.419 -10.198  17.663  0.00  0.00    +0.143 C 
BRANCH   4   5
ATOM      5  C   UNL     1      -6.292 -10.390  18.455  0.00  0.00    -0.001 A 
ATOM      6  C   UNL     1      -6.931 -10.441  18.974  0.00  0.00    -0.003 A 
ATOM      7  C   UNL     1      -6.804 -10.633  19.767  0.00  0.00    -0.000 A 
ATOM      8  C   UNL     1      -6.038 -10.774  20.040  0.00  0.00    -0.000 A 
ATOM      9  C   UNL     1      -5.399 -10.722  19.520  0.00  0.00    -0.000 A 
ATOM     10  C   UNL     1      -5.526 -10.530  18.729  0.00  0.00    -0.003 A 
ENDBRANCH   4   5
ENDBRANCH   3   4
ENDBRANCH  12  11
TORSDOF 5
ENDMDL
MODEL 4
REMARK VINA RESULT:      -6.7     15.954     17.745
REMARK  Name = 
REMARK  5 active torsions:
REMARK  status: ('A' for Active; 'I' for Inactive)
REMARK    1  A    between atoms: N_3  and  C_4
REMARK    2  A    between atoms: C_4  and  C_5
REMARK    3  A    between atoms: N_11  and  C_12
REMARK    4  A    between atoms: C_16  and  N_20
REMARK    5  A    between atoms: C_23  and  C_27
REMARK                            x       y       z     vdW  Elec       q    Type
REMARK                         _______ _______ _______ _____ _____    ______ ____
ROOT
ATOM     12  C   UNL     1      -7.176 -10.253  15.181  0.00  0.00    +0.156 C 
ATOM     13  C   UNL     1      -6.432 -10.035  15.463  0.00  0.00    +0.166 C 
ATOM     14  O   UNL     1      -5.909 -10.033  14.826  0.00  0.00    -0.350 OA
ATOM     15  C   UNL     1      -6.328 -10.251  14.150  0.00  0.00    +0.166 C 
ATOM     16  C   UNL     1      -6.266 -10.385  13.339  0.00  0.00    +0.154 C 
ATOM     17  C   UNL     1      -7.009 -10.604  13.057  0.00  0.00    +0.166 C 
ATOM     18  O   UNL     1      -7.532 -10.605  13.694  0.00  0.00    -0.350 OA
ATOM     19  C   UNL     1      -7.112 -10.387  14.370  0.00  0.00    +0.166 C 
ENDROOT
BRANCH  16  20
ATOM     20  N   UNL     1      -5.578 -10.312  12.888  0.00  0.00    -0.200 NA
ATOM     21  C   UNL     1      -5.575  -9.838  12.212  0.00  0.00    +0.237 A 
ATOM     22  N   UNL     1      -4.889  -9.766  11.762  0.00  0.00    -0.212 NA
ATOM     23  C   UNL     1      -4.886  -9.292  11.086  0.00  0.00    +0.092 A 
ATOM     24  C   UNL     1      -5.571  -8.890  10.862  0.00  0.00    +0.040 A 
ATOM     25  C   UNL     1      -6.259  -8.963  11.313  0.00  0.00    +0.103 A 
ATOM     26  N   UNL     1      -6.260  -9.437  11.988  0.00  0.00    -0.211 NA
BRANCH  23  27
ATOM     27  C   UNL     1      -4.200  -9.219  10.636  0.00  0.00    +0.047 A 
ATOM     28  C   UNL     1      -3.431  -9.373  10.894  0.00  0.00    +0.009 A 
ATOM     29  C   UNL     1      -2.917  -9.229  10.265  0.00  0.00    +0.008 A 
ATOM     30  C   UNL     1      -3.367  -8.986   9.619  0.00  0.00    +0.035 A 
ATOM     31  S   UNL     1      -4.160  -8.980   9.848  0.00  0.00    -0.085 S 
ENDBRANCH  23  27
ENDBRANCH  16  20
BRANCH  12  11
ATOM      1  O   UNL     1      -7.357  -9.362  16.558  0.00  0.00    -0.249 OA
ATOM      2  C   UNL     1      -7.954  -9.881  16.321  0.00  0.00    +0.340 C 
ATOM      3  N   UNL     1      -8.641  -9.953  16.772  0.00  0.00    -0.182 NA
ATOM     11  N   UNL     1      -7.863 -10.326  15.632  0.00  0.00    -0.184 NA
BRANCH   3   4
ATOM      4  C   UNL     1      -8.732  -9.507  17.460  0.00  0.00    +0.143 C 
BRANCH   4   5
ATOM      5  C   UNL     1      -9.394  -9.618  17.939  0.00  0.00    -0.001 A 
ATOM      6  C   UNL     1     -10.056  -9.136  17.844  0.00  0.00    -0.003 A 
ATOM      7  C   UNL     1     -10.719  -9.246  18.324  0.00  0.00    -0.000 A 
ATOM      8  C   UNL     1     -10.720  -9.839  18.898  0.00  0.00    -0.000 A 
ATOM      9  C   UNL     1     -10.056 -10.322  18.992  0.00  0.00    -0.000 A 
ATOM     10  C   UNL     1      -9.394 -10.211  18.513  0.00  0.00    -0.003 A 
ENDBRANCH   4   5
ENDBRANCH   3   4
ENDBRANCH  12  11
TORSDOF 5
ENDMDL
MODEL 5
REMARK VINA RESULT:      -6.3     16.586     17.632
REMARK  Name = 
REMARK  5 active torsions:
REMARK  status: ('A' for Active; 'I' for Inactive)
REMARK    1  A    between atoms: N_3  and  C_4
REMARK    2  A    between atoms: C_4  and  C_5
REMARK    3  A    between atoms: N_11  and  C_12
REMARK    4  A    between atoms: C_16  and  N_20
REMARK    5  A    between atoms: C_23  and  C_27
REMARK                            x       y       z     vdW  Elec       q    Type
REMARK                         _______ _______ _______ _____ _____    ______ ____
ROOT
ATOM     12  C   UNL     1      -7.264 -10.149  14.509  0.00  0.00    +0.156 C 
ATOM     13  C   UNL     1      -8.024  -9.831  14.484  0.00  0.00    +0.166 C 
ATOM     14  O   UNL     1      -8.200  -9.655  13.697  0.00  0.00    -0.350 OA
ATOM     15  C   UNL     1      -7.550  -9.865  13.237  0.00  0.00    +0.166 C 
ATOM     16  C   UNL     1      -7.255  -9.886  12.466  0.00  0.00    +0.154 C 
ATOM     17  C   UNL     1      -6.495 -10.205  12.492  0.00  0.00    +0.166 C 
ATOM     18  O   UNL     1      -6.319 -10.380  13.278  0.00  0.00    -0.350 OA
ATOM     19  C   UNL     1      -6.971 -10.170  13.739  0.00  0.00    +0.166 C 
ENDROOT
BRANCH  16  20
ATOM     20  N   UNL     1      -7.653  -9.633  11.789  0.00  0.00    -0.200 NA
ATOM     21  C   UNL     1      -7.233  -9.288  11.168  0.00  0.00    +0.237 A 
ATOM     22  N   UNL     1      -7.630  -9.035  10.491  0.00  0.00    -0.212 NA
ATOM     23  C   UNL     1      -7.209  -8.689   9.871  0.00  0.00    +0.092 A 
ATOM     24  C   UNL     1      -6.392  -8.597   9.928  0.00  0.00    +0.040 A 
ATOM     25  C   UNL     1      -5.994  -8.849  10.606  0.00  0.00    +0.103 A 
ATOM     26  N   UNL     1      -6.415  -9.195  11.226  0.00  0.00    -0.211 NA
BRANCH  23  27
ATOM     27  C   UNL     1      -7.606  -8.437   9.194  0.00  0.00    +0.047 A 
ATOM     28  C   UNL     1      -8.241  -8.821   8.831  0.00  0.00    +0.009 A 
ATOM     29  C   UNL     1      -8.465  -8.377   8.173  0.00  0.00    +0.008 A 
ATOM     30  C   UNL     1      -7.970  -7.719   8.129  0.00  0.00    +0.035 A 
ATOM     31  S   UNL     1      -7.440  -7.756   8.760  0.00  0.00    -0.085 S 
ENDBRANCH  23  27
ENDBRANCH  16  20
BRANCH  12  11
ATOM      1  O   UNL     1      -7.636  -9.493  15.977  0.00  0.00    -0.249 OA
ATOM      2  C   UNL     1      -7.052 -10.074  15.921  0.00  0.00    +0.340 C 
ATOM      3  N   UNL     1      -6.655 -10.326  16.598  0.00  0.00    -0.182 NA
ATOM     11  N   UNL     1      -6.866 -10.402  15.187  0.00  0.00    -0.184 NA
BRANCH   3   4
ATOM      4  C   UNL     1      -6.841  -9.999  17.332  0.00  0.00    +0.143 C 
BRANCH   4   5
ATOM      5  C   UNL     1      -6.452 -10.259  18.011  0.00  0.00    -0.001 A 
ATOM      6  C   UNL     1      -6.874 -10.367  18.712  0.00  0.00    -0.003 A 
ATOM      7  C   UNL     1      -6.485 -10.628  19.391  0.00  0.00    -0.000 A 
ATOM      8  C   UNL     1      -5.674 -10.781  19.370  0.00  0.00    -0.000 A 
ATOM      9  C   UNL     1      -5.253 -10.673  18.668  0.00  0.00    -0.000 A 
ATOM     10  C   UNL     1      -5.642 -10.413  17.989  0.00  0.00    -0.003 A 
ENDBRANCH   4   5
ENDBRANCH   3   4
ENDBRANCH  12  11
TORSDOF 5
ENDMDL
MODEL 6
REMARK VINA RESULT:      -6.2     16.287     16.898
REMARK  Name = 
REMARK  5 active torsions:
REMARK  status: ('A' for Active; 'I' for Inactive)
REMARK    1  A    between atoms: N_3  and  C_4
REMARK    2  A    between atoms: C_4  and  C_5
REMARK    3  A    between atoms: N_11  and  C_12
REMARK    4  A    between atoms: C_16  and  N_20
REMARK    5  A    between atoms: C_23  and  C_27
REMARK                            x       y       z     vdW  Elec       q    Type
REMARK                         _______ _______ _______ _____ _____    ______ ____
ROOT
ATOM     12  C   UNL     1      -6.670  -9.711  13.426  0.00  0.00    +0.156 C 
ATOM     13  C   UNL     1      -6.236 -10.071  14.028  0.00  0.00    +0.166 C 
ATOM     14  O   UNL     1      -6.756 -10.255  14.641  0.00  0.00    -0.350 OA
ATOM     15  C   UNL     1      -7.510 -10.009  14.419  0.00  0.00    +0.166 C 
ATOM     16  C   UNL     1      -8.299  -9.971  14.660  0.00  0.00    +0.154 C 
ATOM     17  C   UNL     1      -8.733  -9.611  14.058  0.00  0.00    +0.166 C 
ATOM     18  O   UNL     1      -8.213  -9.427  13.444  0.00  0.00    -0.350 OA
ATOM     19  C   UNL     1      -7.458  -9.673  13.667  0.00  0.00    +0.166 C 
ENDROOT
BRANCH  16  20
ATOM     20  N   UNL     1      -8.600 -10.244  15.378  0.00  0.00    -0.200 NA
ATOM     21  C   UNL     1      -9.086  -9.758  15.834  0.00  0.00    +0.237 A 
ATOM     22  N   UNL     1      -9.387 -10.031  16.551  0.00  0.00    -0.212 NA
ATOM     23  C   UNL     1      -9.873  -9.544  17.007  0.00  0.00    +0.092 A 
ATOM     24  C   UNL     1     -10.058  -8.784  16.745  0.00  0.00    +0.040 A 
ATOM     25  C   UNL     1      -9.757  -8.511  16.027  0.00  0.00    +0.103 A 
ATOM     26  N   UNL     1      -9.271  -8.998  15.572  0.00  0.00    -0.211 NA
BRANCH  23  27
ATOM     27  C   UNL     1     -10.174  -9.817  17.725  0.00  0.00    +0.047 A 
ATOM     28  C   UNL     1     -10.217 -10.606  17.964  0.00  0.00    +0.009 A 
ATOM     29  C   UNL     1     -10.554 -10.626  18.716  0.00  0.00    +0.008 A 
ATOM     30  C   UNL     1     -10.719  -9.850  18.942  0.00  0.00    +0.035 A 
ATOM     31  S   UNL     1     -10.484  -9.350  18.329  0.00  0.00    -0.085 S 
ENDBRANCH  23  27
ENDBRANCH  16  20
BRANCH  12  11
ATOM      1  O   UNL     1      -5.380 -10.469  12.730  0.00  0.00    -0.249 OA
ATOM      2  C   UNL     1      -5.724  -9.816  12.360  0.00  0.00    +0.340 C 
ATOM      3  N   UNL     1      -5.423  -9.543  11.642  0.00  0.00    -0.182 NA
ATOM     11  N   UNL     1      -6.369  -9.438  12.708  0.00  0.00    -0.184 NA
BRANCH   3   4
ATOM      4  C   UNL     1      -4.778  -9.922  11.294  0.00  0.00    +0.143 C 
BRANCH   4   5
ATOM      5  C   UNL     1      -4.439  -9.614  10.608  0.00  0.00    -0.001 A 
ATOM      6  C   UNL     1      -4.861  -9.624   9.900  0.00  0.00    -0.003 A 
ATOM      7  C   UNL     1      -4.522  -9.315   9.213  0.00  0.00    -0.000 A 
ATOM      8  C   UNL     1      -3.761  -8.997   9.235  0.00  0.00    -0.000 A 
ATOM      9  C   UNL     1      -3.339  -8.987   9.945  0.00  0.00    -0.000 A 
ATOM     10  C   UNL     1      -3.678  -9.295  10.631  0.00  0.00    -0.003 A 
ENDBRANCH   4   5
ENDBRANCH   3   4
ENDBRANCH  12  11
TORSDOF 5
ENDMDL
