REMARK  Name = 
REMARK  6 active torsions:
REMARK  status: ('A' for Active; 'I' for Inactive)
REMARK    1  A    between atoms: C_2  and  C_4
REMARK    2  A    between atoms: C_7  and  C_8
REMARK    3  A    between atoms: C_8  and  N_9
REMARK    4  A    between atoms: C_14  and  C_15
REMARK    5  A    between atoms: N_17  and  C_18
REMARK    6  A    between atoms: C_18  and  C_19
REMARK                            x       y       z     vdW  Elec       q    Type
REMARK                         _______ _______ _______ _____ _____    ______ ____
ROOT
ATOM      9  N   UNL     1       2.070   1.110   0.000  0.00  0.00    -0.257 NA
ATOM     10  C   UNL     1       1.356   0.698   0.000  0.00  0.00    +0.121 C 
ATOM     11  C   UNL     1       0.641   1.110   0.000  0.00  0.00    +0.090 A 
ATOM     12  C   UNL     1       0.641   1.935   0.000  0.00  0.00    +0.077 A 
ATOM     13  C   UNL     1       1.356   2.348   0.000  0.00  0.00    +0.072 C 
ATOM     14  C   UNL     1       2.070   1.935   0.000  0.00  0.00    +0.143 C 
ATOM     24  N   UNL     1      -0.143   2.190   0.000  0.00  0.00    -0.227 NA
ATOM     25  C   UNL     1      -0.628   1.523   0.000  0.00  0.00    +0.198 A 
ATOM     26  N   UNL     1      -0.143   0.856   0.000  0.00  0.00    -0.226 NA
ENDROOT
BRANCH  14  15
ATOM     15  C   UNL     1       2.784   2.348   0.000  0.00  0.00    +0.257 C 
ATOM     16  O   UNL     1       2.784   3.173   0.000  0.00  0.00    -0.272 OA
ATOM     17  N   UNL     1       3.499   1.935   0.000  0.00  0.00    -0.196 NA
BRANCH  17  18
ATOM     18  C   UNL     1       4.213   2.348   0.000  0.00  0.00    +0.179 C 
BRANCH  18  19
ATOM     19  C   UNL     1       4.213   3.173   0.000  0.00  0.00    +0.145 A 
ATOM     20  C   UNL     1       3.546   3.658   0.000  0.00  0.00    +0.038 A 
ATOM     21  C   UNL     1       3.801   4.442   0.000  0.00  0.00    +0.043 A 
ATOM     22  C   UNL     1       4.626   4.442   0.000  0.00  0.00    +0.179 A 
ATOM     23  O   UNL     1       4.881   3.658   0.000  0.00  0.00    -0.453 OA
ENDBRANCH  18  19
ENDBRANCH  17  18
ENDBRANCH  14  15
BRANCH   9   8
ATOM      8  C   UNL     1       2.784   0.698   0.000  0.00  0.00    +0.100 C 
BRANCH   8   7
ATOM      4  C   UNL     1       2.784  -1.777   0.000  0.00  0.00    +0.080 A 
ATOM      5  C   UNL     1       2.070  -1.365   0.000  0.00  0.00    +0.006 A 
ATOM      6  C   UNL     1       2.070  -0.540   0.000  0.00  0.00    -0.003 A 
ATOM      7  C   UNL     1       2.784  -0.127   0.000  0.00  0.00    -0.006 A 
ATOM     27  C   UNL     1       3.499  -0.540   0.000  0.00  0.00    -0.003 A 
ATOM     28  C   UNL     1       3.499  -1.365   0.000  0.00  0.00    +0.006 A 
BRANCH   4   2
ATOM      1  O   UNL     1       3.499  -3.015   0.000  0.00  0.00    -0.241 OA
ATOM      2  C   UNL     1       2.784  -2.602   0.000  0.00  0.00    +0.388 C 
ATOM      3  O   UNL     1       2.070  -3.015   0.000  0.00  0.00    -0.241 OA
ENDBRANCH   4   2
ENDBRANCH   8   7
ENDBRANCH   9   8
TORSDOF 6
