REMARK  Name = 
REMARK  6 active torsions:
REMARK  status: ('A' for Active; 'I' for Inactive)
REMARK    1  A    between atoms: N_4  and  C_5
REMARK    2  A    between atoms: C_5  and  C_6
REMARK    3  A    between atoms: C_8  and  C_9
REMARK    4  A    between atoms: C_9  and  C_10
REMARK    5  A    between atoms: N_12  and  C_13
REMARK    6  A    between atoms: C_13  and  C_14
REMARK                            x       y       z     vdW  Elec       q    Type
REMARK                         _______ _______ _______ _____ _____    ______ ____
ROOT
ATOM      6  C   UNL     1      -0.893  -1.483   0.000  0.00  0.00    +0.170 C 
ATOM      7  O   UNL     1      -0.086  -1.655   0.000  0.00  0.00    -0.351 OA
ATOM      8  C   UNL     1       0.000  -2.475   0.000  0.00  0.00    +0.157 C 
ATOM     21  C   UNL     1      -0.754  -2.811   0.000  0.00  0.00    +0.212 C 
ATOM     22  O   UNL     1      -0.925  -3.618   0.000  0.00  0.00    -0.218 OA
ATOM     23  C   UNL     1      -1.306  -2.197   0.000  0.00  0.00    +0.213 C 
ATOM     24  O   UNL     1      -2.126  -2.284   0.000  0.00  0.00    -0.218 OA
ENDROOT
BRANCH   6   5
ATOM      5  C   UNL     1      -1.229  -0.729   0.000  0.00  0.00    +0.147 C 
BRANCH   5   4
ATOM      1  C   UNL     1      -3.205   0.197   0.000  0.00  0.00    +0.096 C 
ATOM      2  C   UNL     1      -2.385   0.111   0.000  0.00  0.00    +0.242 C 
ATOM      3  O   UNL     1      -1.900   0.778   0.000  0.00  0.00    -0.273 OA
ATOM      4  N   UNL     1      -2.049  -0.643   0.000  0.00  0.00    -0.203 NA
ENDBRANCH   5   4
ENDBRANCH   6   5
BRANCH   8   9
ATOM      9  C   UNL     1       0.715  -2.888   0.000  0.00  0.00    +0.119 C 
BRANCH   9  10
ATOM     10  C   UNL     1       1.429  -2.475   0.000  0.00  0.00    +0.244 C 
ATOM     11  O   UNL     1       1.429  -1.650   0.000  0.00  0.00    -0.273 OA
ATOM     12  N   UNL     1       2.143  -2.888   0.000  0.00  0.00    -0.200 NA
BRANCH  12  13
ATOM     13  C   UNL     1       2.858  -2.475   0.000  0.00  0.00    +0.141 C 
BRANCH  13  14
ATOM     14  C   UNL     1       3.572  -2.888   0.000  0.00  0.00    -0.000 A 
ATOM     15  C   UNL     1       4.287  -2.475   0.000  0.00  0.00    -0.000 A 
ATOM     16  C   UNL     1       5.001  -2.888   0.000  0.00  0.00    +0.029 A 
ATOM     17  C   UNL     1       5.001  -3.712   0.000  0.00  0.00    +0.140 A 
ATOM     18  F   UNL     1       5.716  -4.125   0.000  0.00  0.00    -0.204 F 
ATOM     19  C   UNL     1       4.287  -4.125   0.000  0.00  0.00    +0.029 A 
ATOM     20  C   UNL     1       3.572  -3.712   0.000  0.00  0.00    -0.000 A 
ENDBRANCH  13  14
ENDBRANCH  12  13
ENDBRANCH   9  10
ENDBRANCH   8   9
TORSDOF 6
