MODEL 1
REMARK VINA RESULT:      -9.6      0.000      0.000
REMARK  Name = 
REMARK  9 active torsions:
REMARK  status: ('A' for Active; 'I' for Inactive)
REMARK    1  A    between atoms: C_2  and  C_4
REMARK    2  A    between atoms: C_6  and  C_7
REMARK    3  A    between atoms: C_7  and  C_8
REMARK    4  A    between atoms: N_10  and  C_11
REMARK    5  A    between atoms: C_11  and  C_12
REMARK    6  A    between atoms: C_21  and  C_22
REMARK    7  A    between atoms: C_22  and  N_23
REMARK    8  A    between atoms: N_26  and  C_27
REMARK    9  A    between atoms: C_27  and  C_28
REMARK                            x       y       z     vdW  Elec       q    Type
REMARK                         _______ _______ _______ _____ _____    ______ ____
ROOT
ATOM      4  C   UNL     1      -1.336   1.297  24.594  0.00  0.00    +0.006 C 
ATOM      5  C   UNL     1      -1.828   1.868  24.927  0.00  0.00    +0.005 C 
ATOM      6  C   UNL     1      -1.579   2.654  24.970  0.00  0.00    +0.027 C 
ATOM     18  C   UNL     1      -0.838   2.868  24.679  0.00  0.00    -0.048 C 
ATOM     19  C   UNL     1      -0.589   3.654  24.721  0.00  0.00    +0.026 C 
ATOM     20  C   UNL     1      -0.345   2.296  24.345  0.00  0.00    -0.033 C 
ATOM     21  C   UNL     1      -0.594   1.511  24.303  0.00  0.00    +0.043 C 
ENDROOT
BRANCH   4   2
ATOM      1  C   UNL     1      -1.999   0.245  23.891  0.00  0.00    +0.000 C 
ATOM      2  C   UNL     1      -1.584   0.512  24.552  0.00  0.00    +0.000 C 
ATOM      3  C   UNL     1      -1.417  -0.008  25.172  0.00  0.00    +0.000 C 
ENDBRANCH   4   2
BRANCH   6   7
ATOM      7  C   UNL     1      -2.072   3.226  25.304  0.00  0.00    +0.091 C 
BRANCH   7   8
ATOM      8  C   UNL     1      -2.806   3.387  24.965  0.00  0.00    +0.242 C 
ATOM      9  O   UNL     1      -2.851   3.810  24.259  0.00  0.00    -0.273 OA
ATOM     10  N   UNL     1      -3.496   3.124  25.333  0.00  0.00    -0.200 NA
BRANCH  10  11
ATOM     11  C   UNL     1      -4.231   3.285  24.995  0.00  0.00    +0.143 C 
BRANCH  11  12
ATOM     12  C   UNL     1      -4.902   2.880  25.252  0.00  0.00    +0.019 A 
ATOM     13  C   UNL     1      -5.216   2.269  24.794  0.00  0.00    +0.001 A 
ATOM     14  C   UNL     1      -5.887   1.863  25.052  0.00  0.00    +0.020 A 
ATOM     15  C   UNL     1      -6.243   2.068  25.766  0.00  0.00    +0.099 A 
ATOM     16  N   UNL     1      -5.929   2.679  26.225  0.00  0.00    -0.243 NA
ATOM     17  C   UNL     1      -5.259   3.084  25.967  0.00  0.00    +0.096 A 
ENDBRANCH  11  12
ENDBRANCH  10  11
ENDBRANCH   7   8
ENDBRANCH   6   7
BRANCH  21  22
ATOM     22  C   UNL     1      -0.101   0.940  23.969  0.00  0.00    +0.121 C 
BRANCH  22  23
ATOM     23  N   UNL     1       0.709   1.086  23.897  0.00  0.00    -0.187 NA
ATOM     24  C   UNL     1       1.173   0.604  23.415  0.00  0.00    +0.340 C 
ATOM     25  O   UNL     1       0.829  -0.022  23.005  0.00  0.00    -0.249 OA
ATOM     26  N   UNL     1       1.982   0.750  23.343  0.00  0.00    -0.182 NA
BRANCH  26  27
ATOM     27  C   UNL     1       2.446   0.268  22.860  0.00  0.00    +0.143 C 
BRANCH  27  28
ATOM     28  C   UNL     1       3.268   0.278  22.936  0.00  0.00    -0.001 A 
ATOM     29  C   UNL     1       3.660  -0.373  23.257  0.00  0.00    -0.003 A 
ATOM     30  C   UNL     1       4.482  -0.363  23.333  0.00  0.00    -0.000 A 
ATOM     31  C   UNL     1       4.911   0.298  23.087  0.00  0.00    -0.000 A 
ATOM     32  C   UNL     1       4.518   0.949  22.766  0.00  0.00    -0.000 A 
ATOM     33  C   UNL     1       3.697   0.939  22.690  0.00  0.00    -0.003 A 
ENDBRANCH  27  28
ENDBRANCH  26  27
ENDBRANCH  22  23
ENDBRANCH  21  22
TORSDOF 9
ENDMDL
MODEL 2
REMARK VINA RESULT:      -8.9      0.902      7.241
REMARK  Name = 
REMARK  9 active torsions:
REMARK  status: ('A' for Active; 'I' for Inactive)
REMARK    1  A    between atoms: C_2  and  C_4
REMARK    2  A    between atoms: C_6  and  C_7
REMARK    3  A    between atoms: C_7  and  C_8
REMARK    4  A    between atoms: N_10  and  C_11
REMARK    5  A    between atoms: C_11  and  C_12
REMARK    6  A    between atoms: C_21  and  C_22
REMARK    7  A    between atoms: C_22  and  N_23
REMARK    8  A    between atoms: N_26  and  C_27
REMARK    9  A    between atoms: C_27  and  C_28
REMARK                            x       y       z     vdW  Elec       q    Type
REMARK                         _______ _______ _______ _____ _____    ______ ____
ROOT
ATOM      4  C   UNL     1      -0.186   1.552  24.361  0.00  0.00    +0.006 C 
ATOM      5  C   UNL     1       0.355   0.986  24.104  0.00  0.00    +0.005 C 
ATOM      6  C   UNL     1       0.093   0.238  23.875  0.00  0.00    +0.027 C 
ATOM     18  C   UNL     1      -0.711   0.056  23.904  0.00  0.00    -0.048 C 
ATOM     19  C   UNL     1      -0.974  -0.692  23.675  0.00  0.00    +0.026 C 
ATOM     20  C   UNL     1      -1.254   0.623  24.161  0.00  0.00    -0.033 C 
ATOM     21  C   UNL     1      -0.991   1.370  24.390  0.00  0.00    +0.043 C 
ENDROOT
BRANCH   4   2
ATOM      1  C   UNL     1       0.286   2.442  25.375  0.00  0.00    +0.000 C 
ATOM      2  C   UNL     1       0.076   2.299  24.590  0.00  0.00    +0.000 C 
ATOM      3  C   UNL     1       0.128   2.907  24.032  0.00  0.00    +0.000 C 
ENDBRANCH   4   2
BRANCH   6   7
ATOM      7  C   UNL     1       0.634  -0.329  23.617  0.00  0.00    +0.091 C 
BRANCH   7   8
ATOM      8  C   UNL     1       1.182  -0.141  23.031  0.00  0.00    +0.242 C 
ATOM      9  O   UNL     1       0.926   0.010  22.261  0.00  0.00    -0.273 OA
ATOM     10  N   UNL     1       1.985  -0.103  23.213  0.00  0.00    -0.200 NA
BRANCH  10  11
ATOM     11  C   UNL     1       2.534   0.085  22.626  0.00  0.00    +0.143 C 
BRANCH  11  12
ATOM     12  C   UNL     1       3.330   0.175  22.818  0.00  0.00    +0.019 A 
ATOM     13  C   UNL     1       3.705   0.901  22.698  0.00  0.00    +0.001 A 
ATOM     14  C   UNL     1       4.502   0.991  22.891  0.00  0.00    +0.020 A 
ATOM     15  C   UNL     1       4.925   0.356  23.204  0.00  0.00    +0.099 A 
ATOM     16  N   UNL     1       4.550  -0.371  23.324  0.00  0.00    -0.243 NA
ATOM     17  C   UNL     1       3.754  -0.460  23.131  0.00  0.00    +0.096 A 
ENDBRANCH  11  12
ENDBRANCH  10  11
ENDBRANCH   7   8
ENDBRANCH   6   7
BRANCH  21  22
ATOM     22  C   UNL     1      -1.533   1.936  24.647  0.00  0.00    +0.121 C 
BRANCH  22  23
ATOM     23  N   UNL     1      -2.310   1.715  24.816  0.00  0.00    -0.187 NA
ATOM     24  C   UNL     1      -2.903   2.288  24.850  0.00  0.00    +0.340 C 
ATOM     25  O   UNL     1      -2.719   3.080  24.717  0.00  0.00    -0.249 OA
ATOM     26  N   UNL     1      -3.680   2.067  25.019  0.00  0.00    -0.182 NA
BRANCH  26  27
ATOM     27  C   UNL     1      -4.273   2.640  25.054  0.00  0.00    +0.143 C 
BRANCH  27  28
ATOM     28  C   UNL     1      -5.045   2.423  25.248  0.00  0.00    -0.001 A 
ATOM     29  C   UNL     1      -5.402   2.732  25.924  0.00  0.00    -0.003 A 
ATOM     30  C   UNL     1      -6.175   2.515  26.118  0.00  0.00    -0.000 A 
ATOM     31  C   UNL     1      -6.589   1.989  25.636  0.00  0.00    -0.000 A 
ATOM     32  C   UNL     1      -6.231   1.680  24.960  0.00  0.00    -0.000 A 
ATOM     33  C   UNL     1      -5.460   1.897  24.766  0.00  0.00    -0.003 A 
ENDBRANCH  27  28
ENDBRANCH  26  27
ENDBRANCH  22  23
ENDBRANCH  21  22
TORSDOF 9
ENDMDL
MODEL 3
REMARK VINA RESULT:      -8.8      1.369      2.253
REMARK  Name = 
REMARK  9 active torsions:
REMARK  status: ('A' for Active; 'I' for Inactive)
REMARK    1  A    between atoms: C_2  and  C_4
REMARK    2  A    between atoms: C_6  and  C_7
REMARK    3  A    between atoms: C_7  and  C_8
REMARK    4  A    between atoms: N_10  and  C_11
REMARK    5  A    between atoms: C_11  and  C_12
REMARK    6  A    between atoms: C_21  and  C_22
REMARK    7  A    between atoms: C_22  and  N_23
REMARK    8  A    between atoms: N_26  and  C_27
REMARK    9  A    between atoms: C_27  and  C_28
REMARK                            x       y       z     vdW  Elec       q    Type
REMARK                         _______ _______ _______ _____ _____    ______ ____
ROOT
ATOM      4  C   UNL     1      -1.017   0.758  23.956  0.00  0.00    +0.006 C 
ATOM      5  C   UNL     1      -1.662   0.556  24.429  0.00  0.00    +0.005 C 
ATOM      6  C   UNL     1      -1.689  -0.182  24.798  0.00  0.00    +0.027 C 
ATOM     18  C   UNL     1      -1.070  -0.718  24.693  0.00  0.00    -0.048 C 
ATOM     19  C   UNL     1      -1.096  -1.456  25.062  0.00  0.00    +0.026 C 
ATOM     20  C   UNL     1      -0.424  -0.515  24.220  0.00  0.00    -0.033 C 
ATOM     21  C   UNL     1      -0.398   0.222  23.852  0.00  0.00    +0.043 C 
ENDROOT
BRANCH   4   2
ATOM      1  C   UNL     1      -0.651   2.139  23.977  0.00  0.00    +0.000 C 
ATOM      2  C   UNL     1      -0.991   1.495  23.588  0.00  0.00    +0.000 C 
ATOM      3  C   UNL     1      -1.304   1.589  22.830  0.00  0.00    +0.000 C 
ENDBRANCH   4   2
BRANCH   6   7
ATOM      7  C   UNL     1      -2.334  -0.385  25.271  0.00  0.00    +0.091 C 
BRANCH   7   8
ATOM      8  C   UNL     1      -3.100  -0.319  24.975  0.00  0.00    +0.242 C 
ATOM      9  O   UNL     1      -3.386  -0.879  24.441  0.00  0.00    -0.273 OA
ATOM     10  N   UNL     1      -3.581   0.308  25.211  0.00  0.00    -0.200 NA
BRANCH  10  11
ATOM     11  C   UNL     1      -4.348   0.374  24.915  0.00  0.00    +0.143 C 
BRANCH  11  12
ATOM     12  C   UNL     1      -4.782   1.063  25.044  0.00  0.00    +0.019 A 
ATOM     13  C   UNL     1      -4.659   1.725  24.566  0.00  0.00    +0.001 A 
ATOM     14  C   UNL     1      -5.093   2.414  24.696  0.00  0.00    +0.020 A 
ATOM     15  C   UNL     1      -5.651   2.442  25.302  0.00  0.00    +0.099 A 
ATOM     16  N   UNL     1      -5.775   1.780  25.780  0.00  0.00    -0.243 NA
ATOM     17  C   UNL     1      -5.341   1.092  25.651  0.00  0.00    +0.096 A 
ENDBRANCH  11  12
ENDBRANCH  10  11
ENDBRANCH   7   8
ENDBRANCH   6   7
BRANCH  21  22
ATOM     22  C   UNL     1       0.247   0.424  23.379  0.00  0.00    +0.121 C 
BRANCH  22  23
ATOM     23  N   UNL     1       1.015   0.279  23.646  0.00  0.00    -0.187 NA
ATOM     24  C   UNL     1       1.630   0.195  23.104  0.00  0.00    +0.340 C 
ATOM     25  O   UNL     1       1.480   0.256  22.296  0.00  0.00    -0.249 OA
ATOM     26  N   UNL     1       2.398   0.050  23.371  0.00  0.00    -0.182 NA
BRANCH  26  27
ATOM     27  C   UNL     1       3.014  -0.034  22.828  0.00  0.00    +0.143 C 
BRANCH  27  28
ATOM     28  C   UNL     1       3.796  -0.046  23.091  0.00  0.00    -0.001 A 
ATOM     29  C   UNL     1       4.274   0.619  22.995  0.00  0.00    -0.003 A 
ATOM     30  C   UNL     1       5.056   0.607  23.258  0.00  0.00    -0.000 A 
ATOM     31  C   UNL     1       5.360  -0.071  23.618  0.00  0.00    -0.000 A 
ATOM     32  C   UNL     1       4.881  -0.736  23.714  0.00  0.00    -0.000 A 
ATOM     33  C   UNL     1       4.100  -0.724  23.451  0.00  0.00    -0.003 A 
ENDBRANCH  27  28
ENDBRANCH  26  27
ENDBRANCH  22  23
ENDBRANCH  21  22
TORSDOF 9
ENDMDL
