MODEL 1
REMARK VINA RESULT:     -13.3      0.000      0.000
REMARK  Name = 
REMARK  4 active torsions:
REMARK  status: ('A' for Active; 'I' for Inactive)
REMARK    1  A    between atoms: C_6  and  C_9
REMARK    2  A    between atoms: C_12  and  C_14
REMARK    3  A    between atoms: N_19  and  C_20
REMARK    4  A    between atoms: C_20  and  C_21
REMARK                            x       y       z     vdW  Elec       q    Type
REMARK                         _______ _______ _______ _____ _____    ______ ____
ROOT
ATOM      9  C   UNL     1      -3.907   0.055  24.340  0.00  0.00    +0.203 A 
ATOM     10  N   UNL     1      -3.836   0.460  23.624  0.00  0.00    -0.056 NA
ATOM     11  O   UNL     1      -3.993   1.257  23.766  0.00  0.00    -0.336 OA
ATOM     12  C   UNL     1      -4.162   1.345  24.569  0.00  0.00    +0.251 A 
ATOM     13  N   UNL     1      -4.108   0.602  24.923  0.00  0.00    -0.190 NA
ENDROOT
BRANCH   9   6
ATOM      1  C   UNL     1      -3.464  -3.185  24.787  0.00  0.00    +0.033 C 
ATOM      2  C   UNL     1      -3.575  -2.375  24.675  0.00  0.00    +0.006 A 
ATOM      3  C   UNL     1      -4.077  -2.105  24.079  0.00  0.00    +0.136 A 
ATOM      4  F   UNL     1      -4.469  -2.646  23.594  0.00  0.00    -0.205 F 
ATOM      5  C   UNL     1      -4.188  -1.295  23.967  0.00  0.00    +0.032 A 
ATOM      6  C   UNL     1      -3.796  -0.755  24.452  0.00  0.00    +0.041 A 
ATOM      7  C   UNL     1      -3.294  -1.024  25.048  0.00  0.00    +0.003 A 
ATOM      8  C   UNL     1      -3.183  -1.834  25.160  0.00  0.00    -0.002 A 
ENDBRANCH   9   6
BRANCH  12  14
ATOM     14  C   UNL     1      -4.350   2.052  24.950  0.00  0.00    +0.140 C 
ATOM     15  C   UNL     1      -5.091   2.259  25.249  0.00  0.00    +0.060 C 
ATOM     16  C   UNL     1      -5.030   3.010  25.584  0.00  0.00    +0.170 C 
ATOM     17  O   UNL     1      -5.640   3.430  25.947  0.00  0.00    -0.222 OA
ATOM     18  C   UNL     1      -4.251   3.268  25.492  0.00  0.00    +0.106 C 
ATOM     19  N   UNL     1      -3.831   2.675  25.100  0.00  0.00    -0.260 NA
BRANCH  19  20
ATOM     20  C   UNL     1      -3.033   2.702  24.895  0.00  0.00    +0.100 C 
BRANCH  20  21
ATOM     21  C   UNL     1      -2.580   3.364  25.086  0.00  0.00    -0.006 A 
ATOM     22  C   UNL     1      -2.593   4.028  24.598  0.00  0.00    -0.003 A 
ATOM     23  C   UNL     1      -2.139   4.691  24.789  0.00  0.00    -0.000 A 
ATOM     24  C   UNL     1      -1.672   4.688  25.470  0.00  0.00    -0.000 A 
ATOM     25  C   UNL     1      -1.659   4.024  25.958  0.00  0.00    -0.000 A 
ATOM     26  C   UNL     1      -2.113   3.362  25.767  0.00  0.00    -0.003 A 
ENDBRANCH  20  21
ENDBRANCH  19  20
ENDBRANCH  12  14
TORSDOF 4
ENDMDL
MODEL 2
REMARK VINA RESULT:     -12.9      2.751      5.661
REMARK  Name = 
REMARK  4 active torsions:
REMARK  status: ('A' for Active; 'I' for Inactive)
REMARK    1  A    between atoms: C_6  and  C_9
REMARK    2  A    between atoms: C_12  and  C_14
REMARK    3  A    between atoms: N_19  and  C_20
REMARK    4  A    between atoms: C_20  and  C_21
REMARK                            x       y       z     vdW  Elec       q    Type
REMARK                         _______ _______ _______ _____ _____    ______ ____
ROOT
ATOM      9  C   UNL     1      -1.043   2.561  25.517  0.00  0.00    +0.203 A 
ATOM     10  N   UNL     1      -0.737   2.220  26.203  0.00  0.00    -0.056 NA
ATOM     11  O   UNL     1      -0.619   1.416  26.058  0.00  0.00    -0.336 OA
ATOM     12  C   UNL     1      -0.852   1.260  25.282  0.00  0.00    +0.251 A 
ATOM     13  N   UNL     1      -1.114   1.968  24.948  0.00  0.00    -0.190 NA
ENDROOT
BRANCH   9   6
ATOM      1  C   UNL     1      -1.844   5.737  25.121  0.00  0.00    +0.033 C 
ATOM      2  C   UNL     1      -1.644   4.943  25.220  0.00  0.00    +0.006 A 
ATOM      3  C   UNL     1      -0.901   4.672  24.986  0.00  0.00    +0.136 A 
ATOM      4  F   UNL     1      -0.357   5.197  24.653  0.00  0.00    -0.205 F 
ATOM      5  C   UNL     1      -0.700   3.878  25.085  0.00  0.00    +0.032 A 
ATOM      6  C   UNL     1      -1.243   3.355  25.418  0.00  0.00    +0.041 A 
ATOM      7  C   UNL     1      -1.987   3.625  25.652  0.00  0.00    +0.003 A 
ATOM      8  C   UNL     1      -2.187   4.419  25.553  0.00  0.00    -0.002 A 
ENDBRANCH   9   6
BRANCH  12  14
ATOM     14  C   UNL     1      -0.827   0.527  24.906  0.00  0.00    +0.140 C 
ATOM     15  C   UNL     1      -0.186   0.217  24.488  0.00  0.00    +0.060 C 
ATOM     16  C   UNL     1      -0.401  -0.527  24.205  0.00  0.00    +0.170 C 
ATOM     17  O   UNL     1       0.075  -1.032  23.758  0.00  0.00    -0.222 OA
ATOM     18  C   UNL     1      -1.175  -0.678  24.447  0.00  0.00    +0.106 C 
ATOM     19  N   UNL     1      -1.438  -0.026  24.881  0.00  0.00    -0.260 NA
BRANCH  19  20
ATOM     20  C   UNL     1      -2.182   0.056  25.227  0.00  0.00    +0.100 C 
BRANCH  20  21
ATOM     21  C   UNL     1      -2.786  -0.473  25.041  0.00  0.00    -0.006 A 
ATOM     22  C   UNL     1      -3.277  -0.328  24.395  0.00  0.00    -0.003 A 
ATOM     23  C   UNL     1      -3.882  -0.858  24.208  0.00  0.00    -0.000 A 
ATOM     24  C   UNL     1      -3.993  -1.534  24.668  0.00  0.00    -0.000 A 
ATOM     25  C   UNL     1      -3.502  -1.679  25.314  0.00  0.00    -0.000 A 
ATOM     26  C   UNL     1      -2.898  -1.150  25.501  0.00  0.00    -0.003 A 
ENDBRANCH  20  21
ENDBRANCH  19  20
ENDBRANCH  12  14
TORSDOF 4
ENDMDL
MODEL 3
REMARK VINA RESULT:     -12.4      1.992      4.860
REMARK  Name = 
REMARK  4 active torsions:
REMARK  status: ('A' for Active; 'I' for Inactive)
REMARK    1  A    between atoms: C_6  and  C_9
REMARK    2  A    between atoms: C_12  and  C_14
REMARK    3  A    between atoms: N_19  and  C_20
REMARK    4  A    between atoms: C_20  and  C_21
REMARK                            x       y       z     vdW  Elec       q    Type
REMARK                         _______ _______ _______ _____ _____    ______ ____
ROOT
ATOM      9  C   UNL     1      -3.033   3.286  24.519  0.00  0.00    +0.203 A 
ATOM     10  N   UNL     1      -3.486   3.334  23.831  0.00  0.00    -0.056 NA
ATOM     11  O   UNL     1      -4.137   2.834  23.918  0.00  0.00    -0.336 OA
ATOM     12  C   UNL     1      -4.086   2.477  24.660  0.00  0.00    +0.251 A 
ATOM     13  N   UNL     1      -3.403   2.756  25.031  0.00  0.00    -0.190 NA
ENDROOT
BRANCH   9   6
ATOM      1  C   UNL     1      -0.231   4.925  25.115  0.00  0.00    +0.033 C 
ATOM      2  C   UNL     1      -0.932   4.515  24.966  0.00  0.00    +0.006 A 
ATOM      3  C   UNL     1      -1.659   4.861  25.145  0.00  0.00    +0.136 A 
ATOM      4  F   UNL     1      -1.685   5.618  25.474  0.00  0.00    -0.205 F 
ATOM      5  C   UNL     1      -2.359   4.451  24.996  0.00  0.00    +0.032 A 
ATOM      6  C   UNL     1      -2.332   3.696  24.668  0.00  0.00    +0.041 A 
ATOM      7  C   UNL     1      -1.606   3.348  24.488  0.00  0.00    +0.003 A 
ATOM      8  C   UNL     1      -0.905   3.758  24.637  0.00  0.00    -0.002 A 
ENDBRANCH   9   6
BRANCH  12  14
ATOM     14  C   UNL     1      -4.622   1.936  24.976  0.00  0.00    +0.140 C 
ATOM     15  C   UNL     1      -5.311   2.122  25.391  0.00  0.00    +0.060 C 
ATOM     16  C   UNL     1      -5.679   1.415  25.604  0.00  0.00    +0.170 C 
ATOM     17  O   UNL     1      -6.384   1.343  26.027  0.00  0.00    -0.222 OA
ATOM     18  C   UNL     1      -5.218   0.792  25.320  0.00  0.00    +0.106 C 
ATOM     19  N   UNL     1      -4.565   1.114  24.932  0.00  0.00    -0.260 NA
BRANCH  19  20
ATOM     20  C   UNL     1      -3.961   0.689  24.565  0.00  0.00    +0.100 C 
BRANCH  20  21
ATOM     21  C   UNL     1      -3.936  -0.133  24.630  0.00  0.00    -0.006 A 
ATOM     22  C   UNL     1      -4.282  -0.604  24.048  0.00  0.00    -0.003 A 
ATOM     23  C   UNL     1      -4.257  -1.426  24.114  0.00  0.00    -0.000 A 
ATOM     24  C   UNL     1      -3.886  -1.777  24.762  0.00  0.00    -0.000 A 
ATOM     25  C   UNL     1      -3.540  -1.306  25.344  0.00  0.00    -0.000 A 
ATOM     26  C   UNL     1      -3.565  -0.484  25.279  0.00  0.00    -0.003 A 
ENDBRANCH  20  21
ENDBRANCH  19  20
ENDBRANCH  12  14
TORSDOF 4
ENDMDL
MODEL 4
REMARK VINA RESULT:     -12.3      2.030      2.817
REMARK  Name = 
REMARK  4 active torsions:
REMARK  status: ('A' for Active; 'I' for Inactive)
REMARK    1  A    between atoms: C_6  and  C_9
REMARK    2  A    between atoms: C_12  and  C_14
REMARK    3  A    between atoms: N_19  and  C_20
REMARK    4  A    between atoms: C_20  and  C_21
REMARK                            x       y       z     vdW  Elec       q    Type
REMARK                         _______ _______ _______ _____ _____    ______ ____
ROOT
ATOM      9  C   UNL     1      -2.171  -0.683  25.041  0.00  0.00    +0.203 A 
ATOM     10  N   UNL     1      -1.884  -0.649  25.815  0.00  0.00    -0.056 NA
ATOM     11  O   UNL     1      -1.355  -0.018  25.863  0.00  0.00    -0.336 OA
ATOM     12  C   UNL     1      -1.314   0.338  25.119  0.00  0.00    +0.251 A 
ATOM     13  N   UNL     1      -1.818  -0.074  24.612  0.00  0.00    -0.190 NA
ENDROOT
BRANCH   9   6
ATOM      1  C   UNL     1      -4.345  -2.874  23.874  0.00  0.00    +0.033 C 
ATOM      2  C   UNL     1      -3.801  -2.327  24.165  0.00  0.00    +0.006 A 
ATOM      3  C   UNL     1      -3.988  -1.523  24.173  0.00  0.00    +0.136 A 
ATOM      4  F   UNL     1      -4.719  -1.268  23.887  0.00  0.00    -0.205 F 
ATOM      5  C   UNL     1      -3.444  -0.975  24.465  0.00  0.00    +0.032 A 
ATOM      6  C   UNL     1      -2.714  -1.231  24.749  0.00  0.00    +0.041 A 
ATOM      7  C   UNL     1      -2.526  -2.035  24.743  0.00  0.00    +0.003 A 
ATOM      8  C   UNL     1      -3.070  -2.582  24.451  0.00  0.00    -0.002 A 
ENDBRANCH   9   6
BRANCH  12  14
ATOM     14  C   UNL     1      -0.850   0.989  24.919  0.00  0.00    +0.140 C 
ATOM     15  C   UNL     1      -0.106   0.964  24.564  0.00  0.00    +0.060 C 
ATOM     16  C   UNL     1       0.155   1.740  24.463  0.00  0.00    +0.170 C 
ATOM     17  O   UNL     1       0.873   1.970  24.128  0.00  0.00    -0.222 OA
ATOM     18  C   UNL     1      -0.428   2.245  24.755  0.00  0.00    +0.106 C 
ATOM     19  N   UNL     1      -1.050   1.781  25.037  0.00  0.00    -0.260 NA
BRANCH  19  20
ATOM     20  C   UNL     1      -1.747   2.060  25.377  0.00  0.00    +0.100 C 
BRANCH  20  21
ATOM     21  C   UNL     1      -1.954   2.855  25.301  0.00  0.00    -0.006 A 
ATOM     22  C   UNL     1      -1.648   3.413  25.825  0.00  0.00    -0.003 A 
ATOM     23  C   UNL     1      -1.856   4.209  25.748  0.00  0.00    -0.000 A 
ATOM     24  C   UNL     1      -2.370   4.444  25.147  0.00  0.00    -0.000 A 
ATOM     25  C   UNL     1      -2.676   3.886  24.623  0.00  0.00    -0.000 A 
ATOM     26  C   UNL     1      -2.468   3.092  24.700  0.00  0.00    -0.003 A 
ENDBRANCH  20  21
ENDBRANCH  19  20
ENDBRANCH  12  14
TORSDOF 4
ENDMDL
MODEL 5
REMARK VINA RESULT:     -12.0      1.881      5.053
REMARK  Name = 
REMARK  4 active torsions:
REMARK  status: ('A' for Active; 'I' for Inactive)
REMARK    1  A    between atoms: C_6  and  C_9
REMARK    2  A    between atoms: C_12  and  C_14
REMARK    3  A    between atoms: N_19  and  C_20
REMARK    4  A    between atoms: C_20  and  C_21
REMARK                            x       y       z     vdW  Elec       q    Type
REMARK                         _______ _______ _______ _____ _____    ______ ____
ROOT
ATOM      9  C   UNL     1      -3.540   2.019  24.346  0.00  0.00    +0.203 A 
ATOM     10  N   UNL     1      -3.339   1.977  23.547  0.00  0.00    -0.056 NA
ATOM     11  O   UNL     1      -2.798   1.360  23.453  0.00  0.00    -0.336 OA
ATOM     12  C   UNL     1      -2.665   1.023  24.194  0.00  0.00    +0.251 A 
ATOM     13  N   UNL     1      -3.124   1.430  24.746  0.00  0.00    -0.190 NA
ENDROOT
BRANCH   9   6
ATOM      1  C   UNL     1      -5.643   4.171  25.704  0.00  0.00    +0.033 C 
ATOM      2  C   UNL     1      -5.117   3.633  25.364  0.00  0.00    +0.006 A 
ATOM      3  C   UNL     1      -5.373   2.874  25.166  0.00  0.00    +0.136 A 
ATOM      4  F   UNL     1      -6.156   2.653  25.308  0.00  0.00    -0.205 F 
ATOM      5  C   UNL     1      -4.848   2.336  24.827  0.00  0.00    +0.032 A 
ATOM      6  C   UNL     1      -4.066   2.557  24.686  0.00  0.00    +0.041 A 
ATOM      7  C   UNL     1      -3.809   3.316  24.883  0.00  0.00    +0.003 A 
ATOM      8  C   UNL     1      -4.334   3.854  25.223  0.00  0.00    -0.002 A 
ENDBRANCH   9   6
BRANCH  12  14
ATOM     14  C   UNL     1      -2.162   0.389  24.355  0.00  0.00    +0.140 C 
ATOM     15  C   UNL     1      -1.338   0.403  24.320  0.00  0.00    +0.060 C 
ATOM     16  C   UNL     1      -1.061  -0.347  24.523  0.00  0.00    +0.170 C 
ATOM     17  O   UNL     1      -0.270  -0.578  24.558  0.00  0.00    -0.222 OA
ATOM     18  C   UNL     1      -1.714  -0.825  24.684  0.00  0.00    +0.106 C 
ATOM     19  N   UNL     1      -2.395  -0.370  24.581  0.00  0.00    -0.260 NA
BRANCH  19  20
ATOM     20  C   UNL     1      -3.171  -0.628  24.685  0.00  0.00    +0.100 C 
BRANCH  20  21
ATOM     21  C   UNL     1      -3.344  -1.434  24.662  0.00  0.00    -0.006 A 
ATOM     22  C   UNL     1      -3.242  -1.898  25.337  0.00  0.00    -0.003 A 
ATOM     23  C   UNL     1      -3.415  -2.704  25.314  0.00  0.00    -0.000 A 
ATOM     24  C   UNL     1      -3.690  -3.047  24.616  0.00  0.00    -0.000 A 
ATOM     25  C   UNL     1      -3.792  -2.584  23.941  0.00  0.00    -0.000 A 
ATOM     26  C   UNL     1      -3.619  -1.778  23.964  0.00  0.00    -0.003 A 
ENDBRANCH  20  21
ENDBRANCH  19  20
ENDBRANCH  12  14
TORSDOF 4
ENDMDL
