MODEL 1
REMARK VINA RESULT:     -14.7      0.000      0.000
REMARK  Name = 
REMARK  4 active torsions:
REMARK  status: ('A' for Active; 'I' for Inactive)
REMARK    1  A    between atoms: C_2  and  C_3
REMARK    2  A    between atoms: C_11  and  C_12
REMARK    3  A    between atoms: C_12  and  C_13
REMARK    4  A    between atoms: C_28  and  C_30
REMARK                            x       y       z     vdW  Elec       q    Type
REMARK                         _______ _______ _______ _____ _____    ______ ____
ROOT
ATOM      1  C   UNL     1      -2.377  -2.765  24.657  0.00  0.00    +0.005 C 
ATOM      2  C   UNL     1      -2.656  -1.993  24.569  0.00  0.00    +0.059 C 
ATOM      5  C   UNL     1      -3.336  -2.415  24.371  0.00  0.00    +0.154 C 
ATOM      6  O   UNL     1      -3.328  -3.240  24.379  0.00  0.00    -0.223 OA
ATOM      7  C   UNL     1      -4.026  -2.011  24.163  0.00  0.00    +0.033 C 
ATOM      8  C   UNL     1      -4.034  -1.187  24.155  0.00  0.00    +0.003 C 
ATOM      9  C   UNL     1      -3.354  -0.765  24.353  0.00  0.00    +0.006 C 
ATOM     10  C   UNL     1      -4.043  -0.362  24.147  0.00  0.00    +0.000 C 
ATOM     11  C   UNL     1      -3.362   0.060  24.345  0.00  0.00    +0.050 C 
ATOM     21  C   UNL     1      -2.682   0.481  24.544  0.00  0.00    +0.063 A 
ATOM     22  C   UNL     1      -1.992   0.077  24.751  0.00  0.00    +0.023 A 
ATOM     23  C   UNL     1      -1.983  -0.747  24.759  0.00  0.00    +0.034 C 
ATOM     24  C   UNL     1      -2.664  -1.169  24.561  0.00  0.00    +0.010 C 
ATOM     25  S   UNL     1      -1.410   0.638  24.919  0.00  0.00    -0.054 S 
ATOM     26  C   UNL     1      -1.739   1.387  24.816  0.00  0.00    +0.185 A 
ATOM     27  N   UNL     1      -1.351   2.107  24.926  0.00  0.00    -0.154 NA
ATOM     28  C   UNL     1      -1.754   2.815  24.802  0.00  0.00    +0.247 C 
ATOM     29  O   UNL     1      -2.545   2.805  24.568  0.00  0.00    -0.273 OA
ATOM     34  N   UNL     1      -2.525   1.290  24.584  0.00  0.00    -0.227 NA
ENDROOT
BRANCH  28  30
ATOM     30  C   UNL     1      -1.366   3.535  24.912  0.00  0.00    +0.079 C 
ATOM     31  C   UNL     1      -1.502   4.208  25.371  0.00  0.00    +0.009 C 
ATOM     32  C   UNL     1      -0.817   4.553  25.067  0.00  0.00    +0.001 C 
ATOM     33  C   UNL     1      -0.681   3.881  24.608  0.00  0.00    +0.009 C 
ENDBRANCH  28  30
BRANCH   2   3
ATOM      3  C   UNL     1      -1.878  -1.840  24.798  0.00  0.00    +0.184 C 
ATOM      4  O   UNL     1      -1.355  -2.465  24.926  0.00  0.00    -0.220 OA
ENDBRANCH   2   3
BRANCH  11  12
ATOM     12  C   UNL     1      -4.051   0.463  24.138  0.00  0.00    +0.093 C 
BRANCH  12  13
ATOM     13  C   UNL     1      -4.502   0.836  24.721  0.00  0.00    +0.248 C 
ATOM     14  O   UNL     1      -4.500   0.545  25.492  0.00  0.00    -0.273 OA
ATOM     15  N   UNL     1      -4.954   1.499  24.531  0.00  0.00    -0.154 NA
ATOM     16  C   UNL     1      -5.404   1.872  25.112  0.00  0.00    +0.186 A 
ATOM     17  N   UNL     1      -5.457   1.645  25.904  0.00  0.00    -0.221 NA
ATOM     18  C   UNL     1      -5.966   2.170  26.286  0.00  0.00    +0.108 A 
ATOM     19  C   UNL     1      -6.228   2.721  25.730  0.00  0.00    +0.059 A 
ATOM     20  S   UNL     1      -5.881   2.537  25.005  0.00  0.00    -0.049 S 
ENDBRANCH  12  13
ENDBRANCH  11  12
TORSDOF 4
ENDMDL
MODEL 2
REMARK VINA RESULT:     -13.9      1.662      5.148
REMARK  Name = 
REMARK  4 active torsions:
REMARK  status: ('A' for Active; 'I' for Inactive)
REMARK    1  A    between atoms: C_2  and  C_3
REMARK    2  A    between atoms: C_11  and  C_12
REMARK    3  A    between atoms: C_12  and  C_13
REMARK    4  A    between atoms: C_28  and  C_30
REMARK                            x       y       z     vdW  Elec       q    Type
REMARK                         _______ _______ _______ _____ _____    ______ ____
ROOT
ATOM      1  C   UNL     1      -5.539   3.737  25.672  0.00  0.00    +0.005 C 
ATOM      2  C   UNL     1      -5.014   3.228  25.290  0.00  0.00    +0.059 C 
ATOM      5  C   UNL     1      -4.719   3.954  25.036  0.00  0.00    +0.154 C 
ATOM      6  O   UNL     1      -5.078   4.655  25.284  0.00  0.00    -0.223 OA
ATOM      7  C   UNL     1      -4.064   3.981  24.534  0.00  0.00    +0.033 C 
ATOM      8  C   UNL     1      -3.705   3.281  24.287  0.00  0.00    +0.003 C 
ATOM      9  C   UNL     1      -4.000   2.555  24.541  0.00  0.00    +0.006 C 
ATOM     10  C   UNL     1      -3.347   2.582  24.040  0.00  0.00    +0.000 C 
ATOM     11  C   UNL     1      -3.642   1.854  24.294  0.00  0.00    +0.050 C 
ATOM     21  C   UNL     1      -3.937   1.127  24.547  0.00  0.00    +0.063 A 
ATOM     22  C   UNL     1      -4.592   1.100  25.049  0.00  0.00    +0.023 A 
ATOM     23  C   UNL     1      -4.950   1.800  25.297  0.00  0.00    +0.034 C 
ATOM     24  C   UNL     1      -4.655   2.528  25.043  0.00  0.00    +0.010 C 
ATOM     25  S   UNL     1      -4.758   0.308  25.207  0.00  0.00    -0.054 S 
ATOM     26  C   UNL     1      -4.208  -0.155  24.804  0.00  0.00    +0.185 A 
ATOM     27  N   UNL     1      -4.171  -0.979  24.808  0.00  0.00    -0.154 NA
ATOM     28  C   UNL     1      -3.586  -1.368  24.376  0.00  0.00    +0.247 C 
ATOM     29  O   UNL     1      -3.037  -0.933  23.939  0.00  0.00    -0.273 OA
ATOM     34  N   UNL     1      -3.700   0.351  24.396  0.00  0.00    -0.227 NA
ENDROOT
BRANCH  28  30
ATOM     30  C   UNL     1      -3.549  -2.192  24.379  0.00  0.00    +0.079 C 
ATOM     31  C   UNL     1      -3.087  -2.754  24.770  0.00  0.00    +0.009 C 
ATOM     32  C   UNL     1      -3.497  -3.358  24.385  0.00  0.00    +0.001 C 
ATOM     33  C   UNL     1      -3.959  -2.796  23.995  0.00  0.00    +0.009 C 
ENDBRANCH  28  30
BRANCH   2   3
ATOM      3  C   UNL     1      -5.492   2.678  25.677  0.00  0.00    +0.184 C 
ATOM      4  O   UNL     1      -6.082   2.934  26.194  0.00  0.00    -0.220 OA
ENDBRANCH   2   3
BRANCH  11  12
ATOM     12  C   UNL     1      -2.987   1.881  23.792  0.00  0.00    +0.093 C 
BRANCH  12  13
ATOM     13  C   UNL     1      -2.229   1.755  24.095  0.00  0.00    +0.248 C 
ATOM     14  O   UNL     1      -2.083   1.867  24.899  0.00  0.00    -0.273 OA
ATOM     15  N   UNL     1      -1.620   1.517  23.594  0.00  0.00    -0.154 NA
ATOM     16  C   UNL     1      -0.862   1.391  23.896  0.00  0.00    +0.186 A 
ATOM     17  N   UNL     1      -0.634   1.481  24.684  0.00  0.00    -0.221 NA
ATOM     18  C   UNL     1       0.169   1.299  24.739  0.00  0.00    +0.108 A 
ATOM     19  C   UNL     1       0.436   1.096  23.984  0.00  0.00    +0.059 A 
ATOM     20  S   UNL     1      -0.201   1.153  23.463  0.00  0.00    -0.049 S 
ENDBRANCH  12  13
ENDBRANCH  11  12
TORSDOF 4
ENDMDL
MODEL 3
REMARK VINA RESULT:     -13.9      1.313      3.269
REMARK  Name = 
REMARK  4 active torsions:
REMARK  status: ('A' for Active; 'I' for Inactive)
REMARK    1  A    between atoms: C_2  and  C_3
REMARK    2  A    between atoms: C_11  and  C_12
REMARK    3  A    between atoms: C_12  and  C_13
REMARK    4  A    between atoms: C_28  and  C_30
REMARK                            x       y       z     vdW  Elec       q    Type
REMARK                         _______ _______ _______ _____ _____    ______ ____
ROOT
ATOM      1  C   UNL     1      -3.728  -2.914  23.984  0.00  0.00    +0.005 C 
ATOM      2  C   UNL     1      -3.475  -2.201  24.311  0.00  0.00    +0.059 C 
ATOM      5  C   UNL     1      -2.819  -2.673  24.473  0.00  0.00    +0.154 C 
ATOM      6  O   UNL     1      -2.813  -3.465  24.241  0.00  0.00    -0.223 OA
ATOM      7  C   UNL     1      -2.167  -2.354  24.867  0.00  0.00    +0.033 C 
ATOM      8  C   UNL     1      -2.173  -1.563  25.099  0.00  0.00    +0.003 C 
ATOM      9  C   UNL     1      -2.828  -1.090  24.937  0.00  0.00    +0.006 C 
ATOM     10  C   UNL     1      -2.178  -0.772  25.330  0.00  0.00    +0.000 C 
ATOM     11  C   UNL     1      -2.834  -0.298  25.169  0.00  0.00    +0.050 C 
ATOM     21  C   UNL     1      -3.490   0.174  25.007  0.00  0.00    +0.063 A 
ATOM     22  C   UNL     1      -4.142  -0.145  24.613  0.00  0.00    +0.023 A 
ATOM     23  C   UNL     1      -4.136  -0.936  24.381  0.00  0.00    +0.034 C 
ATOM     24  C   UNL     1      -3.480  -1.410  24.543  0.00  0.00    +0.010 C 
ATOM     25  S   UNL     1      -4.706   0.452  24.530  0.00  0.00    -0.054 S 
ATOM     26  C   UNL     1      -4.404   1.139  24.872  0.00  0.00    +0.185 A 
ATOM     27  N   UNL     1      -4.786   1.869  24.912  0.00  0.00    -0.154 NA
ATOM     28  C   UNL     1      -4.413   2.509  25.273  0.00  0.00    +0.247 C 
ATOM     29  O   UNL     1      -3.658   2.421  25.595  0.00  0.00    -0.273 OA
ATOM     34  N   UNL     1      -3.653   0.967  25.167  0.00  0.00    -0.227 NA
ENDROOT
BRANCH  28  30
ATOM     30  C   UNL     1      -4.795   3.240  25.314  0.00  0.00    +0.079 C 
ATOM     31  C   UNL     1      -4.646   3.994  25.013  0.00  0.00    +0.009 C 
ATOM     32  C   UNL     1      -5.336   4.272  25.371  0.00  0.00    +0.001 C 
ATOM     33  C   UNL     1      -5.485   3.519  25.671  0.00  0.00    +0.009 C 
ENDBRANCH  28  30
BRANCH   2   3
ATOM      3  C   UNL     1      -4.219  -1.976  24.035  0.00  0.00    +0.184 C 
ATOM      4  O   UNL     1      -4.683  -2.513  23.614  0.00  0.00    -0.220 OA
ENDBRANCH   2   3
BRANCH  11  12
ATOM     12  C   UNL     1      -2.183   0.021  25.563  0.00  0.00    +0.093 C 
BRANCH  12  13
ATOM     13  C   UNL     1      -1.659   0.516  25.160  0.00  0.00    +0.248 C 
ATOM     14  O   UNL     1      -1.622   0.494  24.337  0.00  0.00    -0.273 OA
ATOM     15  N   UNL     1      -1.174   1.032  25.582  0.00  0.00    -0.154 NA
ATOM     16  C   UNL     1      -0.650   1.527  25.181  0.00  0.00    +0.186 A 
ATOM     17  N   UNL     1      -0.552   1.567  24.362  0.00  0.00    -0.221 NA
ATOM     18  C   UNL     1       0.025   2.133  24.202  0.00  0.00    +0.108 A 
ATOM     19  C   UNL     1       0.284   2.444  24.922  0.00  0.00    +0.059 A 
ATOM     20  S   UNL     1      -0.133   2.069  25.527  0.00  0.00    -0.049 S 
ENDBRANCH  12  13
ENDBRANCH  11  12
TORSDOF 4
ENDMDL
MODEL 4
REMARK VINA RESULT:     -13.5      1.911      4.078
REMARK  Name = 
REMARK  4 active torsions:
REMARK  status: ('A' for Active; 'I' for Inactive)
REMARK    1  A    between atoms: C_2  and  C_3
REMARK    2  A    between atoms: C_11  and  C_12
REMARK    3  A    between atoms: C_12  and  C_13
REMARK    4  A    between atoms: C_28  and  C_30
REMARK                            x       y       z     vdW  Elec       q    Type
REMARK                         _______ _______ _______ _____ _____    ______ ____
ROOT
ATOM      1  C   UNL     1      -4.830   3.747  25.817  0.00  0.00    +0.005 C 
ATOM      2  C   UNL     1      -4.527   3.077  25.443  0.00  0.00    +0.059 C 
ATOM      5  C   UNL     1      -5.328   2.884  25.455  0.00  0.00    +0.154 C 
ATOM      6  O   UNL     1      -5.874   3.405  25.787  0.00  0.00    -0.223 OA
ATOM      7  C   UNL     1      -5.584   2.168  25.133  0.00  0.00    +0.033 C 
ATOM      8  C   UNL     1      -5.039   1.647  24.800  0.00  0.00    +0.003 C 
ATOM      9  C   UNL     1      -4.238   1.840  24.789  0.00  0.00    +0.006 C 
ATOM     10  C   UNL     1      -4.494   1.125  24.468  0.00  0.00    +0.000 C 
ATOM     11  C   UNL     1      -3.692   1.319  24.456  0.00  0.00    +0.050 C 
ATOM     21  C   UNL     1      -2.890   1.512  24.445  0.00  0.00    +0.063 A 
ATOM     22  C   UNL     1      -2.634   2.228  24.766  0.00  0.00    +0.023 A 
ATOM     23  C   UNL     1      -3.179   2.749  25.099  0.00  0.00    +0.034 C 
ATOM     24  C   UNL     1      -3.981   2.556  25.111  0.00  0.00    +0.010 C 
ATOM     25  S   UNL     1      -1.815   2.268  24.676  0.00  0.00    -0.054 S 
ATOM     26  C   UNL     1      -1.564   1.578  24.300  0.00  0.00    +0.185 A 
ATOM     27  N   UNL     1      -0.786   1.389  24.101  0.00  0.00    -0.154 NA
ATOM     28  C   UNL     1      -0.620   0.675  23.723  0.00  0.00    +0.247 C 
ATOM     29  O   UNL     1      -1.230   0.150  23.544  0.00  0.00    -0.273 OA
ATOM     34  N   UNL     1      -2.229   1.111  24.157  0.00  0.00    -0.227 NA
ENDROOT
BRANCH  28  30
ATOM     30  C   UNL     1       0.158   0.486  23.525  0.00  0.00    +0.079 C 
ATOM     31  C   UNL     1       0.542  -0.191  23.248  0.00  0.00    +0.009 C 
ATOM     32  C   UNL     1       1.259   0.218  23.244  0.00  0.00    +0.001 C 
ATOM     33  C   UNL     1       0.876   0.894  23.520  0.00  0.00    +0.009 C 
ENDBRANCH  28  30
BRANCH   2   3
ATOM      3  C   UNL     1      -3.830   3.503  25.562  0.00  0.00    +0.184 C 
ATOM      4  O   UNL     1      -3.850   4.221  25.969  0.00  0.00    -0.220 OA
ENDBRANCH   2   3
BRANCH  11  12
ATOM     12  C   UNL     1      -3.948   0.603  24.135  0.00  0.00    +0.093 C 
BRANCH  12  13
ATOM     13  C   UNL     1      -3.807  -0.104  24.536  0.00  0.00    +0.248 C 
ATOM     14  O   UNL     1      -3.637  -0.092  25.344  0.00  0.00    -0.273 OA
ATOM     15  N   UNL     1      -3.836  -0.821  24.131  0.00  0.00    -0.154 NA
ATOM     16  C   UNL     1      -3.696  -1.528  24.532  0.00  0.00    +0.186 A 
ATOM     17  N   UNL     1      -3.520  -1.603  25.336  0.00  0.00    -0.221 NA
ATOM     18  C   UNL     1      -3.422  -2.405  25.501  0.00  0.00    +0.108 A 
ATOM     19  C   UNL     1      -3.537  -2.826  24.800  0.00  0.00    +0.059 A 
ATOM     20  S   UNL     1      -3.706  -2.284  24.202  0.00  0.00    -0.049 S 
ENDBRANCH  12  13
ENDBRANCH  11  12
TORSDOF 4
ENDMDL
MODEL 5
REMARK VINA RESULT:     -13.5      1.212      4.248
REMARK  Name = 
REMARK  4 active torsions:
REMARK  status: ('A' for Active; 'I' for Inactive)
REMARK    1  A    between atoms: C_2  and  C_3
REMARK    2  A    between atoms: C_11  and  C_12
REMARK    3  A    between atoms: C_12  and  C_13
REMARK    4  A    between atoms: C_28  and  C_30
REMARK                            x       y       z     vdW  Elec       q    Type
REMARK                         _______ _______ _______ _____ _____    ______ ____
ROOT
ATOM      1  C   UNL     1       0.011   3.376  25.538  0.00  0.00    +0.005 C 
ATOM      2  C   UNL     1      -0.692   3.025  25.286  0.00  0.00    +0.059 C 
ATOM      5  C   UNL     1      -0.881   3.819  25.174  0.00  0.00    +0.154 C 
ATOM      6  O   UNL     1      -0.329   4.405  25.356  0.00  0.00    -0.223 OA
ATOM      7  C   UNL     1      -1.623   4.029  24.879  0.00  0.00    +0.033 C 
ATOM      8  C   UNL     1      -2.175   3.444  24.698  0.00  0.00    +0.003 C 
ATOM      9  C   UNL     1      -1.986   2.650  24.810  0.00  0.00    +0.006 C 
ATOM     10  C   UNL     1      -2.726   2.859  24.516  0.00  0.00    +0.000 C 
ATOM     11  C   UNL     1      -2.537   2.064  24.628  0.00  0.00    +0.050 C 
ATOM     21  C   UNL     1      -2.348   1.269  24.740  0.00  0.00    +0.063 A 
ATOM     22  C   UNL     1      -1.606   1.059  25.035  0.00  0.00    +0.023 A 
ATOM     23  C   UNL     1      -1.054   1.644  25.217  0.00  0.00    +0.034 C 
ATOM     24  C   UNL     1      -1.243   2.440  25.104  0.00  0.00    +0.010 C 
ATOM     25  S   UNL     1      -1.576   0.236  25.087  0.00  0.00    -0.054 S 
ATOM     26  C   UNL     1      -2.299  -0.063  24.825  0.00  0.00    +0.185 A 
ATOM     27  N   UNL     1      -2.508  -0.860  24.785  0.00  0.00    -0.154 NA
ATOM     28  C   UNL     1      -3.255  -1.076  24.510  0.00  0.00    +0.247 C 
ATOM     29  O   UNL     1      -3.793  -0.497  24.275  0.00  0.00    -0.273 OA
ATOM     34  N   UNL     1      -2.776   0.575  24.611  0.00  0.00    -0.227 NA
ENDROOT
BRANCH  28  30
ATOM     30  C   UNL     1      -3.464  -1.873  24.470  0.00  0.00    +0.079 C 
ATOM     31  C   UNL     1      -3.983  -2.318  24.007  0.00  0.00    +0.009 C 
ATOM     32  C   UNL     1      -3.760  -3.001  24.413  0.00  0.00    +0.001 C 
ATOM     33  C   UNL     1      -3.242  -2.557  24.876  0.00  0.00    +0.009 C 
ENDBRANCH  28  30
BRANCH   2   3
ATOM      3  C   UNL     1      -0.258   2.352  25.486  0.00  0.00    +0.184 C 
ATOM      4  O   UNL     1       0.507   2.429  25.787  0.00  0.00    -0.220 OA
ENDBRANCH   2   3
BRANCH  11  12
ATOM     12  C   UNL     1      -3.279   2.273  24.333  0.00  0.00    +0.093 C 
BRANCH  12  13
ATOM     13  C   UNL     1      -3.940   2.257  24.829  0.00  0.00    +0.248 C 
ATOM     14  O   UNL     1      -3.848   2.367  25.641  0.00  0.00    -0.273 OA
ATOM     15  N   UNL     1      -4.690   2.131  24.511  0.00  0.00    -0.154 NA
ATOM     16  C   UNL     1      -5.350   2.114  25.005  0.00  0.00    +0.186 A 
ATOM     17  N   UNL     1      -5.344   2.215  25.825  0.00  0.00    -0.221 NA
ATOM     18  C   UNL     1      -6.122   2.157  26.094  0.00  0.00    +0.108 A 
ATOM     19  C   UNL     1      -6.608   2.021  25.441  0.00  0.00    +0.059 A 
ATOM     20  S   UNL     1      -6.131   1.995  24.768  0.00  0.00    -0.049 S 
ENDBRANCH  12  13
ENDBRANCH  11  12
TORSDOF 4
ENDMDL
MODEL 6
REMARK VINA RESULT:     -12.6      1.818      3.710
REMARK  Name = 
REMARK  4 active torsions:
REMARK  status: ('A' for Active; 'I' for Inactive)
REMARK    1  A    between atoms: C_2  and  C_3
REMARK    2  A    between atoms: C_11  and  C_12
REMARK    3  A    between atoms: C_12  and  C_13
REMARK    4  A    between atoms: C_28  and  C_30
REMARK                            x       y       z     vdW  Elec       q    Type
REMARK                         _______ _______ _______ _____ _____    ______ ____
ROOT
ATOM      1  C   UNL     1      -4.120  -2.042  24.420  0.00  0.00    +0.005 C 
ATOM      2  C   UNL     1      -3.433  -1.592  24.495  0.00  0.00    +0.059 C 
ATOM      5  C   UNL     1      -3.106  -2.348  24.463  0.00  0.00    +0.154 C 
ATOM      6  O   UNL     1      -3.596  -3.007  24.385  0.00  0.00    -0.223 OA
ATOM      7  C   UNL     1      -2.287  -2.446  24.507  0.00  0.00    +0.033 C 
ATOM      8  C   UNL     1      -1.797  -1.788  24.585  0.00  0.00    +0.003 C 
ATOM      9  C   UNL     1      -2.124  -1.032  24.617  0.00  0.00    +0.006 C 
ATOM     10  C   UNL     1      -1.307  -1.129  24.662  0.00  0.00    +0.000 C 
ATOM     11  C   UNL     1      -1.634  -0.372  24.694  0.00  0.00    +0.050 C 
ATOM     21  C   UNL     1      -1.961   0.384  24.727  0.00  0.00    +0.063 A 
ATOM     22  C   UNL     1      -2.780   0.482  24.682  0.00  0.00    +0.023 A 
ATOM     23  C   UNL     1      -3.270  -0.177  24.605  0.00  0.00    +0.034 C 
ATOM     24  C   UNL     1      -2.943  -0.934  24.572  0.00  0.00    +0.010 C 
ATOM     25  S   UNL     1      -2.942   1.289  24.729  0.00  0.00    -0.054 S 
ATOM     26  C   UNL     1      -2.225   1.691  24.802  0.00  0.00    +0.185 A 
ATOM     27  N   UNL     1      -2.131   2.508  24.865  0.00  0.00    -0.154 NA
ATOM     28  C   UNL     1      -1.376   2.831  24.936  0.00  0.00    +0.247 C 
ATOM     29  O   UNL     1      -0.714   2.339  24.943  0.00  0.00    -0.273 OA
ATOM     34  N   UNL     1      -1.619   1.131  24.801  0.00  0.00    -0.227 NA
ENDROOT
BRANCH  28  30
ATOM     30  C   UNL     1      -1.282   3.649  24.999  0.00  0.00    +0.079 C 
ATOM     31  C   UNL     1      -0.740   4.198  24.706  0.00  0.00    +0.009 C 
ATOM     32  C   UNL     1      -1.149   4.804  25.089  0.00  0.00    +0.001 C 
ATOM     33  C   UNL     1      -1.690   4.255  25.382  0.00  0.00    +0.009 C 
ENDBRANCH  28  30
BRANCH   2   3
ATOM      3  C   UNL     1      -3.999  -0.992  24.502  0.00  0.00    +0.184 C 
ATOM      4  O   UNL     1      -4.785  -1.164  24.317  0.00  0.00    -0.220 OA
ENDBRANCH   2   3
BRANCH  11  12
ATOM     12  C   UNL     1      -0.816  -0.470  24.739  0.00  0.00    +0.093 C 
BRANCH  12  13
ATOM     13  C   UNL     1      -0.348  -0.349  24.069  0.00  0.00    +0.248 C 
ATOM     14  O   UNL     1      -0.700  -0.302  23.325  0.00  0.00    -0.273 OA
ATOM     15  N   UNL     1       0.469  -0.275  24.145  0.00  0.00    -0.154 NA
ATOM     16  C   UNL     1       0.936  -0.154  23.476  0.00  0.00    +0.186 A 
ATOM     17  N   UNL     1       0.664  -0.096  22.699  0.00  0.00    -0.221 NA
ATOM     18  C   UNL     1       1.317   0.024  22.209  0.00  0.00    +0.108 A 
ATOM     19  C   UNL     1       1.993   0.040  22.684  0.00  0.00    +0.059 A 
ATOM     20  S   UNL     1       1.758  -0.070  23.467  0.00  0.00    -0.049 S 
ENDBRANCH  12  13
ENDBRANCH  11  12
TORSDOF 4
ENDMDL
