MODEL 1
REMARK VINA RESULT:     -12.9      0.000      0.000
REMARK  Name = 
REMARK  6 active torsions:
REMARK  status: ('A' for Active; 'I' for Inactive)
REMARK    1  A    between atoms: C_2  and  C_3
REMARK    2  A    between atoms: C_6  and  C_7
REMARK    3  A    between atoms: C_7  and  N_8
REMARK    4  A    between atoms: C_13  and  C_14
REMARK    5  A    between atoms: C_16  and  C_19
REMARK    6  A    between atoms: C_22  and  C_25
REMARK                            x       y       z     vdW  Elec       q    Type
REMARK                         _______ _______ _______ _____ _____    ______ ____
ROOT
ATOM     14  C   UNL     1      -4.067   1.536  24.436  0.00  0.00    +0.251 A 
ATOM     15  N   UNL     1      -4.092   0.794  24.793  0.00  0.00    -0.190 NA
ATOM     16  C   UNL     1      -3.847   0.235  24.238  0.00  0.00    +0.203 A 
ATOM     17  N   UNL     1      -3.672   0.632  23.537  0.00  0.00    -0.056 NA
ATOM     18  O   UNL     1      -3.807   1.437  23.659  0.00  0.00    -0.336 OA
ENDROOT
BRANCH  14  13
ATOM      8  N   UNL     1      -3.738   2.839  25.034  0.00  0.00    -0.258 NA
ATOM      9  C   UNL     1      -4.175   3.457  25.361  0.00  0.00    +0.106 C 
ATOM     10  C   UNL     1      -4.973   3.254  25.323  0.00  0.00    +0.170 C 
ATOM     11  O   UNL     1      -5.605   3.714  25.589  0.00  0.00    -0.222 OA
ATOM     12  C   UNL     1      -5.031   2.510  24.972  0.00  0.00    +0.060 C 
ATOM     13  C   UNL     1      -4.267   2.253  24.793  0.00  0.00    +0.141 C 
BRANCH   8   7
ATOM      7  C   UNL     1      -2.918   2.811  24.960  0.00  0.00    +0.138 C 
BRANCH   7   6
ATOM      3  C   UNL     1      -1.768   4.585  25.257  0.00  0.00    +0.156 A 
ATOM      4  C   UNL     1      -1.730   4.243  26.006  0.00  0.00    +0.038 A 
ATOM      5  C   UNL     1      -2.156   3.537  25.987  0.00  0.00    +0.037 A 
ATOM      6  C   UNL     1      -2.457   3.443  25.224  0.00  0.00    +0.139 A 
ATOM     29  O   UNL     1      -2.217   4.091  24.774  0.00  0.00    -0.458 OA
BRANCH   3   2
ATOM      1  O   UNL     1      -0.634   5.308  24.773  0.00  0.00    -0.212 OA
ATOM      2  C   UNL     1      -1.418   5.297  25.031  0.00  0.00    +0.246 C 
ENDBRANCH   3   2
ENDBRANCH   7   6
ENDBRANCH   8   7
ENDBRANCH  14  13
BRANCH  16  19
ATOM     19  C   UNL     1      -3.789  -0.578  24.361  0.00  0.00    +0.039 A 
ATOM     20  C   UNL     1      -3.276  -0.873  24.937  0.00  0.00    +0.003 A 
ATOM     21  C   UNL     1      -3.218  -1.686  25.060  0.00  0.00    +0.004 A 
ATOM     22  C   UNL     1      -3.672  -2.206  24.608  0.00  0.00    +0.071 A 
ATOM     23  C   UNL     1      -4.185  -1.912  24.033  0.00  0.00    +0.004 A 
ATOM     24  C   UNL     1      -4.243  -1.098  23.909  0.00  0.00    +0.003 A 
BRANCH  22  25
ATOM     25  C   UNL     1      -3.614  -3.020  24.732  0.00  0.00    +0.419 C 
ATOM     26  F   UNL     1      -3.555  -3.833  24.855  0.00  0.00    -0.166 F 
ATOM     27  F   UNL     1      -3.609  -2.895  25.547  0.00  0.00    -0.166 F 
ATOM     28  F   UNL     1      -3.619  -3.144  23.916  0.00  0.00    -0.166 F 
ENDBRANCH  22  25
ENDBRANCH  16  19
TORSDOF 6
ENDMDL
MODEL 2
REMARK VINA RESULT:     -11.8      1.987      2.851
REMARK  Name = 
REMARK  6 active torsions:
REMARK  status: ('A' for Active; 'I' for Inactive)
REMARK    1  A    between atoms: C_2  and  C_3
REMARK    2  A    between atoms: C_6  and  C_7
REMARK    3  A    between atoms: C_7  and  N_8
REMARK    4  A    between atoms: C_13  and  C_14
REMARK    5  A    between atoms: C_16  and  C_19
REMARK    6  A    between atoms: C_22  and  C_25
REMARK                            x       y       z     vdW  Elec       q    Type
REMARK                         _______ _______ _______ _____ _____    ______ ____
ROOT
ATOM     14  C   UNL     1      -1.094   0.472  25.208  0.00  0.00    +0.251 A 
ATOM     15  N   UNL     1      -1.629   0.085  24.714  0.00  0.00    -0.190 NA
ATOM     16  C   UNL     1      -1.948  -0.550  25.133  0.00  0.00    +0.203 A 
ATOM     17  N   UNL     1      -1.611  -0.556  25.885  0.00  0.00    -0.056 NA
ATOM     18  O   UNL     1      -1.082   0.077  25.932  0.00  0.00    -0.336 OA
ENDROOT
BRANCH  14  13
ATOM      8  N   UNL     1      -0.816   1.916  25.232  0.00  0.00    -0.258 NA
ATOM      9  C   UNL     1      -0.229   2.402  24.918  0.00  0.00    +0.106 C 
ATOM     10  C   UNL     1       0.302   1.926  24.504  0.00  0.00    +0.170 C 
ATOM     11  O   UNL     1       0.974   2.185  24.101  0.00  0.00    -0.222 OA
ATOM     12  C   UNL     1       0.043   1.145  24.561  0.00  0.00    +0.060 C 
ATOM     13  C   UNL     1      -0.648   1.139  25.012  0.00  0.00    +0.141 C 
BRANCH   8   7
ATOM      7  C   UNL     1      -1.458   2.163  25.687  0.00  0.00    +0.138 C 
BRANCH   7   6
ATOM      3  C   UNL     1      -2.676   3.760  24.965  0.00  0.00    +0.156 A 
ATOM      4  C   UNL     1      -2.194   4.158  25.503  0.00  0.00    +0.038 A 
ATOM      5  C   UNL     1      -1.679   3.609  25.839  0.00  0.00    +0.037 A 
ATOM      6  C   UNL     1      -1.843   2.870  25.508  0.00  0.00    +0.139 A 
ATOM     29  O   UNL     1      -2.459   2.965  24.968  0.00  0.00    -0.458 OA
BRANCH   3   2
ATOM      1  O   UNL     1      -4.063   3.914  24.651  0.00  0.00    -0.212 OA
ATOM      2  C   UNL     1      -3.271   4.099  24.505  0.00  0.00    +0.246 C 
ENDBRANCH   3   2
ENDBRANCH   7   6
ENDBRANCH   8   7
ENDBRANCH  14  13
BRANCH  16  19
ATOM     19  C   UNL     1      -2.508  -1.086  24.849  0.00  0.00    +0.039 A 
ATOM     20  C   UNL     1      -2.277  -1.848  24.633  0.00  0.00    +0.003 A 
ATOM     21  C   UNL     1      -2.836  -2.384  24.349  0.00  0.00    +0.004 A 
ATOM     22  C   UNL     1      -3.627  -2.158  24.281  0.00  0.00    +0.071 A 
ATOM     23  C   UNL     1      -3.858  -1.396  24.496  0.00  0.00    +0.004 A 
ATOM     24  C   UNL     1      -3.298  -0.860  24.780  0.00  0.00    +0.003 A 
BRANCH  22  25
ATOM     25  C   UNL     1      -4.186  -2.694  23.997  0.00  0.00    +0.419 C 
ATOM     26  F   UNL     1      -4.745  -3.230  23.713  0.00  0.00    -0.166 F 
ATOM     27  F   UNL     1      -3.927  -3.254  24.544  0.00  0.00    -0.166 F 
ATOM     28  F   UNL     1      -4.445  -2.133  23.450  0.00  0.00    -0.166 F 
ENDBRANCH  22  25
ENDBRANCH  16  19
TORSDOF 6
ENDMDL
MODEL 3
REMARK VINA RESULT:     -11.6      3.614      6.188
REMARK  Name = 
REMARK  6 active torsions:
REMARK  status: ('A' for Active; 'I' for Inactive)
REMARK    1  A    between atoms: C_2  and  C_3
REMARK    2  A    between atoms: C_6  and  C_7
REMARK    3  A    between atoms: C_7  and  N_8
REMARK    4  A    between atoms: C_13  and  C_14
REMARK    5  A    between atoms: C_16  and  C_19
REMARK    6  A    between atoms: C_22  and  C_25
REMARK                            x       y       z     vdW  Elec       q    Type
REMARK                         _______ _______ _______ _____ _____    ______ ____
ROOT
ATOM     14  C   UNL     1      -0.764   0.985  25.301  0.00  0.00    +0.251 A 
ATOM     15  N   UNL     1      -0.975   1.701  24.950  0.00  0.00    -0.190 NA
ATOM     16  C   UNL     1      -0.895   2.296  25.515  0.00  0.00    +0.203 A 
ATOM     17  N   UNL     1      -0.634   1.949  26.216  0.00  0.00    -0.056 NA
ATOM     18  O   UNL     1      -0.553   1.138  26.084  0.00  0.00    -0.336 OA
ENDROOT
BRANCH  14  13
ATOM      8  N   UNL     1      -1.377  -0.306  24.956  0.00  0.00    -0.258 NA
ATOM      9  C   UNL     1      -1.143  -0.963  24.516  0.00  0.00    +0.106 C 
ATOM     10  C   UNL     1      -0.386  -0.817  24.222  0.00  0.00    +0.170 C 
ATOM     11  O   UNL     1       0.059  -1.330  23.752  0.00  0.00    -0.222 OA
ATOM     12  C   UNL     1      -0.152  -0.070  24.480  0.00  0.00    +0.060 C 
ATOM     13  C   UNL     1      -0.764   0.246  24.934  0.00  0.00    +0.141 C 
BRANCH   8   7
ATOM      7  C   UNL     1      -2.096  -0.217  25.348  0.00  0.00    +0.138 C 
BRANCH   7   6
ATOM      3  C   UNL     1      -3.755  -1.320  24.583  0.00  0.00    +0.156 A 
ATOM      4  C   UNL     1      -3.616  -1.714  25.294  0.00  0.00    +0.038 A 
ATOM      5  C   UNL     1      -2.978  -1.349  25.667  0.00  0.00    +0.037 A 
ATOM      6  C   UNL     1      -2.722  -0.728  25.186  0.00  0.00    +0.139 A 
ATOM     29  O   UNL     1      -3.203  -0.712  24.517  0.00  0.00    -0.458 OA
BRANCH   3   2
ATOM      1  O   UNL     1      -4.371  -2.255  23.694  0.00  0.00    -0.212 OA
ATOM      2  C   UNL     1      -4.343  -1.503  24.034  0.00  0.00    +0.246 C 
ENDBRANCH   3   2
ENDBRANCH   7   6
ENDBRANCH   8   7
ENDBRANCH  14  13
BRANCH  16  19
ATOM     19  C   UNL     1      -1.048   3.098  25.400  0.00  0.00    +0.039 A 
ATOM     20  C   UNL     1      -1.710   3.446  25.748  0.00  0.00    +0.003 A 
ATOM     21  C   UNL     1      -1.864   4.248  25.633  0.00  0.00    +0.004 A 
ATOM     22  C   UNL     1      -1.355   4.704  25.169  0.00  0.00    +0.071 A 
ATOM     23  C   UNL     1      -0.693   4.356  24.821  0.00  0.00    +0.004 A 
ATOM     24  C   UNL     1      -0.540   3.553  24.936  0.00  0.00    +0.003 A 
BRANCH  22  25
ATOM     25  C   UNL     1      -1.509   5.506  25.054  0.00  0.00    +0.419 C 
ATOM     26  F   UNL     1      -1.662   6.308  24.939  0.00  0.00    -0.166 F 
ATOM     27  F   UNL     1      -0.698   5.660  25.046  0.00  0.00    -0.166 F 
ATOM     28  F   UNL     1      -2.319   5.352  25.062  0.00  0.00    -0.166 F 
ENDBRANCH  22  25
ENDBRANCH  16  19
TORSDOF 6
ENDMDL
MODEL 4
REMARK VINA RESULT:     -11.2      2.922      4.613
REMARK  Name = 
REMARK  6 active torsions:
REMARK  status: ('A' for Active; 'I' for Inactive)
REMARK    1  A    between atoms: C_2  and  C_3
REMARK    2  A    between atoms: C_6  and  C_7
REMARK    3  A    between atoms: C_7  and  N_8
REMARK    4  A    between atoms: C_13  and  C_14
REMARK    5  A    between atoms: C_16  and  C_19
REMARK    6  A    between atoms: C_22  and  C_25
REMARK                            x       y       z     vdW  Elec       q    Type
REMARK                         _______ _______ _______ _____ _____    ______ ____
ROOT
ATOM     14  C   UNL     1      -1.842   2.624  24.879  0.00  0.00    +0.251 A 
ATOM     15  N   UNL     1      -2.533   2.286  25.174  0.00  0.00    -0.190 NA
ATOM     16  C   UNL     1      -3.171   2.614  24.767  0.00  0.00    +0.203 A 
ATOM     17  N   UNL     1      -2.874   3.154  24.219  0.00  0.00    -0.056 NA
ATOM     18  O   UNL     1      -2.052   3.160  24.289  0.00  0.00    -0.336 OA
ENDROOT
BRANCH  14  13
ATOM      8  N   UNL     1      -0.560   1.909  24.784  0.00  0.00    -0.258 NA
ATOM      9  C   UNL     1       0.145   1.918  25.211  0.00  0.00    +0.106 C 
ATOM     10  C   UNL     1       0.068   2.468  25.820  0.00  0.00    +0.170 C 
ATOM     11  O   UNL     1       0.643   2.654  26.382  0.00  0.00    -0.222 OA
ATOM     12  C   UNL     1      -0.686   2.799  25.771  0.00  0.00    +0.060 C 
ATOM     13  C   UNL     1      -1.074   2.454  25.130  0.00  0.00    +0.141 C 
BRANCH   8   7
ATOM      7  C   UNL     1      -0.723   1.439  24.127  0.00  0.00    +0.138 C 
BRANCH   7   6
ATOM      3  C   UNL     1      -0.416  -0.664  24.333  0.00  0.00    +0.156 A 
ATOM      4  C   UNL     1       0.213  -0.458  23.840  0.00  0.00    +0.038 A 
ATOM      5  C   UNL     1       0.174   0.354  23.703  0.00  0.00    +0.037 A 
ATOM      6  C   UNL     1      -0.479   0.651  24.112  0.00  0.00    +0.139 A 
ATOM     29  O   UNL     1      -0.843   0.022  24.500  0.00  0.00    -0.458 OA
BRANCH   3   2
ATOM      1  O   UNL     1      -0.340  -1.652  25.363  0.00  0.00    -0.212 OA
ATOM      2  C   UNL     1      -0.587  -1.422  24.610  0.00  0.00    +0.246 C 
ENDBRANCH   3   2
ENDBRANCH   7   6
ENDBRANCH   8   7
ENDBRANCH  14  13
BRANCH  16  19
ATOM     19  C   UNL     1      -3.968   2.433  24.886  0.00  0.00    +0.039 A 
ATOM     20  C   UNL     1      -4.248   1.675  24.721  0.00  0.00    +0.003 A 
ATOM     21  C   UNL     1      -5.044   1.495  24.840  0.00  0.00    +0.004 A 
ATOM     22  C   UNL     1      -5.561   2.073  25.124  0.00  0.00    +0.071 A 
ATOM     23  C   UNL     1      -5.280   2.831  25.288  0.00  0.00    +0.004 A 
ATOM     24  C   UNL     1      -4.484   3.011  25.169  0.00  0.00    +0.003 A 
BRANCH  22  25
ATOM     25  C   UNL     1      -6.357   1.892  25.242  0.00  0.00    +0.419 C 
ATOM     26  F   UNL     1      -7.153   1.711  25.361  0.00  0.00    -0.166 F 
ATOM     27  F   UNL     1      -6.489   1.941  24.430  0.00  0.00    -0.166 F 
ATOM     28  F   UNL     1      -6.224   1.843  26.055  0.00  0.00    -0.166 F 
ENDBRANCH  22  25
ENDBRANCH  16  19
TORSDOF 6
ENDMDL
