MODEL 1
REMARK VINA RESULT:      -9.0      0.000      0.000
REMARK  Name = 
REMARK  6 active torsions:
REMARK  status: ('A' for Active; 'I' for Inactive)
REMARK    1  A    between atoms: C_3  and  N_18
REMARK    2  A    between atoms: C_6  and  C_7
REMARK    3  A    between atoms: C_7  and  N_8
REMARK    4  A    between atoms: C_9  and  C_11
REMARK    5  A    between atoms: N_18  and  C_19
REMARK    6  A    between atoms: C_19  and  C_20
REMARK                            x       y       z     vdW  Elec       q    Type
REMARK                         _______ _______ _______ _____ _____    ______ ____
ROOT
ATOM      1  O   UNL     1      -3.903   2.616  24.538  0.00  0.00    -0.219 OA
ATOM      2  C   UNL     1      -3.218   2.201  24.736  0.00  0.00    +0.199 C 
ATOM      3  C   UNL     1      -2.481   2.533  24.902  0.00  0.00    +0.136 C 
ATOM      4  C   UNL     1      -1.958   1.919  25.072  0.00  0.00    +0.162 C 
ATOM      5  O   UNL     1      -2.371   1.207  25.011  0.00  0.00    -0.350 OA
ATOM      6  C   UNL     1      -3.149   1.382  24.803  0.00  0.00    +0.169 C 
ENDROOT
BRANCH   6   7
ATOM      7  C   UNL     1      -3.754   0.833  24.684  0.00  0.00    +0.148 C 
BRANCH   7   8
ATOM      8  N   UNL     1      -3.576   0.030  24.624  0.00  0.00    -0.199 NA
ATOM      9  C   UNL     1      -4.185  -0.525  24.579  0.00  0.00    +0.265 C 
ATOM     10  O   UNL     1      -4.971  -0.276  24.593  0.00  0.00    -0.268 OA
BRANCH   9  11
ATOM     11  C   UNL     1      -4.007  -1.328  24.519  0.00  0.00    +0.055 A 
ATOM     12  C   UNL     1      -3.610  -1.710  25.133  0.00  0.00    +0.007 A 
ATOM     13  C   UNL     1      -3.432  -2.513  25.073  0.00  0.00    +0.030 A 
ATOM     14  C   UNL     1      -3.651  -2.935  24.399  0.00  0.00    +0.140 A 
ATOM     15  F   UNL     1      -3.473  -3.738  24.340  0.00  0.00    -0.204 F 
ATOM     16  C   UNL     1      -4.048  -2.554  23.785  0.00  0.00    +0.030 A 
ATOM     17  C   UNL     1      -4.226  -1.751  23.844  0.00  0.00    +0.007 A 
ENDBRANCH   9  11
ENDBRANCH   7   8
ENDBRANCH   6   7
BRANCH   3  18
ATOM     18  N   UNL     1      -2.300   3.338  24.899  0.00  0.00    -0.206 NA
BRANCH  18  19
ATOM     19  C   UNL     1      -1.579   3.599  25.204  0.00  0.00    +0.154 C 
BRANCH  19  20
ATOM     20  C   UNL     1      -1.337   4.379  25.079  0.00  0.00    +0.157 A 
ATOM     21  N   UNL     1      -0.622   4.616  24.744  0.00  0.00    -0.226 NA
ATOM     22  C   UNL     1      -0.610   5.441  24.725  0.00  0.00    +0.121 A 
ATOM     23  C   UNL     1      -1.319   5.713  25.049  0.00  0.00    +0.121 A 
ATOM     24  N   UNL     1      -1.768   5.056  25.268  0.00  0.00    -0.226 NA
ENDBRANCH  19  20
ENDBRANCH  18  19
ENDBRANCH   3  18
TORSDOF 6
ENDMDL
MODEL 2
REMARK VINA RESULT:      -8.6      2.428      6.185
REMARK  Name = 
REMARK  6 active torsions:
REMARK  status: ('A' for Active; 'I' for Inactive)
REMARK    1  A    between atoms: C_3  and  N_18
REMARK    2  A    between atoms: C_6  and  C_7
REMARK    3  A    between atoms: C_7  and  N_8
REMARK    4  A    between atoms: C_9  and  C_11
REMARK    5  A    between atoms: N_18  and  C_19
REMARK    6  A    between atoms: C_19  and  C_20
REMARK                            x       y       z     vdW  Elec       q    Type
REMARK                         _______ _______ _______ _____ _____    ______ ____
ROOT
ATOM      1  O   UNL     1      -1.167  -0.149  25.362  0.00  0.00    -0.219 OA
ATOM      2  C   UNL     1      -1.851   0.255  25.139  0.00  0.00    +0.199 C 
ATOM      3  C   UNL     1      -2.553  -0.088  24.875  0.00  0.00    +0.136 C 
ATOM      4  C   UNL     1      -3.088   0.518  24.714  0.00  0.00    +0.162 C 
ATOM      5  O   UNL     1      -2.717   1.236  24.878  0.00  0.00    -0.350 OA
ATOM      6  C   UNL     1      -1.953   1.074  25.141  0.00  0.00    +0.169 C 
ENDROOT
BRANCH   6   7
ATOM      7  C   UNL     1      -1.389   1.632  25.365  0.00  0.00    +0.148 C 
BRANCH   7   8
ATOM      8  N   UNL     1      -1.508   2.430  25.196  0.00  0.00    -0.199 NA
ATOM      9  C   UNL     1      -1.018   3.002  25.535  0.00  0.00    +0.265 C 
ATOM     10  O   UNL     1      -0.409   2.774  26.043  0.00  0.00    -0.268 OA
BRANCH   9  11
ATOM     11  C   UNL     1      -1.138   3.800  25.366  0.00  0.00    +0.055 A 
ATOM     12  C   UNL     1      -1.804   4.189  25.658  0.00  0.00    +0.007 A 
ATOM     13  C   UNL     1      -1.923   4.988  25.489  0.00  0.00    +0.030 A 
ATOM     14  C   UNL     1      -1.377   5.397  25.028  0.00  0.00    +0.140 A 
ATOM     15  F   UNL     1      -1.496   6.196  24.858  0.00  0.00    -0.204 F 
ATOM     16  C   UNL     1      -0.710   5.009  24.735  0.00  0.00    +0.030 A 
ATOM     17  C   UNL     1      -0.591   4.211  24.904  0.00  0.00    +0.007 A 
ENDBRANCH   9  11
ENDBRANCH   7   8
ENDBRANCH   6   7
BRANCH   3  18
ATOM     18  N   UNL     1      -2.695  -0.897  24.788  0.00  0.00    -0.206 NA
BRANCH  18  19
ATOM     19  C   UNL     1      -3.470  -1.178  24.759  0.00  0.00    +0.154 C 
BRANCH  19  20
ATOM     20  C   UNL     1      -3.615  -1.964  24.553  0.00  0.00    +0.157 A 
ATOM     21  N   UNL     1      -4.030  -2.223  23.888  0.00  0.00    -0.226 NA
ATOM     22  C   UNL     1      -4.042  -3.048  23.901  0.00  0.00    +0.121 A 
ATOM     23  C   UNL     1      -3.636  -3.299  24.573  0.00  0.00    +0.121 A 
ATOM     24  N   UNL     1      -3.372  -2.629  24.977  0.00  0.00    -0.226 NA
ENDBRANCH  19  20
ENDBRANCH  18  19
ENDBRANCH   3  18
TORSDOF 6
ENDMDL
MODEL 3
REMARK VINA RESULT:      -8.5      1.835      2.102
REMARK  Name = 
REMARK  6 active torsions:
REMARK  status: ('A' for Active; 'I' for Inactive)
REMARK    1  A    between atoms: C_3  and  N_18
REMARK    2  A    between atoms: C_6  and  C_7
REMARK    3  A    between atoms: C_7  and  N_8
REMARK    4  A    between atoms: C_9  and  C_11
REMARK    5  A    between atoms: N_18  and  C_19
REMARK    6  A    between atoms: C_19  and  C_20
REMARK                            x       y       z     vdW  Elec       q    Type
REMARK                         _______ _______ _______ _____ _____    ______ ____
ROOT
ATOM      1  O   UNL     1      -0.742   1.296  26.020  0.00  0.00    -0.219 OA
ATOM      2  C   UNL     1      -0.708   1.279  25.196  0.00  0.00    +0.199 C 
ATOM      3  C   UNL     1      -0.659   1.936  24.699  0.00  0.00    +0.136 C 
ATOM      4  C   UNL     1      -0.637   1.665  23.921  0.00  0.00    +0.162 C 
ATOM      5  O   UNL     1      -0.671   0.841  23.936  0.00  0.00    -0.350 OA
ATOM      6  C   UNL     1      -0.715   0.602  24.724  0.00  0.00    +0.169 C 
ENDROOT
BRANCH   6   7
ATOM      7  C   UNL     1      -0.759  -0.176  24.994  0.00  0.00    +0.148 C 
BRANCH   7   8
ATOM      8  N   UNL     1      -1.424  -0.634  24.824  0.00  0.00    -0.199 NA
ATOM      9  C   UNL     1      -1.443  -1.430  25.042  0.00  0.00    +0.265 C 
ATOM     10  O   UNL     1      -0.798  -1.766  25.430  0.00  0.00    -0.268 OA
BRANCH   9  11
ATOM     11  C   UNL     1      -2.108  -1.888  24.873  0.00  0.00    +0.055 A 
ATOM     12  C   UNL     1      -2.830  -1.718  25.235  0.00  0.00    +0.007 A 
ATOM     13  C   UNL     1      -3.495  -2.176  25.065  0.00  0.00    +0.030 A 
ATOM     14  C   UNL     1      -3.438  -2.804  24.534  0.00  0.00    +0.140 A 
ATOM     15  F   UNL     1      -4.103  -3.262  24.364  0.00  0.00    -0.204 F 
ATOM     16  C   UNL     1      -2.716  -2.974  24.171  0.00  0.00    +0.030 A 
ATOM     17  C   UNL     1      -2.052  -2.516  24.341  0.00  0.00    +0.007 A 
ENDBRANCH   9  11
ENDBRANCH   7   8
ENDBRANCH   6   7
BRANCH   3  18
ATOM     18  N   UNL     1      -0.637   2.725  24.939  0.00  0.00    -0.206 NA
BRANCH  18  19
ATOM     19  C   UNL     1      -0.893   3.319  24.427  0.00  0.00    +0.154 C 
BRANCH  19  20
ATOM     20  C   UNL     1      -1.068   4.070  24.721  0.00  0.00    +0.157 A 
ATOM     21  N   UNL     1      -1.768   4.292  25.098  0.00  0.00    -0.226 NA
ATOM     22  C   UNL     1      -1.707   5.090  25.300  0.00  0.00    +0.121 A 
ATOM     23  C   UNL     1      -0.969   5.360  25.048  0.00  0.00    +0.121 A 
ATOM     24  N   UNL     1      -0.574   4.729  24.691  0.00  0.00    -0.226 NA
ENDBRANCH  19  20
ENDBRANCH  18  19
ENDBRANCH   3  18
TORSDOF 6
ENDMDL
MODEL 4
REMARK VINA RESULT:      -7.8      3.128      4.450
REMARK  Name = 
REMARK  6 active torsions:
REMARK  status: ('A' for Active; 'I' for Inactive)
REMARK    1  A    between atoms: C_3  and  N_18
REMARK    2  A    between atoms: C_6  and  C_7
REMARK    3  A    between atoms: C_7  and  N_8
REMARK    4  A    between atoms: C_9  and  C_11
REMARK    5  A    between atoms: N_18  and  C_19
REMARK    6  A    between atoms: C_19  and  C_20
REMARK                            x       y       z     vdW  Elec       q    Type
REMARK                         _______ _______ _______ _____ _____    ______ ____
ROOT
ATOM      1  O   UNL     1      -0.677   2.605  23.855  0.00  0.00    -0.219 OA
ATOM      2  C   UNL     1      -0.930   1.906  24.213  0.00  0.00    +0.199 C 
ATOM      3  C   UNL     1      -0.536   1.182  24.197  0.00  0.00    +0.136 C 
ATOM      4  C   UNL     1      -0.984   0.638  24.624  0.00  0.00    +0.162 C 
ATOM      5  O   UNL     1      -1.656   1.026  24.905  0.00  0.00    -0.350 OA
ATOM      6  C   UNL     1      -1.623   1.809  24.651  0.00  0.00    +0.169 C 
ENDROOT
BRANCH   6   7
ATOM      7  C   UNL     1      -2.184   2.394  24.807  0.00  0.00    +0.148 C 
BRANCH   7   8
ATOM      8  N   UNL     1      -2.976   2.188  24.908  0.00  0.00    -0.199 NA
ATOM      9  C   UNL     1      -3.548   2.777  24.990  0.00  0.00    +0.265 C 
ATOM     10  O   UNL     1      -3.327   3.572  24.971  0.00  0.00    -0.268 OA
BRANCH   9  11
ATOM     11  C   UNL     1      -4.341   2.571  25.091  0.00  0.00    +0.055 A 
ATOM     12  C   UNL     1      -4.766   2.869  25.733  0.00  0.00    +0.007 A 
ATOM     13  C   UNL     1      -5.558   2.663  25.834  0.00  0.00    +0.030 A 
ATOM     14  C   UNL     1      -5.926   2.160  25.294  0.00  0.00    +0.140 A 
ATOM     15  F   UNL     1      -6.718   1.954  25.395  0.00  0.00    -0.204 F 
ATOM     16  C   UNL     1      -5.501   1.862  24.652  0.00  0.00    +0.030 A 
ATOM     17  C   UNL     1      -4.709   2.068  24.551  0.00  0.00    +0.007 A 
ENDBRANCH   9  11
ENDBRANCH   7   8
ENDBRANCH   6   7
BRANCH   3  18
ATOM     18  N   UNL     1       0.182   1.030  23.820  0.00  0.00    -0.206 NA
BRANCH  18  19
ATOM     19  C   UNL     1       0.354   0.268  23.555  0.00  0.00    +0.154 C 
BRANCH  19  20
ATOM     20  C   UNL     1       1.018   0.136  23.082  0.00  0.00    +0.157 A 
ATOM     21  N   UNL     1       1.024  -0.248  22.351  0.00  0.00    -0.226 NA
ATOM     22  C   UNL     1       1.802  -0.256  22.074  0.00  0.00    +0.121 A 
ATOM     23  C   UNL     1       2.276   0.122  22.634  0.00  0.00    +0.121 A 
ATOM     24  N   UNL     1       1.791   0.364  23.257  0.00  0.00    -0.226 NA
ENDBRANCH  19  20
ENDBRANCH  18  19
ENDBRANCH   3  18
TORSDOF 6
ENDMDL
MODEL 5
REMARK VINA RESULT:      -7.7      3.468      4.013
REMARK  Name = 
REMARK  6 active torsions:
REMARK  status: ('A' for Active; 'I' for Inactive)
REMARK    1  A    between atoms: C_3  and  N_18
REMARK    2  A    between atoms: C_6  and  C_7
REMARK    3  A    between atoms: C_7  and  N_8
REMARK    4  A    between atoms: C_9  and  C_11
REMARK    5  A    between atoms: N_18  and  C_19
REMARK    6  A    between atoms: C_19  and  C_20
REMARK                            x       y       z     vdW  Elec       q    Type
REMARK                         _______ _______ _______ _____ _____    ______ ____
ROOT
ATOM      1  O   UNL     1       0.364  -1.121  24.339  0.00  0.00    -0.219 OA
ATOM      2  C   UNL     1       0.062  -0.389  24.110  0.00  0.00    +0.199 C 
ATOM      3  C   UNL     1       0.439   0.161  23.624  0.00  0.00    +0.136 C 
ATOM      4  C   UNL     1      -0.060   0.812  23.540  0.00  0.00    +0.162 C 
ATOM      5  O   UNL     1      -0.745   0.665  23.976  0.00  0.00    -0.350 OA
ATOM      6  C   UNL     1      -0.670  -0.076  24.328  0.00  0.00    +0.169 C 
ENDROOT
BRANCH   6   7
ATOM      7  C   UNL     1      -1.228  -0.442  24.813  0.00  0.00    +0.148 C 
BRANCH   7   8
ATOM      8  N   UNL     1      -1.858  -0.856  24.477  0.00  0.00    -0.199 NA
ATOM      9  C   UNL     1      -2.481  -1.116  24.952  0.00  0.00    +0.265 C 
ATOM     10  O   UNL     1      -2.473  -0.961  25.762  0.00  0.00    -0.268 OA
BRANCH   9  11
ATOM     11  C   UNL     1      -3.110  -1.530  24.616  0.00  0.00    +0.055 A 
ATOM     12  C   UNL     1      -3.115  -2.355  24.628  0.00  0.00    +0.007 A 
ATOM     13  C   UNL     1      -3.744  -2.769  24.292  0.00  0.00    +0.030 A 
ATOM     14  C   UNL     1      -4.369  -2.358  23.944  0.00  0.00    +0.140 A 
ATOM     15  F   UNL     1      -4.998  -2.773  23.608  0.00  0.00    -0.204 F 
ATOM     16  C   UNL     1      -4.365  -1.533  23.931  0.00  0.00    +0.030 A 
ATOM     17  C   UNL     1      -3.735  -1.119  24.267  0.00  0.00    +0.007 A 
ENDBRANCH   9  11
ENDBRANCH   7   8
ENDBRANCH   6   7
BRANCH   3  18
ATOM     18  N   UNL     1       1.184   0.073  23.280  0.00  0.00    -0.206 NA
BRANCH  18  19
ATOM     19  C   UNL     1       1.653   0.737  23.140  0.00  0.00    +0.154 C 
BRANCH  19  20
ATOM     20  C   UNL     1       2.430   0.645  22.877  0.00  0.00    +0.157 A 
ATOM     21  N   UNL     1       2.688   0.113  22.301  0.00  0.00    -0.226 NA
ATOM     22  C   UNL     1       3.502   0.207  22.213  0.00  0.00    +0.121 A 
ATOM     23  C   UNL     1       3.749   0.798  22.734  0.00  0.00    +0.121 A 
ATOM     24  N   UNL     1       3.086   1.068  23.145  0.00  0.00    -0.226 NA
ENDBRANCH  19  20
ENDBRANCH  18  19
ENDBRANCH   3  18
TORSDOF 6
ENDMDL
MODEL 6
REMARK VINA RESULT:      -6.5     15.839     18.474
REMARK  Name = 
REMARK  6 active torsions:
REMARK  status: ('A' for Active; 'I' for Inactive)
REMARK    1  A    between atoms: C_3  and  N_18
REMARK    2  A    between atoms: C_6  and  C_7
REMARK    3  A    between atoms: C_7  and  N_8
REMARK    4  A    between atoms: C_9  and  C_11
REMARK    5  A    between atoms: N_18  and  C_19
REMARK    6  A    between atoms: C_19  and  C_20
REMARK                            x       y       z     vdW  Elec       q    Type
REMARK                         _______ _______ _______ _____ _____    ______ ____
ROOT
ATOM      1  O   UNL     1      13.328   6.371  19.423  0.00  0.00    -0.219 OA
ATOM      2  C   UNL     1      13.581   7.136  19.249  0.00  0.00    +0.199 C 
ATOM      3  C   UNL     1      14.350   7.361  19.052  0.00  0.00    +0.136 C 
ATOM      4  C   UNL     1      14.353   8.175  18.923  0.00  0.00    +0.162 C 
ATOM      5  O   UNL     1      13.585   8.454  19.039  0.00  0.00    -0.350 OA
ATOM      6  C   UNL     1      13.108   7.813  19.241  0.00  0.00    +0.169 C 
ENDROOT
BRANCH   6   7
ATOM      7  C   UNL     1      12.301   7.842  19.405  0.00  0.00    +0.148 C 
BRANCH   7   8
ATOM      8  N   UNL     1      12.041   7.947  20.181  0.00  0.00    -0.199 NA
ATOM      9  C   UNL     1      11.253   8.141  20.330  0.00  0.00    +0.265 C 
ATOM     10  O   UNL     1      10.725   8.230  19.703  0.00  0.00    -0.268 OA
BRANCH   9  11
ATOM     11  C   UNL     1      10.994   8.247  21.106  0.00  0.00    +0.055 A 
ATOM     12  C   UNL     1      11.049   8.988  21.463  0.00  0.00    +0.007 A 
ATOM     13  C   UNL     1      10.790   9.094  22.239  0.00  0.00    +0.030 A 
ATOM     14  C   UNL     1      10.476   8.457  22.658  0.00  0.00    +0.140 A 
ATOM     15  F   UNL     1      10.216   8.562  23.434  0.00  0.00    -0.204 F 
ATOM     16  C   UNL     1      10.421   7.715  22.302  0.00  0.00    +0.030 A 
ATOM     17  C   UNL     1      10.680   7.610  21.526  0.00  0.00    +0.007 A 
ENDBRANCH   9  11
ENDBRANCH   7   8
ENDBRANCH   6   7
BRANCH   3  18
ATOM     18  N   UNL     1      15.002   6.858  18.996  0.00  0.00    -0.206 NA
BRANCH  18  19
ATOM     19  C   UNL     1      15.755   7.137  19.183  0.00  0.00    +0.154 C 
BRANCH  19  20
ATOM     20  C   UNL     1      16.385   6.609  19.252  0.00  0.00    +0.157 A 
ATOM     21  N   UNL     1      16.837   6.480  19.931  0.00  0.00    -0.226 NA
ATOM     22  C   UNL     1      17.405   5.908  19.753  0.00  0.00    +0.121 A 
ATOM     23  C   UNL     1      17.304   5.684  18.966  0.00  0.00    +0.121 A 
ATOM     24  N   UNL     1      16.674   6.117  18.656  0.00  0.00    -0.226 NA
ENDBRANCH  19  20
ENDBRANCH  18  19
ENDBRANCH   3  18
TORSDOF 6
ENDMDL
MODEL 7
REMARK VINA RESULT:      -5.9     15.766     18.175
REMARK  Name = 
REMARK  6 active torsions:
REMARK  status: ('A' for Active; 'I' for Inactive)
REMARK    1  A    between atoms: C_3  and  N_18
REMARK    2  A    between atoms: C_6  and  C_7
REMARK    3  A    between atoms: C_7  and  N_8
REMARK    4  A    between atoms: C_9  and  C_11
REMARK    5  A    between atoms: N_18  and  C_19
REMARK    6  A    between atoms: C_19  and  C_20
REMARK                            x       y       z     vdW  Elec       q    Type
REMARK                         _______ _______ _______ _____ _____    ______ ____
ROOT
ATOM      1  O   UNL     1      12.031   7.075  18.058  0.00  0.00    -0.219 OA
ATOM      2  C   UNL     1      12.771   7.228  18.388  0.00  0.00    +0.199 C 
ATOM      3  C   UNL     1      13.422   7.544  17.992  0.00  0.00    +0.136 C 
ATOM      4  C   UNL     1      14.044   7.603  18.530  0.00  0.00    +0.162 C 
ATOM      5  O   UNL     1      13.778   7.322  19.259  0.00  0.00    -0.350 OA
ATOM      6  C   UNL     1      12.991   7.090  19.171  0.00  0.00    +0.169 C 
ENDROOT
BRANCH   6   7
ATOM      7  C   UNL     1      12.509   6.777  19.762  0.00  0.00    +0.148 C 
BRANCH   7   8
ATOM      8  N   UNL     1      12.173   7.275  20.327  0.00  0.00    -0.199 NA
ATOM      9  C   UNL     1      11.750   6.955  20.960  0.00  0.00    +0.265 C 
ATOM     10  O   UNL     1      11.666   6.137  21.027  0.00  0.00    -0.268 OA
BRANCH   9  11
ATOM     11  C   UNL     1      11.414   7.452  21.525  0.00  0.00    +0.055 A 
ATOM     12  C   UNL     1      11.842   8.093  21.819  0.00  0.00    +0.007 A 
ATOM     13  C   UNL     1      11.506   8.591  22.384  0.00  0.00    +0.030 A 
ATOM     14  C   UNL     1      10.740   8.448  22.655  0.00  0.00    +0.140 A 
ATOM     15  F   UNL     1      10.403   8.946  23.220  0.00  0.00    -0.204 F 
ATOM     16  C   UNL     1      10.310   7.808  22.361  0.00  0.00    +0.030 A 
ATOM     17  C   UNL     1      10.647   7.310  21.796  0.00  0.00    +0.007 A 
ENDBRANCH   9  11
ENDBRANCH   7   8
ENDBRANCH   6   7
BRANCH   3  18
ATOM     18  N   UNL     1      13.446   7.764  17.197  0.00  0.00    -0.206 NA
BRANCH  18  19
ATOM     19  C   UNL     1      14.092   8.187  16.906  0.00  0.00    +0.154 C 
BRANCH  19  20
ATOM     20  C   UNL     1      14.072   8.495  16.140  0.00  0.00    +0.157 A 
ATOM     21  N   UNL     1      13.431   8.878  15.788  0.00  0.00    -0.226 NA
ATOM     22  C   UNL     1      13.652   9.094  15.023  0.00  0.00    +0.121 A 
ATOM     23  C   UNL     1      14.429   8.845  14.903  0.00  0.00    +0.121 A 
ATOM     24  N   UNL     1      14.688   8.474  15.593  0.00  0.00    -0.226 NA
ENDBRANCH  19  20
ENDBRANCH  18  19
ENDBRANCH   3  18
TORSDOF 6
ENDMDL
MODEL 8
REMARK VINA RESULT:      -5.7     17.640     18.802
REMARK  Name = 
REMARK  6 active torsions:
REMARK  status: ('A' for Active; 'I' for Inactive)
REMARK    1  A    between atoms: C_3  and  N_18
REMARK    2  A    between atoms: C_6  and  C_7
REMARK    3  A    between atoms: C_7  and  N_8
REMARK    4  A    between atoms: C_9  and  C_11
REMARK    5  A    between atoms: N_18  and  C_19
REMARK    6  A    between atoms: C_19  and  C_20
REMARK                            x       y       z     vdW  Elec       q    Type
REMARK                         _______ _______ _______ _____ _____    ______ ____
ROOT
ATOM      1  O   UNL     1      12.324   9.092  19.527  0.00  0.00    -0.219 OA
ATOM      2  C   UNL     1      12.288   8.284  19.361  0.00  0.00    +0.199 C 
ATOM      3  C   UNL     1      11.929   7.940  18.703  0.00  0.00    +0.136 C 
ATOM      4  C   UNL     1      12.024   7.123  18.759  0.00  0.00    +0.162 C 
ATOM      5  O   UNL     1      12.443   6.962  19.452  0.00  0.00    -0.350 OA
ATOM      6  C   UNL     1      12.606   7.679  19.824  0.00  0.00    +0.169 C 
ENDROOT
BRANCH   6   7
ATOM      7  C   UNL     1      13.015   7.776  20.533  0.00  0.00    +0.148 C 
BRANCH   7   8
ATOM      8  N   UNL     1      13.811   7.566  20.582  0.00  0.00    -0.199 NA
ATOM      9  C   UNL     1      14.206   7.612  21.305  0.00  0.00    +0.265 C 
ATOM     10  O   UNL     1      13.805   7.866  21.979  0.00  0.00    -0.268 OA
BRANCH   9  11
ATOM     11  C   UNL     1      15.003   7.402  21.354  0.00  0.00    +0.055 A 
ATOM     12  C   UNL     1      15.236   6.626  21.201  0.00  0.00    +0.007 A 
ATOM     13  C   UNL     1      16.032   6.416  21.250  0.00  0.00    +0.030 A 
ATOM     14  C   UNL     1      16.596   6.984  21.451  0.00  0.00    +0.140 A 
ATOM     15  F   UNL     1      17.392   6.774  21.499  0.00  0.00    -0.204 F 
ATOM     16  C   UNL     1      16.364   7.761  21.603  0.00  0.00    +0.030 A 
ATOM     17  C   UNL     1      15.567   7.970  21.555  0.00  0.00    +0.007 A 
ENDBRANCH   9  11
ENDBRANCH   7   8
ENDBRANCH   6   7
BRANCH   3  18
ATOM     18  N   UNL     1      11.542   8.343  18.096  0.00  0.00    -0.206 NA
BRANCH  18  19
ATOM     19  C   UNL     1      11.307   7.938  17.417  0.00  0.00    +0.154 C 
BRANCH  19  20
ATOM     20  C   UNL     1      11.111   8.357  16.733  0.00  0.00    +0.157 A 
ATOM     21  N   UNL     1      10.352   8.455  16.425  0.00  0.00    -0.226 NA
ATOM     22  C   UNL     1      10.411   8.910  15.740  0.00  0.00    +0.121 A 
ATOM     23  C   UNL     1      11.208   9.094  15.624  0.00  0.00    +0.121 A 
ATOM     24  N   UNL     1      11.640   8.752  16.239  0.00  0.00    -0.226 NA
ENDBRANCH  19  20
ENDBRANCH  18  19
ENDBRANCH   3  18
TORSDOF 6
ENDMDL
MODEL 9
REMARK VINA RESULT:      -5.5     16.467     19.236
REMARK  Name = 
REMARK  6 active torsions:
REMARK  status: ('A' for Active; 'I' for Inactive)
REMARK    1  A    between atoms: C_3  and  N_18
REMARK    2  A    between atoms: C_6  and  C_7
REMARK    3  A    between atoms: C_7  and  N_8
REMARK    4  A    between atoms: C_9  and  C_11
REMARK    5  A    between atoms: N_18  and  C_19
REMARK    6  A    between atoms: C_19  and  C_20
REMARK                            x       y       z     vdW  Elec       q    Type
REMARK                         _______ _______ _______ _____ _____    ______ ____
ROOT
ATOM      1  O   UNL     1      14.105   7.840  22.255  0.00  0.00    -0.219 OA
ATOM      2  C   UNL     1      13.924   8.261  21.569  0.00  0.00    +0.199 C 
ATOM      3  C   UNL     1      13.191   8.587  21.379  0.00  0.00    +0.136 C 
ATOM      4  C   UNL     1      13.259   8.957  20.645  0.00  0.00    +0.162 C 
ATOM      5  O   UNL     1      14.034   8.861  20.382  0.00  0.00    -0.350 OA
ATOM      6  C   UNL     1      14.446   8.431  20.952  0.00  0.00    +0.169 C 
ENDROOT
BRANCH   6   7
ATOM      7  C   UNL     1      15.239   8.209  20.913  0.00  0.00    +0.148 C 
BRANCH   7   8
ATOM      8  N   UNL     1      15.479   7.626  20.381  0.00  0.00    -0.199 NA
ATOM      9  C   UNL     1      16.283   7.484  20.259  0.00  0.00    +0.265 C 
ATOM     10  O   UNL     1      16.846   7.924  20.670  0.00  0.00    -0.268 OA
BRANCH   9  11
ATOM     11  C   UNL     1      16.522   6.901  19.726  0.00  0.00    +0.055 A 
ATOM     12  C   UNL     1      16.119   6.802  19.014  0.00  0.00    +0.007 A 
ATOM     13  C   UNL     1      16.358   6.219  18.481  0.00  0.00    +0.030 A 
ATOM     14  C   UNL     1      17.001   5.736  18.661  0.00  0.00    +0.140 A 
ATOM     15  F   UNL     1      17.241   5.153  18.129  0.00  0.00    -0.204 F 
ATOM     16  C   UNL     1      17.405   5.834  19.374  0.00  0.00    +0.030 A 
ATOM     17  C   UNL     1      17.166   6.417  19.907  0.00  0.00    +0.007 A 
ENDBRANCH   9  11
ENDBRANCH   7   8
ENDBRANCH   6   7
BRANCH   3  18
ATOM     18  N   UNL     1      12.509   8.548  21.842  0.00  0.00    -0.206 NA
BRANCH  18  19
ATOM     19  C   UNL     1      11.766   8.577  21.484  0.00  0.00    +0.154 C 
BRANCH  19  20
ATOM     20  C   UNL     1      11.093   8.370  21.915  0.00  0.00    +0.157 A 
ATOM     21  N   UNL     1      10.663   7.669  21.837  0.00  0.00    -0.226 NA
ATOM     22  C   UNL     1      10.036   7.694  22.373  0.00  0.00    +0.121 A 
ATOM     23  C   UNL     1      10.079   8.409  22.782  0.00  0.00    +0.121 A 
ATOM     24  N   UNL     1      10.732   8.827  22.499  0.00  0.00    -0.226 NA
ENDBRANCH  19  20
ENDBRANCH  18  19
ENDBRANCH   3  18
TORSDOF 6
ENDMDL
