MODEL 1
REMARK VINA RESULT:     -12.5      0.000      0.000
REMARK  Name = 
REMARK  5 active torsions:
REMARK  status: ('A' for Active; 'I' for Inactive)
REMARK    1  A    between atoms: O_2  and  C_3
REMARK    2  A    between atoms: C_8  and  C_9
REMARK    3  A    between atoms: C_9  and  C_10
REMARK    4  A    between atoms: C_21  and  N_27
REMARK    5  A    between atoms: C_28  and  C_30
REMARK                            x       y       z     vdW  Elec       q    Type
REMARK                         _______ _______ _______ _____ _____    ______ ____
ROOT
ATOM     10  C   UNL     1      -2.858   3.462  25.395  0.00  0.00    +0.231 C 
ATOM     11  O   UNL     1      -2.430   2.795  25.169  0.00  0.00    -0.274 OA
ATOM     12  N   UNL     1      -3.681   3.428  25.446  0.00  0.00    -0.271 N 
ATOM     13  C   UNL     1      -4.180   4.049  25.664  0.00  0.00    +0.096 C 
ATOM     14  C   UNL     1      -4.956   3.771  25.640  0.00  0.00    +0.045 C 
ATOM     15  C   UNL     1      -4.937   2.980  25.407  0.00  0.00    +0.124 C 
ATOM     16  N   UNL     1      -5.613   2.515  25.321  0.00  0.00    -0.204 NA
ATOM     17  C   UNL     1      -5.668   1.723  25.094  0.00  0.00    +0.260 C 
ATOM     18  O   UNL     1      -6.432   1.413  25.060  0.00  0.00    -0.272 OA
ATOM     19  C   UNL     1      -5.060   1.202  24.897  0.00  0.00    +0.155 C 
ATOM     20  C   UNL     1      -5.189   0.417  24.677  0.00  0.00    +0.053 C 
ATOM     21  C   UNL     1      -4.456   0.072  24.523  0.00  0.00    +0.117 C 
ATOM     22  C   UNL     1      -3.874   0.644  24.647  0.00  0.00    +0.115 C 
ATOM     23  N   UNL     1      -4.248   1.342  24.879  0.00  0.00    -0.270 N 
ATOM     24  C   UNL     1      -3.842   2.039  25.052  0.00  0.00    +0.246 C 
ATOM     25  O   UNL     1      -3.021   2.003  24.981  0.00  0.00    -0.273 OA
ATOM     26  C   UNL     1      -4.149   2.768  25.288  0.00  0.00    +0.172 C 
ENDROOT
BRANCH  21  27
ATOM     27  N   UNL     1      -4.326  -0.707  24.286  0.00  0.00    -0.205 NA
ATOM     28  C   UNL     1      -3.974  -1.242  24.805  0.00  0.00    +0.241 C 
ATOM     29  O   UNL     1      -3.751  -0.999  25.561  0.00  0.00    -0.273 OA
BRANCH  28  30
ATOM     30  C   UNL     1      -3.844  -2.023  24.568  0.00  0.00    +0.078 C 
ATOM     31  C   UNL     1      -4.152  -2.381  23.892  0.00  0.00    +0.009 C 
ATOM     32  C   UNL     1      -3.882  -3.160  23.872  0.00  0.00    +0.001 C 
ATOM     33  C   UNL     1      -3.408  -3.284  24.535  0.00  0.00    +0.001 C 
ATOM     34  C   UNL     1      -3.384  -2.580  24.965  0.00  0.00    +0.009 C 
ENDBRANCH  28  30
ENDBRANCH  21  27
BRANCH  10   9
ATOM      9  C   UNL     1      -2.462   4.165  25.572  0.00  0.00    +0.115 C 
BRANCH   9   8
ATOM      3  C   UNL     1      -1.397   4.977  25.075  0.00  0.00    +0.135 A 
ATOM      4  C   UNL     1      -0.603   5.067  24.869  0.00  0.00    +0.037 A 
ATOM      5  C   UNL     1      -0.080   4.434  24.954  0.00  0.00    +0.003 A 
ATOM      6  C   UNL     1      -0.352   3.711  25.246  0.00  0.00    -0.000 A 
ATOM      7  C   UNL     1      -1.146   3.622  25.451  0.00  0.00    -0.001 A 
ATOM      8  C   UNL     1      -1.668   4.255  25.366  0.00  0.00    +0.021 A 
BRANCH   3   2
ATOM      1  C   UNL     1      -1.634   6.354  24.773  0.00  0.00    +0.252 C 
ATOM      2  O   UNL     1      -1.919   5.610  24.989  0.00  0.00    -0.472 OA
ENDBRANCH   3   2
ENDBRANCH   9   8
ENDBRANCH  10   9
TORSDOF 5
ENDMDL
MODEL 2
REMARK VINA RESULT:     -12.2      0.977      5.533
REMARK  Name = 
REMARK  5 active torsions:
REMARK  status: ('A' for Active; 'I' for Inactive)
REMARK    1  A    between atoms: O_2  and  C_3
REMARK    2  A    between atoms: C_8  and  C_9
REMARK    3  A    between atoms: C_9  and  C_10
REMARK    4  A    between atoms: C_21  and  N_27
REMARK    5  A    between atoms: C_28  and  C_30
REMARK                            x       y       z     vdW  Elec       q    Type
REMARK                         _______ _______ _______ _____ _____    ______ ____
ROOT
ATOM     10  C   UNL     1      -4.294  -0.018  24.688  0.00  0.00    +0.231 C 
ATOM     11  O   UNL     1      -3.543   0.246  24.473  0.00  0.00    -0.274 OA
ATOM     12  N   UNL     1      -4.868   0.523  24.932  0.00  0.00    -0.271 N 
ATOM     13  C   UNL     1      -5.639   0.341  25.162  0.00  0.00    +0.096 C 
ATOM     14  C   UNL     1      -6.018   1.046  25.360  0.00  0.00    +0.045 C 
ATOM     15  C   UNL     1      -5.482   1.663  25.252  0.00  0.00    +0.124 C 
ATOM     16  N   UNL     1      -5.665   2.455  25.396  0.00  0.00    -0.204 NA
ATOM     17  C   UNL     1      -5.182   3.118  25.310  0.00  0.00    +0.260 C 
ATOM     18  O   UNL     1      -5.531   3.842  25.500  0.00  0.00    -0.272 OA
ATOM     19  C   UNL     1      -4.397   3.154  25.059  0.00  0.00    +0.155 C 
ATOM     20  C   UNL     1      -3.972   3.858  24.996  0.00  0.00    +0.053 C 
ATOM     21  C   UNL     1      -3.213   3.675  24.731  0.00  0.00    +0.117 C 
ATOM     22  C   UNL     1      -3.169   2.858  24.630  0.00  0.00    +0.115 C 
ATOM     23  N   UNL     1      -3.901   2.535  24.833  0.00  0.00    -0.270 N 
ATOM     24  C   UNL     1      -4.067   1.728  24.800  0.00  0.00    +0.246 C 
ATOM     25  O   UNL     1      -3.448   1.245  24.548  0.00  0.00    -0.273 OA
ATOM     26  C   UNL     1      -4.771   1.340  24.987  0.00  0.00    +0.172 C 
ENDROOT
BRANCH  21  27
ATOM     27  N   UNL     1      -2.604   4.214  24.591  0.00  0.00    -0.205 NA
ATOM     28  C   UNL     1      -1.996   4.301  25.142  0.00  0.00    +0.241 C 
ATOM     29  O   UNL     1      -1.997   3.849  25.832  0.00  0.00    -0.273 OA
BRANCH  28  30
ATOM     30  C   UNL     1      -1.387   4.840  25.002  0.00  0.00    +0.078 C 
ATOM     31  C   UNL     1      -0.610   4.651  24.797  0.00  0.00    +0.009 C 
ATOM     32  C   UNL     1      -0.191   5.356  24.711  0.00  0.00    +0.001 C 
ATOM     33  C   UNL     1      -0.708   5.981  24.863  0.00  0.00    +0.001 C 
ATOM     34  C   UNL     1      -1.448   5.661  25.043  0.00  0.00    +0.009 C 
ENDBRANCH  28  30
ENDBRANCH  21  27
BRANCH  10   9
ATOM      9  C   UNL     1      -4.472  -0.824  24.660  0.00  0.00    +0.115 C 
BRANCH   9   8
ATOM      3  C   UNL     1      -3.825  -2.048  24.310  0.00  0.00    +0.135 A 
ATOM      4  C   UNL     1      -3.232  -2.607  24.443  0.00  0.00    +0.037 A 
ATOM      5  C   UNL     1      -2.693  -2.498  25.058  0.00  0.00    +0.003 A 
ATOM      6  C   UNL     1      -2.747  -1.831  25.542  0.00  0.00    -0.000 A 
ATOM      7  C   UNL     1      -3.340  -1.274  25.408  0.00  0.00    -0.001 A 
ATOM      8  C   UNL     1      -3.879  -1.382  24.793  0.00  0.00    +0.021 A 
BRANCH   3   2
ATOM      1  C   UNL     1      -4.443  -2.899  23.343  0.00  0.00    +0.252 C 
ATOM      2  O   UNL     1      -4.362  -2.157  23.695  0.00  0.00    -0.472 OA
ENDBRANCH   3   2
ENDBRANCH   9   8
ENDBRANCH  10   9
TORSDOF 5
ENDMDL
MODEL 3
REMARK VINA RESULT:     -11.6      2.942      4.883
REMARK  Name = 
REMARK  5 active torsions:
REMARK  status: ('A' for Active; 'I' for Inactive)
REMARK    1  A    between atoms: O_2  and  C_3
REMARK    2  A    between atoms: C_8  and  C_9
REMARK    3  A    between atoms: C_9  and  C_10
REMARK    4  A    between atoms: C_21  and  N_27
REMARK    5  A    between atoms: C_28  and  C_30
REMARK                            x       y       z     vdW  Elec       q    Type
REMARK                         _______ _______ _______ _____ _____    ______ ____
ROOT
ATOM     10  C   UNL     1      -3.610   1.005  24.627  0.00  0.00    +0.231 C 
ATOM     11  O   UNL     1      -2.975   1.490  24.421  0.00  0.00    -0.274 OA
ATOM     12  N   UNL     1      -3.495   0.194  24.725  0.00  0.00    -0.271 N 
ATOM     13  C   UNL     1      -4.075  -0.357  24.930  0.00  0.00    +0.096 C 
ATOM     14  C   UNL     1      -3.718  -1.100  24.967  0.00  0.00    +0.045 C 
ATOM     15  C   UNL     1      -2.919  -1.009  24.786  0.00  0.00    +0.124 C 
ATOM     16  N   UNL     1      -2.382  -1.635  24.768  0.00  0.00    -0.204 NA
ATOM     17  C   UNL     1      -1.575  -1.617  24.596  0.00  0.00    +0.260 C 
ATOM     18  O   UNL     1      -1.187  -2.345  24.624  0.00  0.00    -0.272 OA
ATOM     19  C   UNL     1      -1.106  -0.968  24.399  0.00  0.00    +0.155 C 
ATOM     20  C   UNL     1      -0.299  -1.023  24.238  0.00  0.00    +0.053 C 
ATOM     21  C   UNL     1      -0.021  -0.266  24.066  0.00  0.00    +0.117 C 
ATOM     22  C   UNL     1      -0.656   0.257  24.121  0.00  0.00    +0.115 C 
ATOM     23  N   UNL     1      -1.328  -0.177  24.327  0.00  0.00    -0.270 N 
ATOM     24  C   UNL     1      -2.073   0.161  24.432  0.00  0.00    +0.246 C 
ATOM     25  O   UNL     1      -2.115   0.977  24.318  0.00  0.00    -0.273 OA
ATOM     26  C   UNL     1      -2.781  -0.209  24.636  0.00  0.00    +0.172 C 
ENDROOT
BRANCH  21  27
ATOM     27  N   UNL     1       0.756  -0.066  23.873  0.00  0.00    -0.205 NA
ATOM     28  C   UNL     1       0.986  -0.025  23.082  0.00  0.00    +0.241 C 
ATOM     29  O   UNL     1       0.440  -0.183  22.485  0.00  0.00    -0.273 OA
BRANCH  28  30
ATOM     30  C   UNL     1       1.763   0.175  22.889  0.00  0.00    +0.078 C 
ATOM     31  C   UNL     1       2.215   0.766  23.246  0.00  0.00    +0.009 C 
ATOM     32  C   UNL     1       2.955   0.775  22.883  0.00  0.00    +0.001 C 
ATOM     33  C   UNL     1       2.961   0.191  22.301  0.00  0.00    +0.001 C 
ATOM     34  C   UNL     1       2.224  -0.180  22.305  0.00  0.00    +0.009 C 
ENDBRANCH  28  30
ENDBRANCH  21  27
BRANCH  10   9
ATOM      9  C   UNL     1      -4.360   1.332  24.735  0.00  0.00    +0.115 C 
BRANCH   9   8
ATOM      3  C   UNL     1      -4.986   2.474  25.323  0.00  0.00    +0.135 A 
ATOM      4  C   UNL     1      -5.076   3.293  25.374  0.00  0.00    +0.037 A 
ATOM      5  C   UNL     1      -4.631   3.788  24.886  0.00  0.00    +0.003 A 
ATOM      6  C   UNL     1      -4.095   3.464  24.348  0.00  0.00    -0.000 A 
ATOM      7  C   UNL     1      -4.005   2.645  24.298  0.00  0.00    -0.001 A 
ATOM      8  C   UNL     1      -4.450   2.150  24.786  0.00  0.00    +0.021 A 
BRANCH   3   2
ATOM      1  C   UNL     1      -6.091   2.276  26.207  0.00  0.00    +0.252 C 
ATOM      2  O   UNL     1      -5.431   1.979  25.810  0.00  0.00    -0.472 OA
ENDBRANCH   3   2
ENDBRANCH   9   8
ENDBRANCH  10   9
TORSDOF 5
ENDMDL
MODEL 4
REMARK VINA RESULT:     -10.6      2.227      3.376
REMARK  Name = 
REMARK  5 active torsions:
REMARK  status: ('A' for Active; 'I' for Inactive)
REMARK    1  A    between atoms: O_2  and  C_3
REMARK    2  A    between atoms: C_8  and  C_9
REMARK    3  A    between atoms: C_9  and  C_10
REMARK    4  A    between atoms: C_21  and  N_27
REMARK    5  A    between atoms: C_28  and  C_30
REMARK                            x       y       z     vdW  Elec       q    Type
REMARK                         _______ _______ _______ _____ _____    ______ ____
ROOT
ATOM     10  C   UNL     1      -0.969   2.727  25.285  0.00  0.00    +0.231 C 
ATOM     11  O   UNL     1      -1.631   2.300  25.528  0.00  0.00    -0.274 OA
ATOM     12  N   UNL     1      -0.377   2.357  24.845  0.00  0.00    -0.271 N 
ATOM     13  C   UNL     1       0.313   2.712  24.565  0.00  0.00    +0.096 C 
ATOM     14  C   UNL     1       0.744   2.141  24.154  0.00  0.00    +0.045 C 
ATOM     15  C   UNL     1       0.321   1.434  24.180  0.00  0.00    +0.124 C 
ATOM     16  N   UNL     1       0.581   0.735  23.827  0.00  0.00    -0.204 NA
ATOM     17  C   UNL     1       0.212  -0.003  23.814  0.00  0.00    +0.260 C 
ATOM     18  O   UNL     1       0.617  -0.599  23.410  0.00  0.00    -0.272 OA
ATOM     19  C   UNL     1      -0.508  -0.224  24.150  0.00  0.00    +0.155 C 
ATOM     20  C   UNL     1      -0.819  -0.987  24.097  0.00  0.00    +0.053 C 
ATOM     21  C   UNL     1      -1.540  -0.996  24.497  0.00  0.00    +0.117 C 
ATOM     22  C   UNL     1      -1.675  -0.240  24.797  0.00  0.00    +0.115 C 
ATOM     23  N   UNL     1      -1.037   0.238  24.583  0.00  0.00    -0.270 N 
ATOM     24  C   UNL     1      -0.977   1.035  24.786  0.00  0.00    +0.246 C 
ATOM     25  O   UNL     1      -1.604   1.340  25.227  0.00  0.00    -0.273 OA
ATOM     26  C   UNL     1      -0.372   1.567  24.607  0.00  0.00    +0.172 C 
ENDROOT
BRANCH  21  27
ATOM     27  N   UNL     1      -2.039  -1.647  24.582  0.00  0.00    -0.205 NA
ATOM     28  C   UNL     1      -2.795  -1.633  24.250  0.00  0.00    +0.241 C 
ATOM     29  O   UNL     1      -3.050  -0.969  23.834  0.00  0.00    -0.273 OA
BRANCH  28  30
ATOM     30  C   UNL     1      -3.295  -2.285  24.335  0.00  0.00    +0.078 C 
ATOM     31  C   UNL     1      -3.954  -2.453  23.870  0.00  0.00    +0.009 C 
ATOM     32  C   UNL     1      -4.290  -3.154  24.147  0.00  0.00    +0.001 C 
ATOM     33  C   UNL     1      -3.837  -3.419  24.784  0.00  0.00    +0.001 C 
ATOM     34  C   UNL     1      -3.222  -2.881  24.900  0.00  0.00    +0.009 C 
ENDBRANCH  28  30
ENDBRANCH  21  27
BRANCH  10   9
ATOM      9  C   UNL     1      -0.898   3.525  25.483  0.00  0.00    +0.115 C 
BRANCH   9   8
ATOM      3  C   UNL     1      -1.600   4.761  25.342  0.00  0.00    +0.135 A 
ATOM      4  C   UNL     1      -2.276   5.218  25.467  0.00  0.00    +0.037 A 
ATOM      5  C   UNL     1      -2.927   4.893  25.857  0.00  0.00    +0.003 A 
ATOM      6  C   UNL     1      -2.901   4.112  26.123  0.00  0.00    -0.000 A 
ATOM      7  C   UNL     1      -2.225   3.657  25.998  0.00  0.00    -0.001 A 
ATOM      8  C   UNL     1      -1.574   3.981  25.608  0.00  0.00    +0.021 A 
BRANCH   3   2
ATOM      1  C   UNL     1      -0.987   5.857  24.659  0.00  0.00    +0.252 C 
ATOM      2  O   UNL     1      -0.950   5.086  24.952  0.00  0.00    -0.472 OA
ENDBRANCH   3   2
ENDBRANCH   9   8
ENDBRANCH  10   9
TORSDOF 5
ENDMDL
MODEL 5
REMARK VINA RESULT:     -10.1      2.284      6.528
REMARK  Name = 
REMARK  5 active torsions:
REMARK  status: ('A' for Active; 'I' for Inactive)
REMARK    1  A    between atoms: O_2  and  C_3
REMARK    2  A    between atoms: C_8  and  C_9
REMARK    3  A    between atoms: C_9  and  C_10
REMARK    4  A    between atoms: C_21  and  N_27
REMARK    5  A    between atoms: C_28  and  C_30
REMARK                            x       y       z     vdW  Elec       q    Type
REMARK                         _______ _______ _______ _____ _____    ______ ____
ROOT
ATOM     10  C   UNL     1      -2.050  -0.891  24.595  0.00  0.00    +0.231 C 
ATOM     11  O   UNL     1      -2.535  -0.228  24.672  0.00  0.00    -0.274 OA
ATOM     12  N   UNL     1      -1.244  -0.798  24.442  0.00  0.00    -0.271 N 
ATOM     13  C   UNL     1      -0.694  -1.407  24.352  0.00  0.00    +0.096 C 
ATOM     14  C   UNL     1       0.042  -1.065  24.207  0.00  0.00    +0.045 C 
ATOM     15  C   UNL     1      -0.053  -0.246  24.207  0.00  0.00    +0.124 C 
ATOM     16  N   UNL     1       0.567   0.283  24.080  0.00  0.00    -0.204 NA
ATOM     17  C   UNL     1       0.546   1.108  24.066  0.00  0.00    +0.260 C 
ATOM     18  O   UNL     1       1.267   1.483  23.923  0.00  0.00    -0.272 OA
ATOM     19  C   UNL     1      -0.102   1.607  24.177  0.00  0.00    +0.155 C 
ATOM     20  C   UNL     1      -0.051   2.430  24.150  0.00  0.00    +0.053 C 
ATOM     21  C   UNL     1      -0.804   2.737  24.285  0.00  0.00    +0.117 C 
ATOM     22  C   UNL     1      -1.321   2.103  24.395  0.00  0.00    +0.115 C 
ATOM     23  N   UNL     1      -0.887   1.404  24.328  0.00  0.00    -0.270 N 
ATOM     24  C   UNL     1      -1.219   0.654  24.407  0.00  0.00    +0.246 C 
ATOM     25  O   UNL     1      -2.030   0.635  24.559  0.00  0.00    -0.273 OA
ATOM     26  C   UNL     1      -0.847  -0.081  24.353  0.00  0.00    +0.172 C 
ENDROOT
BRANCH  21  27
ATOM     27  N   UNL     1      -1.006   3.536  24.306  0.00  0.00    -0.205 NA
ATOM     28  C   UNL     1      -1.064   3.927  25.030  0.00  0.00    +0.241 C 
ATOM     29  O   UNL     1      -0.919   3.520  25.732  0.00  0.00    -0.273 OA
BRANCH  28  30
ATOM     30  C   UNL     1      -1.266   4.728  25.051  0.00  0.00    +0.078 C 
ATOM     31  C   UNL     1      -1.977   5.040  25.328  0.00  0.00    +0.009 C 
ATOM     32  C   UNL     1      -1.943   5.861  25.247  0.00  0.00    +0.001 C 
ATOM     33  C   UNL     1      -1.212   6.055  24.920  0.00  0.00    +0.001 C 
ATOM     34  C   UNL     1      -0.793   5.354  24.799  0.00  0.00    +0.009 C 
ENDBRANCH  28  30
ENDBRANCH  21  27
BRANCH  10   9
ATOM      9  C   UNL     1      -2.371  -1.648  24.671  0.00  0.00    +0.115 C 
BRANCH   9   8
ATOM      3  C   UNL     1      -3.489  -2.529  24.542  0.00  0.00    +0.135 A 
ATOM      4  C   UNL     1      -4.241  -2.690  24.245  0.00  0.00    +0.037 A 
ATOM      5  C   UNL     1      -4.629  -2.129  23.779  0.00  0.00    +0.003 A 
ATOM      6  C   UNL     1      -4.264  -1.408  23.611  0.00  0.00    -0.000 A 
ATOM      7  C   UNL     1      -3.512  -1.248  23.908  0.00  0.00    -0.001 A 
ATOM      8  C   UNL     1      -3.124  -1.808  24.374  0.00  0.00    +0.021 A 
BRANCH   3   2
ATOM      1  C   UNL     1      -3.424  -3.843  25.100  0.00  0.00    +0.252 C 
ATOM      2  O   UNL     1      -3.101  -3.088  25.007  0.00  0.00    -0.472 OA
ENDBRANCH   3   2
ENDBRANCH   9   8
ENDBRANCH  10   9
TORSDOF 5
ENDMDL
MODEL 6
REMARK VINA RESULT:      -9.9      3.159      5.937
REMARK  Name = 
REMARK  5 active torsions:
REMARK  status: ('A' for Active; 'I' for Inactive)
REMARK    1  A    between atoms: O_2  and  C_3
REMARK    2  A    between atoms: C_8  and  C_9
REMARK    3  A    between atoms: C_9  and  C_10
REMARK    4  A    between atoms: C_21  and  N_27
REMARK    5  A    between atoms: C_28  and  C_30
REMARK                            x       y       z     vdW  Elec       q    Type
REMARK                         _______ _______ _______ _____ _____    ______ ____
ROOT
ATOM     10  C   UNL     1      -2.596  -0.125  24.493  0.00  0.00    +0.231 C 
ATOM     11  O   UNL     1      -1.914  -0.577  24.388  0.00  0.00    -0.274 OA
ATOM     12  N   UNL     1      -2.552   0.699  24.477  0.00  0.00    -0.271 N 
ATOM     13  C   UNL     1      -3.185   1.220  24.573  0.00  0.00    +0.096 C 
ATOM     14  C   UNL     1      -2.891   1.989  24.517  0.00  0.00    +0.045 C 
ATOM     15  C   UNL     1      -2.078   1.943  24.387  0.00  0.00    +0.124 C 
ATOM     16  N   UNL     1      -1.593   2.605  24.301  0.00  0.00    -0.204 NA
ATOM     17  C   UNL     1      -0.779   2.633  24.169  0.00  0.00    +0.260 C 
ATOM     18  O   UNL     1      -0.452   3.389  24.108  0.00  0.00    -0.272 OA
ATOM     19  C   UNL     1      -0.249   2.006  24.091  0.00  0.00    +0.155 C 
ATOM     20  C   UNL     1       0.559   2.108  23.959  0.00  0.00    +0.053 C 
ATOM     21  C   UNL     1       0.906   1.361  23.912  0.00  0.00    +0.117 C 
ATOM     22  C   UNL     1       0.312   0.798  24.014  0.00  0.00    +0.115 C 
ATOM     23  N   UNL     1      -0.402   1.196  24.125  0.00  0.00    -0.270 N 
ATOM     24  C   UNL     1      -1.123   0.813  24.245  0.00  0.00    +0.246 C 
ATOM     25  O   UNL     1      -1.094  -0.011  24.249  0.00  0.00    -0.273 OA
ATOM     26  C   UNL     1      -1.868   1.146  24.362  0.00  0.00    +0.172 C 
ENDROOT
BRANCH  21  27
ATOM     27  N   UNL     1       1.705   1.205  23.785  0.00  0.00    -0.205 NA
ATOM     28  C   UNL     1       1.939   0.764  23.127  0.00  0.00    +0.241 C 
ATOM     29  O   UNL     1       1.374   0.481  22.598  0.00  0.00    -0.273 OA
BRANCH  28  30
ATOM     30  C   UNL     1       2.740   0.608  23.000  0.00  0.00    +0.078 C 
ATOM     31  C   UNL     1       3.101  -0.133  23.042  0.00  0.00    +0.009 C 
ATOM     32  C   UNL     1       3.903  -0.034  22.876  0.00  0.00    +0.001 C 
ATOM     33  C   UNL     1       4.038   0.766  22.731  0.00  0.00    +0.001 C 
ATOM     34  C   UNL     1       3.318   1.163  22.807  0.00  0.00    +0.009 C 
ENDBRANCH  28  30
ENDBRANCH  21  27
BRANCH  10   9
ATOM      9  C   UNL     1      -3.323  -0.498  24.614  0.00  0.00    +0.115 C 
BRANCH   9   8
ATOM      3  C   UNL     1      -3.725  -1.860  24.460  0.00  0.00    +0.135 A 
ATOM      4  C   UNL     1      -3.749  -2.634  24.744  0.00  0.00    +0.037 A 
ATOM      5  C   UNL     1      -3.396  -2.820  25.467  0.00  0.00    +0.003 A 
ATOM      6  C   UNL     1      -3.019  -2.231  25.906  0.00  0.00    -0.000 A 
ATOM      7  C   UNL     1      -2.995  -1.458  25.621  0.00  0.00    -0.001 A 
ATOM      8  C   UNL     1      -3.347  -1.272  24.899  0.00  0.00    +0.021 A 
BRANCH   3   2
ATOM      1  C   UNL     1      -4.557  -2.229  23.359  0.00  0.00    +0.252 C 
ATOM      2  O   UNL     1      -4.077  -1.675  23.739  0.00  0.00    -0.472 OA
ENDBRANCH   3   2
ENDBRANCH   9   8
ENDBRANCH  10   9
TORSDOF 5
ENDMDL
MODEL 7
REMARK VINA RESULT:      -9.3     14.601     16.423
REMARK  Name = 
REMARK  5 active torsions:
REMARK  status: ('A' for Active; 'I' for Inactive)
REMARK    1  A    between atoms: O_2  and  C_3
REMARK    2  A    between atoms: C_8  and  C_9
REMARK    3  A    between atoms: C_9  and  C_10
REMARK    4  A    between atoms: C_21  and  N_27
REMARK    5  A    between atoms: C_28  and  C_30
REMARK                            x       y       z     vdW  Elec       q    Type
REMARK                         _______ _______ _______ _____ _____    ______ ____
ROOT
ATOM     10  C   UNL     1      -2.471 -10.534  13.566  0.00  0.00    +0.231 C 
ATOM     11  O   UNL     1      -3.279 -10.453  13.425  0.00  0.00    -0.274 OA
ATOM     12  N   UNL     1      -2.193 -10.615  14.339  0.00  0.00    -0.271 N 
ATOM     13  C   UNL     1      -1.403 -10.700  14.565  0.00  0.00    +0.096 C 
ATOM     14  C   UNL     1      -1.379 -10.763  15.387  0.00  0.00    +0.045 C 
ATOM     15  C   UNL     1      -2.152 -10.717  15.669  0.00  0.00    +0.124 C 
ATOM     16  N   UNL     1      -2.347 -10.760  16.470  0.00  0.00    -0.204 NA
ATOM     17  C   UNL     1      -3.093 -10.721  16.821  0.00  0.00    +0.260 C 
ATOM     18  O   UNL     1      -3.105 -10.781  17.644  0.00  0.00    -0.272 OA
ATOM     19  C   UNL     1      -3.828 -10.631  16.458  0.00  0.00    +0.155 C 
ATOM     20  C   UNL     1      -4.540 -10.600  16.874  0.00  0.00    +0.053 C 
ATOM     21  C   UNL     1      -5.150 -10.506  16.328  0.00  0.00    +0.117 C 
ATOM     22  C   UNL     1      -4.817 -10.479  15.574  0.00  0.00    +0.115 C 
ATOM     23  N   UNL     1      -3.999 -10.556  15.654  0.00  0.00    -0.270 N 
ATOM     24  C   UNL     1      -3.477 -10.554  15.015  0.00  0.00    +0.246 C 
ATOM     25  O   UNL     1      -3.823 -10.469  14.271  0.00  0.00    -0.273 OA
ATOM     26  C   UNL     1      -2.655 -10.626  15.022  0.00  0.00    +0.172 C 
ENDROOT
BRANCH  21  27
ATOM     27  N   UNL     1      -5.954 -10.450  16.504  0.00  0.00    -0.205 NA
ATOM     28  C   UNL     1      -6.344  -9.728  16.420  0.00  0.00    +0.241 C 
ATOM     29  O   UNL     1      -5.931  -9.063  16.161  0.00  0.00    -0.273 OA
BRANCH  28  30
ATOM     30  C   UNL     1      -7.149  -9.671  16.597  0.00  0.00    +0.078 C 
ATOM     31  C   UNL     1      -7.756 -10.094  16.232  0.00  0.00    +0.009 C 
ATOM     32  C   UNL     1      -8.469  -9.866  16.578  0.00  0.00    +0.001 C 
ATOM     33  C   UNL     1      -8.303  -9.302  17.156  0.00  0.00    +0.001 C 
ATOM     34  C   UNL     1      -7.487  -9.181  17.168  0.00  0.00    +0.009 C 
ENDBRANCH  28  30
ENDBRANCH  21  27
BRANCH  10   9
ATOM      9  C   UNL     1      -1.939 -10.533  12.935  0.00  0.00    +0.115 C 
BRANCH   9   8
ATOM      3  C   UNL     1      -1.820  -9.818  11.704  0.00  0.00    +0.135 A 
ATOM      4  C   UNL     1      -2.088  -9.662  10.939  0.00  0.00    +0.037 A 
ATOM      5  C   UNL     1      -2.744 -10.065  10.641  0.00  0.00    +0.003 A 
ATOM      6  C   UNL     1      -3.131 -10.625  11.108  0.00  0.00    -0.000 A 
ATOM      7  C   UNL     1      -2.862 -10.781  11.872  0.00  0.00    -0.001 A 
ATOM      8  C   UNL     1      -2.207 -10.377  12.170  0.00  0.00    +0.021 A 
BRANCH   3   2
ATOM      1  C   UNL     1      -0.732  -8.912  11.510  0.00  0.00    +0.252 C 
ATOM      2  O   UNL     1      -1.166  -9.414  12.001  0.00  0.00    -0.472 OA
ENDBRANCH   3   2
ENDBRANCH   9   8
ENDBRANCH  10   9
TORSDOF 5
ENDMDL
