MODEL 1
REMARK VINA RESULT:     -11.7      0.000      0.000
REMARK  Name = 
REMARK  3 active torsions:
REMARK  status: ('A' for Active; 'I' for Inactive)
REMARK    1  A    between atoms: C_2  and  C_3
REMARK    2  A    between atoms: C_3  and  N_4
REMARK    3  A    between atoms: N_14  and  C_19
REMARK                            x       y       z     vdW  Elec       q    Type
REMARK                         _______ _______ _______ _____ _____    ______ ____
ROOT
ATOM      4  N   UNL     1      -1.804   3.810  25.039  0.00  0.00    -0.184 NA
ATOM      5  C   UNL     1      -1.576   3.025  24.931  0.00  0.00    +0.324 C 
ATOM      6  O   UNL     1      -0.777   2.832  24.866  0.00  0.00    -0.251 OA
ATOM      7  N   UNL     1      -2.149   2.432  24.889  0.00  0.00    -0.263 N 
ATOM      8  C   UNL     1      -2.949   2.625  24.954  0.00  0.00    +0.095 C 
ATOM      9  C   UNL     1      -3.520   2.033  24.912  0.00  0.00    +0.022 C 
ATOM     10  C   UNL     1      -3.294   1.246  24.804  0.00  0.00    +0.012 C 
ATOM     11  C   UNL     1      -3.948   0.745  24.777  0.00  0.00    +0.085 C 
ATOM     12  C   UNL     1      -3.964  -0.074  24.677  0.00  0.00    +0.226 C 
ATOM     13  O   UNL     1      -4.714  -0.419  24.675  0.00  0.00    -0.275 OA
ATOM     14  N   UNL     1      -3.330  -0.593  24.581  0.00  0.00    -0.281 N 
ATOM     15  C   UNL     1      -2.524  -0.422  24.560  0.00  0.00    +0.093 C 
ATOM     16  C   UNL     1      -2.151   0.311  24.630  0.00  0.00    +0.023 C 
ATOM     17  C   UNL     1      -2.494   1.053  24.738  0.00  0.00    +0.022 C 
ATOM     18  C   UNL     1      -1.922   1.647  24.781  0.00  0.00    +0.095 C 
ENDROOT
BRANCH  14  19
ATOM     19  C   UNL     1      -3.529  -1.389  24.494  0.00  0.00    +0.075 C 
ATOM     20  C   UNL     1      -3.918  -1.645  23.812  0.00  0.00    +0.020 C 
ATOM     21  C   UNL     1      -4.118  -2.440  23.726  0.00  0.00    +0.002 C 
ATOM     22  C   UNL     1      -3.928  -2.981  24.320  0.00  0.00    +0.000 C 
ATOM     23  C   UNL     1      -3.539  -2.724  25.001  0.00  0.00    +0.002 C 
ATOM     24  C   UNL     1      -3.340  -1.929  25.088  0.00  0.00    +0.020 C 
ENDBRANCH  14  19
BRANCH   4   3
ATOM      3  C   UNL     1      -1.231   4.404  25.082  0.00  0.00    +0.143 C 
BRANCH   3   2
ATOM      1  C   UNL     1      -1.014   5.787  24.804  0.00  0.00    -0.003 C 
ATOM      2  C   UNL     1      -1.460   5.192  25.161  0.00  0.00    -0.003 C 
ENDBRANCH   3   2
ENDBRANCH   4   3
TORSDOF 3
ENDMDL
MODEL 2
REMARK VINA RESULT:     -10.8      0.746      5.449
REMARK  Name = 
REMARK  3 active torsions:
REMARK  status: ('A' for Active; 'I' for Inactive)
REMARK    1  A    between atoms: C_2  and  C_3
REMARK    2  A    between atoms: C_3  and  N_4
REMARK    3  A    between atoms: N_14  and  C_19
REMARK                            x       y       z     vdW  Elec       q    Type
REMARK                         _______ _______ _______ _____ _____    ______ ____
ROOT
ATOM      4  N   UNL     1      -3.154  -1.380  24.614  0.00  0.00    -0.184 NA
ATOM      5  C   UNL     1      -3.301  -0.602  24.381  0.00  0.00    +0.324 C 
ATOM      6  O   UNL     1      -3.939  -0.433  23.886  0.00  0.00    -0.251 OA
ATOM      7  N   UNL     1      -2.810   0.007  24.645  0.00  0.00    -0.263 N 
ATOM      8  C   UNL     1      -2.172  -0.163  25.140  0.00  0.00    +0.095 C 
ATOM      9  C   UNL     1      -1.682   0.445  25.403  0.00  0.00    +0.022 C 
ATOM     10  C   UNL     1      -1.828   1.224  25.171  0.00  0.00    +0.012 C 
ATOM     11  C   UNL     1      -1.275   1.744  25.493  0.00  0.00    +0.085 C 
ATOM     12  C   UNL     1      -1.223   2.562  25.400  0.00  0.00    +0.226 C 
ATOM     13  O   UNL     1      -0.600   2.928  25.799  0.00  0.00    -0.275 OA
ATOM     14  N   UNL     1      -1.711   3.062  24.962  0.00  0.00    -0.281 N 
ATOM     15  C   UNL     1      -2.371   2.867  24.508  0.00  0.00    +0.093 C 
ATOM     16  C   UNL     1      -2.707   2.125  24.380  0.00  0.00    +0.023 C 
ATOM     17  C   UNL     1      -2.465   1.393  24.675  0.00  0.00    +0.022 C 
ATOM     18  C   UNL     1      -2.957   0.784  24.412  0.00  0.00    +0.095 C 
ENDROOT
BRANCH  14  19
ATOM     19  C   UNL     1      -1.512   3.862  24.979  0.00  0.00    +0.075 C 
ATOM     20  C   UNL     1      -0.823   4.125  24.607  0.00  0.00    +0.020 C 
ATOM     21  C   UNL     1      -0.625   4.924  24.625  0.00  0.00    +0.002 C 
ATOM     22  C   UNL     1      -1.114   5.463  25.015  0.00  0.00    +0.000 C 
ATOM     23  C   UNL     1      -1.802   5.200  25.387  0.00  0.00    +0.002 C 
ATOM     24  C   UNL     1      -2.001   4.401  25.369  0.00  0.00    +0.020 C 
ENDBRANCH  14  19
BRANCH   4   3
ATOM      3  C   UNL     1      -3.646  -1.989  24.350  0.00  0.00    +0.143 C 
BRANCH   3   2
ATOM      1  C   UNL     1      -3.584  -3.411  24.240  0.00  0.00    -0.003 C 
ATOM      2  C   UNL     1      -3.608  -2.732  24.707  0.00  0.00    -0.003 C 
ENDBRANCH   3   2
ENDBRANCH   4   3
TORSDOF 3
ENDMDL
MODEL 3
REMARK VINA RESULT:     -10.3      2.588      3.910
REMARK  Name = 
REMARK  3 active torsions:
REMARK  status: ('A' for Active; 'I' for Inactive)
REMARK    1  A    between atoms: C_2  and  C_3
REMARK    2  A    between atoms: C_3  and  N_4
REMARK    3  A    between atoms: N_14  and  C_19
REMARK                            x       y       z     vdW  Elec       q    Type
REMARK                         _______ _______ _______ _____ _____    ______ ____
ROOT
ATOM      4  N   UNL     1       0.299   0.418  23.240  0.00  0.00    -0.184 NA
ATOM      5  C   UNL     1      -0.305   0.291  23.787  0.00  0.00    +0.324 C 
ATOM      6  O   UNL     1      -0.234  -0.308  24.349  0.00  0.00    -0.251 OA
ATOM      7  N   UNL     1      -0.981   0.765  23.771  0.00  0.00    -0.263 N 
ATOM      8  C   UNL     1      -1.053   1.364  23.209  0.00  0.00    +0.095 C 
ATOM      9  C   UNL     1      -1.728   1.837  23.194  0.00  0.00    +0.022 C 
ATOM     10  C   UNL     1      -2.333   1.711  23.741  0.00  0.00    +0.012 C 
ATOM     11  C   UNL     1      -2.955   2.241  23.631  0.00  0.00    +0.085 C 
ATOM     12  C   UNL     1      -3.659   2.303  24.056  0.00  0.00    +0.226 C 
ATOM     13  O   UNL     1      -4.176   2.897  23.807  0.00  0.00    -0.275 OA
ATOM     14  N   UNL     1      -3.916   1.850  24.695  0.00  0.00    -0.281 N 
ATOM     15  C   UNL     1      -3.531   1.223  25.068  0.00  0.00    +0.093 C 
ATOM     16  C   UNL     1      -2.795   0.894  24.895  0.00  0.00    +0.023 C 
ATOM     17  C   UNL     1      -2.262   1.112  24.303  0.00  0.00    +0.022 C 
ATOM     18  C   UNL     1      -1.585   0.638  24.319  0.00  0.00    +0.095 C 
ENDROOT
BRANCH  14  19
ATOM     19  C   UNL     1      -4.655   2.050  25.003  0.00  0.00    +0.075 C 
ATOM     20  C   UNL     1      -4.726   2.682  25.530  0.00  0.00    +0.020 C 
ATOM     21  C   UNL     1      -5.464   2.881  25.836  0.00  0.00    +0.002 C 
ATOM     22  C   UNL     1      -6.133   2.450  25.617  0.00  0.00    +0.000 C 
ATOM     23  C   UNL     1      -6.062   1.819  25.090  0.00  0.00    +0.002 C 
ATOM     24  C   UNL     1      -5.324   1.619  24.784  0.00  0.00    +0.020 C 
ENDBRANCH  14  19
BRANCH   4   3
ATOM      3  C   UNL     1       0.975  -0.055  23.255  0.00  0.00    +0.143 C 
BRANCH   3   2
ATOM      1  C   UNL     1       2.284   0.042  22.693  0.00  0.00    -0.003 C 
ATOM      2  C   UNL     1       1.474  -0.082  22.599  0.00  0.00    -0.003 C 
ENDBRANCH   3   2
ENDBRANCH   4   3
TORSDOF 3
ENDMDL
MODEL 4
REMARK VINA RESULT:      -9.1      2.571      3.835
REMARK  Name = 
REMARK  3 active torsions:
REMARK  status: ('A' for Active; 'I' for Inactive)
REMARK    1  A    between atoms: C_2  and  C_3
REMARK    2  A    between atoms: C_3  and  N_4
REMARK    3  A    between atoms: N_14  and  C_19
REMARK                            x       y       z     vdW  Elec       q    Type
REMARK                         _______ _______ _______ _____ _____    ______ ____
ROOT
ATOM      4  N   UNL     1       1.394   0.846  23.469  0.00  0.00    -0.184 NA
ATOM      5  C   UNL     1       0.620   0.580  23.368  0.00  0.00    +0.324 C 
ATOM      6  O   UNL     1       0.470  -0.086  22.905  0.00  0.00    -0.251 OA
ATOM      7  N   UNL     1      -0.004   0.981  23.731  0.00  0.00    -0.263 N 
ATOM      8  C   UNL     1       0.147   1.646  24.195  0.00  0.00    +0.095 C 
ATOM      9  C   UNL     1      -0.477   2.046  24.557  0.00  0.00    +0.022 C 
ATOM     10  C   UNL     1      -1.252   1.781  24.457  0.00  0.00    +0.012 C 
ATOM     11  C   UNL     1      -1.789   2.256  24.863  0.00  0.00    +0.085 C 
ATOM     12  C   UNL     1      -2.609   2.183  24.908  0.00  0.00    +0.226 C 
ATOM     13  O   UNL     1      -2.994   2.753  25.365  0.00  0.00    -0.275 OA
ATOM     14  N   UNL     1      -3.095   1.617  24.556  0.00  0.00    -0.281 N 
ATOM     15  C   UNL     1      -2.881   0.984  24.073  0.00  0.00    +0.093 C 
ATOM     16  C   UNL     1      -2.128   0.760  23.822  0.00  0.00    +0.023 C 
ATOM     17  C   UNL     1      -1.402   1.115  23.993  0.00  0.00    +0.022 C 
ATOM     18  C   UNL     1      -0.778   0.714  23.630  0.00  0.00    +0.095 C 
ENDROOT
BRANCH  14  19
ATOM     19  C   UNL     1      -3.903   1.694  24.707  0.00  0.00    +0.075 C 
ATOM     20  C   UNL     1      -4.323   2.331  24.391  0.00  0.00    +0.020 C 
ATOM     21  C   UNL     1      -5.129   2.409  24.542  0.00  0.00    +0.002 C 
ATOM     22  C   UNL     1      -5.517   1.849  25.010  0.00  0.00    +0.000 C 
ATOM     23  C   UNL     1      -5.097   1.213  25.325  0.00  0.00    +0.002 C 
ATOM     24  C   UNL     1      -4.291   1.136  25.174  0.00  0.00    +0.020 C 
ENDBRANCH  14  19
BRANCH   4   3
ATOM      3  C   UNL     1       2.019   0.446  23.106  0.00  0.00    +0.143 C 
BRANCH   3   2
ATOM      1  C   UNL     1       3.393   0.394  22.721  0.00  0.00    -0.003 C 
ATOM      2  C   UNL     1       2.751   0.816  23.020  0.00  0.00    -0.003 C 
ENDBRANCH   3   2
ENDBRANCH   4   3
TORSDOF 3
ENDMDL
MODEL 5
REMARK VINA RESULT:      -8.8      3.244      3.942
REMARK  Name = 
REMARK  3 active torsions:
REMARK  status: ('A' for Active; 'I' for Inactive)
REMARK    1  A    between atoms: C_2  and  C_3
REMARK    2  A    between atoms: C_3  and  N_4
REMARK    3  A    between atoms: N_14  and  C_19
REMARK                            x       y       z     vdW  Elec       q    Type
REMARK                         _______ _______ _______ _____ _____    ______ ____
ROOT
ATOM      4  N   UNL     1       2.436   0.711  22.997  0.00  0.00    -0.184 NA
ATOM      5  C   UNL     1       1.827   0.158  23.048  0.00  0.00    +0.324 C 
ATOM      6  O   UNL     1       1.928  -0.598  22.732  0.00  0.00    -0.251 OA
ATOM      7  N   UNL     1       1.116   0.360  23.417  0.00  0.00    -0.263 N 
ATOM      8  C   UNL     1       1.016   1.115  23.733  0.00  0.00    +0.095 C 
ATOM      9  C   UNL     1       0.306   1.317  24.101  0.00  0.00    +0.022 C 
ATOM     10  C   UNL     1      -0.304   0.764  24.153  0.00  0.00    +0.012 C 
ATOM     11  C   UNL     1      -0.962   1.076  24.539  0.00  0.00    +0.085 C 
ATOM     12  C   UNL     1      -1.683   0.709  24.705  0.00  0.00    +0.226 C 
ATOM     13  O   UNL     1      -2.236   1.174  25.104  0.00  0.00    -0.275 OA
ATOM     14  N   UNL     1      -1.923  -0.059  24.525  0.00  0.00    -0.281 N 
ATOM     15  C   UNL     1      -1.502  -0.651  24.135  0.00  0.00    +0.093 C 
ATOM     16  C   UNL     1      -0.736  -0.622  23.829  0.00  0.00    +0.023 C 
ATOM     17  C   UNL     1      -0.204   0.008  23.836  0.00  0.00    +0.022 C 
ATOM     18  C   UNL     1       0.507  -0.194  23.468  0.00  0.00    +0.095 C 
ENDROOT
BRANCH  14  19
ATOM     19  C   UNL     1      -2.685  -0.262  24.768  0.00  0.00    +0.075 C 
ATOM     20  C   UNL     1      -2.799  -0.659  25.483  0.00  0.00    +0.020 C 
ATOM     21  C   UNL     1      -3.560  -0.862  25.725  0.00  0.00    +0.002 C 
ATOM     22  C   UNL     1      -4.209  -0.668  25.253  0.00  0.00    +0.000 C 
ATOM     23  C   UNL     1      -4.094  -0.272  24.538  0.00  0.00    +0.002 C 
ATOM     24  C   UNL     1      -3.333  -0.069  24.296  0.00  0.00    +0.020 C 
ENDBRANCH  14  19
BRANCH   4   3
ATOM      3  C   UNL     1       3.147   0.509  22.628  0.00  0.00    +0.143 C 
BRANCH   3   2
ATOM      1  C   UNL     1       4.546   0.689  22.853  0.00  0.00    -0.003 C 
ATOM      2  C   UNL     1       3.801   1.007  22.694  0.00  0.00    -0.003 C 
ENDBRANCH   3   2
ENDBRANCH   4   3
TORSDOF 3
ENDMDL
MODEL 6
REMARK VINA RESULT:      -8.6      2.203      2.675
REMARK  Name = 
REMARK  3 active torsions:
REMARK  status: ('A' for Active; 'I' for Inactive)
REMARK    1  A    between atoms: C_2  and  C_3
REMARK    2  A    between atoms: C_3  and  N_4
REMARK    3  A    between atoms: N_14  and  C_19
REMARK                            x       y       z     vdW  Elec       q    Type
REMARK                         _______ _______ _______ _____ _____    ______ ____
ROOT
ATOM      4  N   UNL     1      -5.251   3.425  25.236  0.00  0.00    -0.184 NA
ATOM      5  C   UNL     1      -5.292   2.637  25.477  0.00  0.00    +0.324 C 
ATOM      6  O   UNL     1      -5.825   2.412  26.064  0.00  0.00    -0.251 OA
ATOM      7  N   UNL     1      -4.798   2.073  25.129  0.00  0.00    -0.263 N 
ATOM      8  C   UNL     1      -4.265   2.298  24.542  0.00  0.00    +0.095 C 
ATOM      9  C   UNL     1      -3.772   1.736  24.195  0.00  0.00    +0.022 C 
ATOM     10  C   UNL     1      -3.813   0.947  24.434  0.00  0.00    +0.012 C 
ATOM     11  C   UNL     1      -3.276   0.477  24.020  0.00  0.00    +0.085 C 
ATOM     12  C   UNL     1      -3.141  -0.333  24.091  0.00  0.00    +0.226 C 
ATOM     13  O   UNL     1      -2.560  -0.643  23.592  0.00  0.00    -0.275 OA
ATOM     14  N   UNL     1      -3.508  -0.874  24.593  0.00  0.00    -0.281 N 
ATOM     15  C   UNL     1      -4.102  -0.739  25.149  0.00  0.00    +0.093 C 
ATOM     16  C   UNL     1      -4.475  -0.029  25.340  0.00  0.00    +0.023 C 
ATOM     17  C   UNL     1      -4.346   0.722  25.022  0.00  0.00    +0.022 C 
ATOM     18  C   UNL     1      -4.840   1.285  25.370  0.00  0.00    +0.095 C 
ENDROOT
BRANCH  14  19
ATOM     19  C   UNL     1      -3.247  -1.655  24.531  0.00  0.00    +0.075 C 
ATOM     20  C   UNL     1      -2.495  -1.861  24.802  0.00  0.00    +0.020 C 
ATOM     21  C   UNL     1      -2.234  -2.640  24.740  0.00  0.00    +0.002 C 
ATOM     22  C   UNL     1      -2.725  -3.215  24.408  0.00  0.00    +0.000 C 
ATOM     23  C   UNL     1      -3.476  -3.008  24.137  0.00  0.00    +0.002 C 
ATOM     24  C   UNL     1      -3.737  -2.229  24.199  0.00  0.00    +0.020 C 
ENDBRANCH  14  19
BRANCH   4   3
ATOM      3  C   UNL     1      -5.744   3.988  25.584  0.00  0.00    +0.143 C 
BRANCH   3   2
ATOM      1  C   UNL     1      -6.286   5.302  25.445  0.00  0.00    -0.003 C 
ATOM      2  C   UNL     1      -5.642   4.788  25.410  0.00  0.00    -0.003 C 
ENDBRANCH   3   2
ENDBRANCH   4   3
TORSDOF 3
ENDMDL
MODEL 7
REMARK VINA RESULT:      -8.0     18.009     19.512
REMARK  Name = 
REMARK  3 active torsions:
REMARK  status: ('A' for Active; 'I' for Inactive)
REMARK    1  A    between atoms: C_2  and  C_3
REMARK    2  A    between atoms: C_3  and  N_4
REMARK    3  A    between atoms: N_14  and  C_19
REMARK                            x       y       z     vdW  Elec       q    Type
REMARK                         _______ _______ _______ _____ _____    ______ ____
ROOT
ATOM      4  N   UNL     1      11.834   8.366  17.091  0.00  0.00    -0.184 NA
ATOM      5  C   UNL     1      12.640   8.465  17.236  0.00  0.00    +0.324 C 
ATOM      6  O   UNL     1      13.092   8.951  16.747  0.00  0.00    -0.251 OA
ATOM      7  N   UNL     1      12.995   8.077  17.873  0.00  0.00    -0.263 N 
ATOM      8  C   UNL     1      12.543   7.590  18.363  0.00  0.00    +0.095 C 
ATOM      9  C   UNL     1      12.897   7.203  18.999  0.00  0.00    +0.022 C 
ATOM     10  C   UNL     1      13.703   7.301  19.146  0.00  0.00    +0.012 C 
ATOM     11  C   UNL     1      13.945   6.867  19.804  0.00  0.00    +0.085 C 
ATOM     12  C   UNL     1      14.698   6.813  20.135  0.00  0.00    +0.226 C 
ATOM     13  O   UNL     1      14.762   6.328  20.800  0.00  0.00    -0.275 OA
ATOM     14  N   UNL     1      15.396   7.178  19.890  0.00  0.00    -0.281 N 
ATOM     15  C   UNL     1      15.512   7.689  19.253  0.00  0.00    +0.093 C 
ATOM     16  C   UNL     1      14.960   7.960  18.703  0.00  0.00    +0.023 C 
ATOM     17  C   UNL     1      14.155   7.787  18.656  0.00  0.00    +0.022 C 
ATOM     18  C   UNL     1      13.800   8.176  18.019  0.00  0.00    +0.095 C 
ENDROOT
BRANCH  14  19
ATOM     19  C   UNL     1      16.066   7.011  20.342  0.00  0.00    +0.075 C 
ATOM     20  C   UNL     1      16.592   6.424  20.098  0.00  0.00    +0.020 C 
ATOM     21  C   UNL     1      17.261   6.257  20.549  0.00  0.00    +0.002 C 
ATOM     22  C   UNL     1      17.405   6.677  21.245  0.00  0.00    +0.000 C 
ATOM     23  C   UNL     1      16.879   7.263  21.489  0.00  0.00    +0.002 C 
ATOM     24  C   UNL     1      16.210   7.430  21.037  0.00  0.00    +0.020 C 
ENDBRANCH  14  19
BRANCH   4   3
ATOM      3  C   UNL     1      11.480   8.755  16.454  0.00  0.00    +0.143 C 
BRANCH   3   2
ATOM      1  C   UNL     1      10.311   9.094  15.708  0.00  0.00    -0.003 C 
ATOM      2  C   UNL     1      10.662   8.718  16.353  0.00  0.00    -0.003 C 
ENDBRANCH   3   2
ENDBRANCH   4   3
TORSDOF 3
ENDMDL
MODEL 8
REMARK VINA RESULT:      -7.9      2.552      4.135
REMARK  Name = 
REMARK  3 active torsions:
REMARK  status: ('A' for Active; 'I' for Inactive)
REMARK    1  A    between atoms: C_2  and  C_3
REMARK    2  A    between atoms: C_3  and  N_4
REMARK    3  A    between atoms: N_14  and  C_19
REMARK                            x       y       z     vdW  Elec       q    Type
REMARK                         _______ _______ _______ _____ _____    ______ ____
ROOT
ATOM      4  N   UNL     1      -4.617   1.691  24.987  0.00  0.00    -0.184 NA
ATOM      5  C   UNL     1      -3.980   1.905  24.508  0.00  0.00    +0.324 C 
ATOM      6  O   UNL     1      -4.030   2.578  24.032  0.00  0.00    -0.251 OA
ATOM      7  N   UNL     1      -3.294   1.447  24.505  0.00  0.00    -0.263 N 
ATOM      8  C   UNL     1      -3.244   0.775  24.981  0.00  0.00    +0.095 C 
ATOM      9  C   UNL     1      -2.559   0.317  24.978  0.00  0.00    +0.022 C 
ATOM     10  C   UNL     1      -1.921   0.531  24.500  0.00  0.00    +0.012 C 
ATOM     11  C   UNL     1      -1.293   0.002  24.579  0.00  0.00    +0.085 C 
ATOM     12  C   UNL     1      -0.560   0.015  24.202  0.00  0.00    +0.226 C 
ATOM     13  O   UNL     1      -0.045  -0.599  24.402  0.00  0.00    -0.275 OA
ATOM     14  N   UNL     1      -0.272   0.559  23.653  0.00  0.00    -0.281 N 
ATOM     15  C   UNL     1      -0.648   1.226  23.345  0.00  0.00    +0.093 C 
ATOM     16  C   UNL     1      -1.404   1.513  23.510  0.00  0.00    +0.023 C 
ATOM     17  C   UNL     1      -1.970   1.203  24.024  0.00  0.00    +0.022 C 
ATOM     18  C   UNL     1      -2.657   1.662  24.027  0.00  0.00    +0.095 C 
ENDROOT
BRANCH  14  19
ATOM     19  C   UNL     1       0.492   0.419  23.375  0.00  0.00    +0.075 C 
ATOM     20  C   UNL     1       1.126   0.856  23.672  0.00  0.00    +0.020 C 
ATOM     21  C   UNL     1       1.889   0.716  23.395  0.00  0.00    +0.002 C 
ATOM     22  C   UNL     1       2.020   0.137  22.820  0.00  0.00    +0.000 C 
ATOM     23  C   UNL     1       1.385  -0.299  22.524  0.00  0.00    +0.002 C 
ATOM     24  C   UNL     1       0.622  -0.159  22.801  0.00  0.00    +0.020 C 
ENDBRANCH  14  19
BRANCH   4   3
ATOM      3  C   UNL     1      -5.304   2.149  24.989  0.00  0.00    +0.143 C 
BRANCH   3   2
ATOM      1  C   UNL     1      -6.277   2.240  26.030  0.00  0.00    -0.003 C 
ATOM      2  C   UNL     1      -5.986   1.866  25.355  0.00  0.00    -0.003 C 
ENDBRANCH   3   2
ENDBRANCH   4   3
TORSDOF 3
ENDMDL
MODEL 9
REMARK VINA RESULT:      -7.7     15.625     18.390
REMARK  Name = 
REMARK  3 active torsions:
REMARK  status: ('A' for Active; 'I' for Inactive)
REMARK    1  A    between atoms: C_2  and  C_3
REMARK    2  A    between atoms: C_3  and  N_4
REMARK    3  A    between atoms: N_14  and  C_19
REMARK                            x       y       z     vdW  Elec       q    Type
REMARK                         _______ _______ _______ _____ _____    ______ ____
ROOT
ATOM      4  N   UNL     1      16.176   6.226  19.349  0.00  0.00    -0.184 NA
ATOM      5  C   UNL     1      15.798   6.457  20.045  0.00  0.00    +0.324 C 
ATOM      6  O   UNL     1      16.211   6.455  20.759  0.00  0.00    -0.251 OA
ATOM      7  N   UNL     1      15.007   6.692  20.026  0.00  0.00    -0.263 N 
ATOM      8  C   UNL     1      14.594   6.695  19.312  0.00  0.00    +0.095 C 
ATOM      9  C   UNL     1      13.804   6.929  19.293  0.00  0.00    +0.022 C 
ATOM     10  C   UNL     1      13.425   7.161  19.989  0.00  0.00    +0.012 C 
ATOM     11  C   UNL     1      12.640   7.373  19.849  0.00  0.00    +0.085 C 
ATOM     12  C   UNL     1      12.075   7.634  20.389  0.00  0.00    +0.226 C 
ATOM     13  O   UNL     1      11.331   7.804  20.073  0.00  0.00    -0.275 OA
ATOM     14  N   UNL     1      12.153   7.748  21.202  0.00  0.00    -0.281 N 
ATOM     15  C   UNL     1      12.818   7.629  21.676  0.00  0.00    +0.093 C 
ATOM     16  C   UNL     1      13.568   7.366  21.455  0.00  0.00    +0.023 C 
ATOM     17  C   UNL     1      13.838   7.158  20.703  0.00  0.00    +0.022 C 
ATOM     18  C   UNL     1      14.629   6.923  20.722  0.00  0.00    +0.095 C 
ENDROOT
BRANCH  14  19
ATOM     19  C   UNL     1      11.478   8.017  21.593  0.00  0.00    +0.075 C 
ATOM     20  C   UNL     1      11.310   8.825  21.618  0.00  0.00    +0.020 C 
ATOM     21  C   UNL     1      10.636   9.094  22.008  0.00  0.00    +0.002 C 
ATOM     22  C   UNL     1      10.128   8.555  22.375  0.00  0.00    +0.000 C 
ATOM     23  C   UNL     1      10.297   7.748  22.349  0.00  0.00    +0.002 C 
ATOM     24  C   UNL     1      10.971   7.479  21.959  0.00  0.00    +0.020 C 
ENDBRANCH  14  19
BRANCH   4   3
ATOM      3  C   UNL     1      16.967   5.992  19.368  0.00  0.00    +0.143 C 
BRANCH   3   2
ATOM      1  C   UNL     1      17.339   5.310  18.169  0.00  0.00    -0.003 C 
ATOM      2  C   UNL     1      17.405   5.963  18.670  0.00  0.00    -0.003 C 
ENDBRANCH   3   2
ENDBRANCH   4   3
TORSDOF 3
ENDMDL
