REMARK  Name = 
REMARK  10 active torsions:
REMARK  status: ('A' for Active; 'I' for Inactive)
REMARK    1  A    between atoms: S_2  and  C_3
REMARK    2  A    between atoms: C_3  and  C_4
REMARK    3  A    between atoms: C_9  and  N_10
REMARK    4  A    between atoms: N_13  and  C_14
REMARK    5  A    between atoms: C_16  and  S_17
REMARK    6  A    between atoms: C_22  and  C_23
REMARK    7  A    between atoms: N_25  and  C_26
REMARK    8  A    between atoms: C_26  and  C_27
REMARK    9  A    between atoms: C_26  and  C_34
REMARK   10  A    between atoms: C_27  and  C_28
REMARK                            x       y       z     vdW  Elec       q    Type
REMARK                         _______ _______ _______ _____ _____    ______ ____
ROOT
ATOM      4  C   UNL     1       1.241  -5.085   0.000  0.00  0.00    +0.237 C 
ATOM      5  O   UNL     1       1.070  -5.892   0.000  0.00  0.00    -0.274 OA
ATOM      6  N   UNL     1       0.628  -4.533   0.000  0.00  0.00    -0.271 N 
ATOM      7  C   UNL     1      -0.179  -4.705   0.000  0.00  0.00    +0.096 C 
ATOM      8  C   UNL     1      -0.591  -3.990   0.000  0.00  0.00    +0.045 C 
ATOM      9  C   UNL     1      -0.039  -3.377   0.000  0.00  0.00    +0.126 C 
ATOM     22  C   UNL     1       0.715  -3.712   0.000  0.00  0.00    +0.174 C 
ENDROOT
BRANCH   9  10
ATOM     10  N   UNL     1      -0.211  -2.570   0.000  0.00  0.00    -0.186 NA
ATOM     11  C   UNL     1      -0.995  -2.315   0.000  0.00  0.00    +0.344 C 
ATOM     12  O   UNL     1      -1.608  -2.867   0.000  0.00  0.00    -0.249 OA
ATOM     13  N   UNL     1      -1.167  -1.508   0.000  0.00  0.00    -0.161 NA
BRANCH  13  14
ATOM     14  C   UNL     1      -1.952  -1.253   0.000  0.00  0.00    +0.075 A 
ATOM     15  C   UNL     1      -2.565  -1.805   0.000  0.00  0.00    +0.023 A 
ATOM     16  C   UNL     1      -3.349  -1.550   0.000  0.00  0.00    +0.027 A 
ATOM     19  C   UNL     1      -3.521  -0.743   0.000  0.00  0.00    +0.006 A 
ATOM     20  C   UNL     1      -2.908  -0.191   0.000  0.00  0.00    +0.002 A 
ATOM     21  C   UNL     1      -2.123  -0.446   0.000  0.00  0.00    +0.017 A 
BRANCH  16  17
ATOM     17  S   UNL     1      -3.962  -2.102   0.000  0.00  0.00    -0.113 S 
ATOM     18  C   UNL     1      -4.747  -1.847   0.000  0.00  0.00    +0.074 C 
ENDBRANCH  16  17
ENDBRANCH  13  14
ENDBRANCH   9  10
BRANCH  22  23
ATOM     23  C   UNL     1       1.429  -3.300   0.000  0.00  0.00    +0.262 C 
ATOM     24  O   UNL     1       2.143  -3.712   0.000  0.00  0.00    -0.271 OA
ATOM     25  N   UNL     1       1.429  -2.475   0.000  0.00  0.00    -0.196 NA
BRANCH  25  26
ATOM     26  C   UNL     1       2.143  -2.062   0.000  0.00  0.00    +0.179 C 
BRANCH  26  34
ATOM     34  C   UNL     1       2.858  -2.475   0.000  0.00  0.00    +0.281 C 
ATOM     35  N   UNL     1       3.572  -2.062   0.000  0.00  0.00    -0.086 NA
ATOM     36  O   UNL     1       2.858  -3.300   0.000  0.00  0.00    -0.270 OA
ENDBRANCH  26  34
BRANCH  26  27
ATOM     27  C   UNL     1       2.143  -1.238   0.000  0.00  0.00    +0.057 C 
BRANCH  27  28
ATOM     28  C   UNL     1       2.858  -0.825   0.000  0.00  0.00    -0.020 A 
ATOM     29  C   UNL     1       2.858   0.000   0.000  0.00  0.00    -0.004 A 
ATOM     30  C   UNL     1       3.572   0.412   0.000  0.00  0.00    -0.000 A 
ATOM     31  C   UNL     1       4.287   0.000   0.000  0.00  0.00    -0.000 A 
ATOM     32  C   UNL     1       4.287  -0.825   0.000  0.00  0.00    -0.000 A 
ATOM     33  C   UNL     1       3.572  -1.238   0.000  0.00  0.00    -0.004 A 
ENDBRANCH  27  28
ENDBRANCH  26  27
ENDBRANCH  25  26
ENDBRANCH  22  23
BRANCH   4   3
ATOM      3  C   UNL     1       2.026  -4.830   0.000  0.00  0.00    +0.143 C 
BRANCH   3   2
ATOM      1  C   UNL     1       3.424  -5.127   0.000  0.00  0.00    +0.070 C 
ATOM      2  S   UNL     1       2.639  -5.382   0.000  0.00  0.00    -0.130 S 
ENDBRANCH   3   2
ENDBRANCH   4   3
TORSDOF 10
