MODEL 1
REMARK VINA RESULT:     -12.9      0.000      0.000
REMARK  Name = 
REMARK  7 active torsions:
REMARK  status: ('A' for Active; 'I' for Inactive)
REMARK    1  A    between atoms: O_2  and  C_3
REMARK    2  A    between atoms: C_8  and  N_9
REMARK    3  A    between atoms: C_15  and  C_17
REMARK    4  A    between atoms: C_17  and  C_18
REMARK    5  A    between atoms: C_23  and  C_24
REMARK    6  A    between atoms: C_24  and  C_25
REMARK    7  A    between atoms: C_28  and  C_30
REMARK                            x       y       z     vdW  Elec       q    Type
REMARK                         _______ _______ _______ _____ _____    ______ ____
ROOT
ATOM     18  C   UNL     1      -0.929   3.655  25.203  0.00  0.00    +0.012 C 
ATOM     19  C   UNL     1      -0.421   4.053  24.690  0.00  0.00    +0.019 C 
ATOM     20  C   UNL     1      -0.537   4.855  24.534  0.00  0.00    +0.089 C 
ATOM     21  N   UNL     1      -1.163   5.258  24.891  0.00  0.00    -0.218 NA
ATOM     22  C   UNL     1      -1.671   4.859  25.404  0.00  0.00    +0.089 C 
ATOM     23  C   UNL     1      -1.555   4.058  25.560  0.00  0.00    +0.024 C 
ENDROOT
BRANCH  18  17
ATOM     17  C   UNL     1      -0.812   2.853  25.358  0.00  0.00    +0.085 C 
BRANCH  17  15
ATOM      9  N   UNL     1      -0.894  -0.076  24.848  0.00  0.00    -0.302 N 
ATOM     10  C   UNL     1      -0.431   0.248  24.249  0.00  0.00    +0.112 C 
ATOM     11  C   UNL     1      -0.294   1.061  24.226  0.00  0.00    +0.115 C 
ATOM     12  N   UNL     1      -0.622   1.551  24.803  0.00  0.00    -0.276 N 
ATOM     13  C   UNL     1      -1.086   1.226  25.404  0.00  0.00    +0.115 C 
ATOM     14  C   UNL     1      -1.222   0.413  25.426  0.00  0.00    +0.112 C 
ATOM     15  C   UNL     1      -0.485   2.365  24.781  0.00  0.00    +0.226 C 
ATOM     16  O   UNL     1      -0.021   2.688  24.180  0.00  0.00    -0.275 OA
BRANCH   9   8
ATOM      3  C   UNL     1      -1.766  -1.191  24.650  0.00  0.00    +0.152 A 
ATOM      4  C   UNL     1      -1.902  -2.004  24.673  0.00  0.00    +0.038 A 
ATOM      5  C   UNL     1      -1.303  -2.516  24.917  0.00  0.00    +0.003 A 
ATOM      6  C   UNL     1      -0.567  -2.215  25.138  0.00  0.00    +0.001 A 
ATOM      7  C   UNL     1      -0.431  -1.401  25.115  0.00  0.00    +0.018 A 
ATOM      8  C   UNL     1      -1.031  -0.889  24.871  0.00  0.00    +0.082 A 
BRANCH   3   2
ATOM      1  C   UNL     1      -3.112  -0.976  24.220  0.00  0.00    +0.253 C 
ATOM      2  O   UNL     1      -2.365  -0.679  24.406  0.00  0.00    -0.470 OA
ENDBRANCH   3   2
ENDBRANCH   9   8
ENDBRANCH  17  15
ENDBRANCH  18  17
BRANCH  23  24
ATOM     24  C   UNL     1      -2.063   3.659  26.072  0.00  0.00    +0.051 C 
BRANCH  24  25
ATOM     25  C   UNL     1      -2.880   3.697  25.956  0.00  0.00    +0.101 A 
ATOM     26  N   UNL     1      -3.355   4.360  26.072  0.00  0.00    -0.081 NA
ATOM     27  O   UNL     1      -4.133   4.152  25.891  0.00  0.00    -0.354 OA
ATOM     28  C   UNL     1      -4.137   3.359  25.662  0.00  0.00    +0.177 A 
ATOM     29  C   UNL     1      -3.362   3.078  25.702  0.00  0.00    +0.058 A 
BRANCH  28  30
ATOM     30  C   UNL     1      -4.800   2.924  25.434  0.00  0.00    +0.037 A 
ATOM     31  C   UNL     1      -5.495   2.969  25.876  0.00  0.00    +0.005 A 
ATOM     32  C   UNL     1      -6.158   2.534  25.647  0.00  0.00    +0.030 A 
ATOM     33  C   UNL     1      -6.124   2.054  24.976  0.00  0.00    +0.140 A 
ATOM     34  F   UNL     1      -6.787   1.619  24.747  0.00  0.00    -0.204 F 
ATOM     35  C   UNL     1      -5.430   2.009  24.535  0.00  0.00    +0.030 A 
ATOM     36  C   UNL     1      -4.766   2.445  24.763  0.00  0.00    +0.005 A 
ENDBRANCH  28  30
ENDBRANCH  24  25
ENDBRANCH  23  24
TORSDOF 7
ENDMDL
MODEL 2
REMARK VINA RESULT:     -12.1      1.549      4.908
REMARK  Name = 
REMARK  7 active torsions:
REMARK  status: ('A' for Active; 'I' for Inactive)
REMARK    1  A    between atoms: O_2  and  C_3
REMARK    2  A    between atoms: C_8  and  N_9
REMARK    3  A    between atoms: C_15  and  C_17
REMARK    4  A    between atoms: C_17  and  C_18
REMARK    5  A    between atoms: C_23  and  C_24
REMARK    6  A    between atoms: C_24  and  C_25
REMARK    7  A    between atoms: C_28  and  C_30
REMARK                            x       y       z     vdW  Elec       q    Type
REMARK                         _______ _______ _______ _____ _____    ______ ____
ROOT
ATOM     18  C   UNL     1       0.017   0.497  24.285  0.00  0.00    +0.012 C 
ATOM     19  C   UNL     1       0.440   0.810  23.650  0.00  0.00    +0.019 C 
ATOM     20  C   UNL     1       0.793   0.305  23.101  0.00  0.00    +0.089 C 
ATOM     21  N   UNL     1       0.722  -0.512  23.187  0.00  0.00    -0.218 NA
ATOM     22  C   UNL     1       0.299  -0.825  23.822  0.00  0.00    +0.089 C 
ATOM     23  C   UNL     1      -0.054  -0.320  24.371  0.00  0.00    +0.024 C 
ENDROOT
BRANCH  18  17
ATOM     17  C   UNL     1      -0.336   1.002  24.833  0.00  0.00    +0.085 C 
BRANCH  17  15
ATOM      9  N   UNL     1      -2.387   3.123  25.213  0.00  0.00    -0.302 N 
ATOM     10  C   UNL     1      -1.721   3.500  24.905  0.00  0.00    +0.112 C 
ATOM     11  C   UNL     1      -1.042   3.065  24.733  0.00  0.00    +0.115 C 
ATOM     12  N   UNL     1      -1.029   2.251  24.869  0.00  0.00    -0.276 N 
ATOM     13  C   UNL     1      -1.695   1.873  25.178  0.00  0.00    +0.115 C 
ATOM     14  C   UNL     1      -2.373   2.310  25.349  0.00  0.00    +0.112 C 
ATOM     15  C   UNL     1      -0.349   1.815  24.697  0.00  0.00    +0.226 C 
ATOM     16  O   UNL     1       0.316   2.193  24.389  0.00  0.00    -0.275 OA
BRANCH   9   8
ATOM      3  C   UNL     1      -3.679   3.602  24.835  0.00  0.00    +0.152 A 
ATOM      4  C   UNL     1      -4.357   4.038  25.006  0.00  0.00    +0.038 A 
ATOM      5  C   UNL     1      -4.423   4.431  25.729  0.00  0.00    +0.003 A 
ATOM      6  C   UNL     1      -3.810   4.388  26.280  0.00  0.00    +0.001 A 
ATOM      7  C   UNL     1      -3.131   3.952  26.107  0.00  0.00    +0.018 A 
ATOM      8  C   UNL     1      -3.065   3.559  25.385  0.00  0.00    +0.082 A 
BRANCH   3   2
ATOM      1  C   UNL     1      -4.225   3.253  23.561  0.00  0.00    +0.253 C 
ATOM      2  O   UNL     1      -3.613   3.210  24.112  0.00  0.00    -0.470 OA
ENDBRANCH   3   2
ENDBRANCH   9   8
ENDBRANCH  17  15
ENDBRANCH  18  17
BRANCH  23  24
ATOM     24  C   UNL     1      -0.477  -0.633  25.006  0.00  0.00    +0.051 C 
BRANCH  24  25
ATOM     25  C   UNL     1      -1.013  -1.249  24.882  0.00  0.00    +0.101 A 
ATOM     26  N   UNL     1      -0.856  -2.053  24.975  0.00  0.00    -0.081 NA
ATOM     27  O   UNL     1      -1.545  -2.469  24.793  0.00  0.00    -0.354 OA
ATOM     28  C   UNL     1      -2.127  -1.922  24.588  0.00  0.00    +0.177 A 
ATOM     29  C   UNL     1      -1.798  -1.167  24.643  0.00  0.00    +0.058 A 
BRANCH  28  30
ATOM     30  C   UNL     1      -2.903  -2.098  24.367  0.00  0.00    +0.037 A 
ATOM     31  C   UNL     1      -3.170  -2.878  24.389  0.00  0.00    +0.005 A 
ATOM     32  C   UNL     1      -3.946  -3.055  24.168  0.00  0.00    +0.030 A 
ATOM     33  C   UNL     1      -4.452  -2.450  23.924  0.00  0.00    +0.140 A 
ATOM     34  F   UNL     1      -5.228  -2.627  23.703  0.00  0.00    -0.204 F 
ATOM     35  C   UNL     1      -4.184  -1.671  23.902  0.00  0.00    +0.030 A 
ATOM     36  C   UNL     1      -3.409  -1.495  24.124  0.00  0.00    +0.005 A 
ENDBRANCH  28  30
ENDBRANCH  24  25
ENDBRANCH  23  24
TORSDOF 7
ENDMDL
MODEL 3
REMARK VINA RESULT:     -12.0      1.958      3.926
REMARK  Name = 
REMARK  7 active torsions:
REMARK  status: ('A' for Active; 'I' for Inactive)
REMARK    1  A    between atoms: O_2  and  C_3
REMARK    2  A    between atoms: C_8  and  N_9
REMARK    3  A    between atoms: C_15  and  C_17
REMARK    4  A    between atoms: C_17  and  C_18
REMARK    5  A    between atoms: C_23  and  C_24
REMARK    6  A    between atoms: C_24  and  C_25
REMARK    7  A    between atoms: C_28  and  C_30
REMARK                            x       y       z     vdW  Elec       q    Type
REMARK                         _______ _______ _______ _____ _____    ______ ____
ROOT
ATOM     18  C   UNL     1      -5.003   2.458  25.009  0.00  0.00    +0.012 C 
ATOM     19  C   UNL     1      -5.675   2.499  25.485  0.00  0.00    +0.019 C 
ATOM     20  C   UNL     1      -5.937   3.230  25.767  0.00  0.00    +0.089 C 
ATOM     21  N   UNL     1      -5.526   3.918  25.572  0.00  0.00    -0.218 NA
ATOM     22  C   UNL     1      -4.854   3.876  25.096  0.00  0.00    +0.089 C 
ATOM     23  C   UNL     1      -4.592   3.147  24.815  0.00  0.00    +0.024 C 
ENDROOT
BRANCH  18  17
ATOM     17  C   UNL     1      -4.741   1.728  24.728  0.00  0.00    +0.085 C 
BRANCH  17  15
ATOM      9  N   UNL     1      -3.507  -0.978  24.708  0.00  0.00    -0.302 N 
ATOM     10  C   UNL     1      -4.057  -0.982  25.322  0.00  0.00    +0.112 C 
ATOM     11  C   UNL     1      -4.503  -0.306  25.481  0.00  0.00    +0.115 C 
ATOM     12  N   UNL     1      -4.399   0.373  25.025  0.00  0.00    -0.276 N 
ATOM     13  C   UNL     1      -3.848   0.377  24.410  0.00  0.00    +0.115 C 
ATOM     14  C   UNL     1      -3.402  -0.298  24.252  0.00  0.00    +0.112 C 
ATOM     15  C   UNL     1      -4.845   1.050  25.184  0.00  0.00    +0.226 C 
ATOM     16  O   UNL     1      -5.396   1.045  25.798  0.00  0.00    -0.275 OA
BRANCH   9   8
ATOM      3  C   UNL     1      -2.257  -1.671  24.737  0.00  0.00    +0.152 A 
ATOM      4  C   UNL     1      -1.812  -2.346  24.579  0.00  0.00    +0.038 A 
ATOM      5  C   UNL     1      -2.169  -3.004  24.233  0.00  0.00    +0.003 A 
ATOM      6  C   UNL     1      -2.972  -2.988  24.045  0.00  0.00    +0.001 A 
ATOM      7  C   UNL     1      -3.418  -2.311  24.204  0.00  0.00    +0.018 A 
ATOM      8  C   UNL     1      -3.061  -1.653  24.550  0.00  0.00    +0.082 A 
BRANCH   3   2
ATOM      1  C   UNL     1      -1.104  -1.040  25.298  0.00  0.00    +0.253 C 
ATOM      2  O   UNL     1      -1.900  -1.013  25.083  0.00  0.00    -0.470 OA
ENDBRANCH   3   2
ENDBRANCH   9   8
ENDBRANCH  17  15
ENDBRANCH  18  17
BRANCH  23  24
ATOM     24  C   UNL     1      -3.920   3.105  24.339  0.00  0.00    +0.051 C 
BRANCH  24  25
ATOM     25  C   UNL     1      -3.199   3.397  24.617  0.00  0.00    +0.101 A 
ATOM     26  N   UNL     1      -2.981   4.191  24.657  0.00  0.00    -0.081 NA
ATOM     27  O   UNL     1      -2.218   4.230  24.968  0.00  0.00    -0.354 OA
ATOM     28  C   UNL     1      -1.964   3.460  25.119  0.00  0.00    +0.177 A 
ATOM     29  C   UNL     1      -2.571   2.945  24.902  0.00  0.00    +0.058 A 
BRANCH  28  30
ATOM     30  C   UNL     1      -1.232   3.243  25.433  0.00  0.00    +0.037 A 
ATOM     31  C   UNL     1      -0.537   3.467  25.049  0.00  0.00    +0.005 A 
ATOM     32  C   UNL     1       0.195   3.250  25.363  0.00  0.00    +0.030 A 
ATOM     33  C   UNL     1       0.230   2.809  26.060  0.00  0.00    +0.140 A 
ATOM     34  F   UNL     1       0.963   2.592  26.374  0.00  0.00    -0.204 F 
ATOM     35  C   UNL     1      -0.465   2.586  26.443  0.00  0.00    +0.030 A 
ATOM     36  C   UNL     1      -1.197   2.803  26.129  0.00  0.00    +0.005 A 
ENDBRANCH  28  30
ENDBRANCH  24  25
ENDBRANCH  23  24
TORSDOF 7
ENDMDL
MODEL 4
REMARK VINA RESULT:     -11.6      1.839      3.360
REMARK  Name = 
REMARK  7 active torsions:
REMARK  status: ('A' for Active; 'I' for Inactive)
REMARK    1  A    between atoms: O_2  and  C_3
REMARK    2  A    between atoms: C_8  and  N_9
REMARK    3  A    between atoms: C_15  and  C_17
REMARK    4  A    between atoms: C_17  and  C_18
REMARK    5  A    between atoms: C_23  and  C_24
REMARK    6  A    between atoms: C_24  and  C_25
REMARK    7  A    between atoms: C_28  and  C_30
REMARK                            x       y       z     vdW  Elec       q    Type
REMARK                         _______ _______ _______ _____ _____    ______ ____
ROOT
ATOM     18  C   UNL     1      -3.145   3.125  25.067  0.00  0.00    +0.012 C 
ATOM     19  C   UNL     1      -3.087   3.699  25.657  0.00  0.00    +0.019 C 
ATOM     20  C   UNL     1      -3.758   3.921  26.083  0.00  0.00    +0.089 C 
ATOM     21  N   UNL     1      -4.486   3.570  25.919  0.00  0.00    -0.218 NA
ATOM     22  C   UNL     1      -4.543   2.996  25.329  0.00  0.00    +0.089 C 
ATOM     23  C   UNL     1      -3.873   2.774  24.903  0.00  0.00    +0.024 C 
ENDROOT
BRANCH  18  17
ATOM     17  C   UNL     1      -2.474   2.904  24.642  0.00  0.00    +0.085 C 
BRANCH  17  15
ATOM      9  N   UNL     1       0.065   1.476  24.037  0.00  0.00    -0.302 N 
ATOM     10  C   UNL     1       0.193   1.881  24.743  0.00  0.00    +0.112 C 
ATOM     11  C   UNL     1      -0.410   2.339  25.072  0.00  0.00    +0.115 C 
ATOM     12  N   UNL     1      -1.140   2.392  24.693  0.00  0.00    -0.276 N 
ATOM     13  C   UNL     1      -1.269   1.987  23.985  0.00  0.00    +0.115 C 
ATOM     14  C   UNL     1      -0.666   1.528  23.658  0.00  0.00    +0.112 C 
ATOM     15  C   UNL     1      -1.744   2.851  25.020  0.00  0.00    +0.226 C 
ATOM     16  O   UNL     1      -1.615   3.256  25.727  0.00  0.00    -0.275 OA
BRANCH   9   8
ATOM      3  C   UNL     1       0.581   0.198  23.658  0.00  0.00    +0.152 A 
ATOM      4  C   UNL     1       1.183  -0.260  23.330  0.00  0.00    +0.038 A 
ATOM      5  C   UNL     1       1.872   0.101  23.053  0.00  0.00    +0.003 A 
ATOM      6  C   UNL     1       1.958   0.920  23.104  0.00  0.00    +0.001 A 
ATOM      7  C   UNL     1       1.355   1.378  23.432  0.00  0.00    +0.018 A 
ATOM      8  C   UNL     1       0.667   1.017  23.709  0.00  0.00    +0.082 A 
BRANCH   3   2
ATOM      1  C   UNL     1      -0.153  -0.985  23.978  0.00  0.00    +0.253 C 
ATOM      2  O   UNL     1      -0.107  -0.162  23.935  0.00  0.00    -0.470 OA
ENDBRANCH   3   2
ENDBRANCH   9   8
ENDBRANCH  17  15
ENDBRANCH  18  17
BRANCH  23  24
ATOM     24  C   UNL     1      -3.930   2.201  24.314  0.00  0.00    +0.051 C 
BRANCH  24  25
ATOM     25  C   UNL     1      -4.222   1.450  24.495  0.00  0.00    +0.101 A 
ATOM     26  N   UNL     1      -4.973   1.281  24.790  0.00  0.00    -0.081 NA
ATOM     27  O   UNL     1      -5.029   0.463  24.890  0.00  0.00    -0.354 OA
ATOM     28  C   UNL     1      -4.312   0.128  24.656  0.00  0.00    +0.177 A 
ATOM     29  C   UNL     1      -3.813   0.738  24.412  0.00  0.00    +0.058 A 
BRANCH  28  30
ATOM     30  C   UNL     1      -4.127  -0.677  24.665  0.00  0.00    +0.037 A 
ATOM     31  C   UNL     1      -4.318  -1.151  24.018  0.00  0.00    +0.005 A 
ATOM     32  C   UNL     1      -4.133  -1.955  24.028  0.00  0.00    +0.030 A 
ATOM     33  C   UNL     1      -3.757  -2.284  24.685  0.00  0.00    +0.140 A 
ATOM     34  F   UNL     1      -3.572  -3.088  24.694  0.00  0.00    -0.204 F 
ATOM     35  C   UNL     1      -3.567  -1.809  25.331  0.00  0.00    +0.030 A 
ATOM     36  C   UNL     1      -3.752  -1.005  25.322  0.00  0.00    +0.005 A 
ENDBRANCH  28  30
ENDBRANCH  24  25
ENDBRANCH  23  24
TORSDOF 7
ENDMDL
