MODEL 1
REMARK VINA RESULT:     -15.9      0.000      0.000
REMARK  Name = 
REMARK  2 active torsions:
REMARK  status: ('A' for Active; 'I' for Inactive)
REMARK    1  A    between atoms: C_5  and  N_6
REMARK    2  A    between atoms: N_9  and  C_10
REMARK                            x       y       z     vdW  Elec       q    Type
REMARK                         _______ _______ _______ _____ _____    ______ ____
ROOT
ATOM     10  C   UNL     1      -3.623   1.705  24.841  0.00  0.00    +0.131 A 
ATOM     11  C   UNL     1      -2.891   1.355  24.693  0.00  0.00    +0.023 A 
ATOM     12  C   UNL     1      -2.196   1.784  24.813  0.00  0.00    +0.014 A 
ATOM     13  C   UNL     1      -2.235   2.563  25.081  0.00  0.00    +0.041 A 
ATOM     14  C   UNL     1      -1.690   3.270  25.302  0.00  0.00    +0.058 C 
ATOM     15  C   UNL     1      -1.014   3.453  25.339  0.00  0.00    +0.011 C 
ATOM     16  C   UNL     1      -1.739   3.795  25.484  0.00  0.00    +0.043 C 
ATOM     17  C   UNL     1      -2.505   4.375  25.712  0.00  0.00    +0.096 C 
ATOM     18  N   UNL     1      -3.133   3.845  25.555  0.00  0.00    -0.278 N 
ATOM     19  C   UNL     1      -2.421   3.842  25.526  0.00  0.00    +0.099 C 
ATOM     20  C   UNL     1      -3.907   3.567  25.489  0.00  0.00    +0.220 A 
ATOM     21  N   UNL     1      -4.539   4.060  25.682  0.00  0.00    -0.212 NA
ATOM     22  C   UNL     1      -5.314   3.782  25.617  0.00  0.00    +0.103 A 
ATOM     23  C   UNL     1      -5.455   3.011  25.358  0.00  0.00    +0.041 A 
ATOM     24  C   UNL     1      -4.822   2.519  25.165  0.00  0.00    +0.103 A 
ATOM     25  N   UNL     1      -4.048   2.796  25.231  0.00  0.00    -0.212 NA
ATOM     26  C   UNL     1      -2.316   3.062  25.255  0.00  0.00    +0.110 C 
ATOM     27  N   UNL     1      -2.968   2.913  25.229  0.00  0.00    -0.298 N 
ATOM     28  C   UNL     1      -3.662   2.484  25.109  0.00  0.00    +0.276 A 
ATOM     29  O   UNL     1      -4.476   2.356  25.096  0.00  0.00    -0.266 OA
ENDROOT
BRANCH  10   9
ATOM      6  N   UNL     1      -3.579   0.055  24.819  0.00  0.00    -0.161 NA
ATOM      7  C   UNL     1      -4.295   0.451  24.709  0.00  0.00    +0.348 C 
ATOM      8  O   UNL     1      -4.989   0.021  24.588  0.00  0.00    -0.248 OA
ATOM      9  N   UNL     1      -4.316   1.275  24.720  0.00  0.00    -0.156 NA
BRANCH   6   5
ATOM      1 CL   UNL     1      -3.493  -3.243  24.777  0.00  0.00    -0.082 Cl
ATOM      2  C   UNL     1      -3.514  -2.419  24.787  0.00  0.00    +0.058 A 
ATOM      3  C   UNL     1      -3.403  -2.012  25.496  0.00  0.00    +0.013 A 
ATOM      4  C   UNL     1      -3.424  -1.188  25.507  0.00  0.00    +0.018 A 
ATOM      5  C   UNL     1      -3.557  -0.770  24.808  0.00  0.00    +0.075 A 
ATOM     30  C   UNL     1      -3.669  -1.176  24.099  0.00  0.00    +0.018 A 
ATOM     31  C   UNL     1      -3.647  -2.001  24.088  0.00  0.00    +0.013 A 
ENDBRANCH   6   5
ENDBRANCH  10   9
TORSDOF 2
ENDMDL
MODEL 2
REMARK VINA RESULT:     -15.8      0.862      2.209
REMARK  Name = 
REMARK  2 active torsions:
REMARK  status: ('A' for Active; 'I' for Inactive)
REMARK    1  A    between atoms: C_5  and  N_6
REMARK    2  A    between atoms: N_9  and  C_10
REMARK                            x       y       z     vdW  Elec       q    Type
REMARK                         _______ _______ _______ _____ _____    ______ ____
ROOT
ATOM     10  C   UNL     1      -3.532   1.417  24.712  0.00  0.00    +0.131 A 
ATOM     11  C   UNL     1      -4.265   1.042  24.757  0.00  0.00    +0.023 A 
ATOM     12  C   UNL     1      -4.931   1.464  24.999  0.00  0.00    +0.014 A 
ATOM     13  C   UNL     1      -4.864   2.262  25.195  0.00  0.00    +0.041 A 
ATOM     14  C   UNL     1      -5.373   2.972  25.482  0.00  0.00    +0.058 C 
ATOM     15  C   UNL     1      -6.031   3.143  25.656  0.00  0.00    +0.011 C 
ATOM     16  C   UNL     1      -5.305   3.511  25.610  0.00  0.00    +0.043 C 
ATOM     17  C   UNL     1      -4.530   4.123  25.618  0.00  0.00    +0.096 C 
ATOM     18  N   UNL     1      -3.933   3.597  25.362  0.00  0.00    -0.278 N 
ATOM     19  C   UNL     1      -4.633   3.576  25.495  0.00  0.00    +0.099 C 
ATOM     20  C   UNL     1      -3.183   3.331  25.145  0.00  0.00    +0.220 A 
ATOM     21  N   UNL     1      -2.542   3.850  25.155  0.00  0.00    -0.212 NA
ATOM     22  C   UNL     1      -1.792   3.584  24.938  0.00  0.00    +0.103 A 
ATOM     23  C   UNL     1      -1.682   2.798  24.710  0.00  0.00    +0.041 A 
ATOM     24  C   UNL     1      -2.323   2.280  24.700  0.00  0.00    +0.103 A 
ATOM     25  N   UNL     1      -3.073   2.545  24.917  0.00  0.00    -0.212 NA
ATOM     26  C   UNL     1      -4.766   2.775  25.310  0.00  0.00    +0.110 C 
ATOM     27  N   UNL     1      -4.131   2.638  25.150  0.00  0.00    -0.298 N 
ATOM     28  C   UNL     1      -3.465   2.216  24.908  0.00  0.00    +0.276 A 
ATOM     29  O   UNL     1      -2.669   2.105  24.722  0.00  0.00    -0.266 OA
ENDROOT
BRANCH  10   9
ATOM      6  N   UNL     1      -3.584  -0.230  24.637  0.00  0.00    -0.161 NA
ATOM      7  C   UNL     1      -2.893   0.171  24.432  0.00  0.00    +0.348 C 
ATOM      8  O   UNL     1      -2.226  -0.253  24.190  0.00  0.00    -0.248 OA
ATOM      9  N   UNL     1      -2.867   0.994  24.470  0.00  0.00    -0.156 NA
BRANCH   6   5
ATOM      1 CL   UNL     1      -3.686  -3.525  24.484  0.00  0.00    -0.082 Cl
ATOM      2  C   UNL     1      -3.660  -2.702  24.522  0.00  0.00    +0.058 A 
ATOM      3  C   UNL     1      -3.950  -2.251  23.895  0.00  0.00    +0.013 A 
ATOM      4  C   UNL     1      -3.924  -1.427  23.933  0.00  0.00    +0.018 A 
ATOM      5  C   UNL     1      -3.609  -1.055  24.599  0.00  0.00    +0.075 A 
ATOM     30  C   UNL     1      -3.320  -1.506  25.226  0.00  0.00    +0.018 A 
ATOM     31  C   UNL     1      -3.345  -2.329  25.188  0.00  0.00    +0.013 A 
ENDBRANCH   6   5
ENDBRANCH  10   9
TORSDOF 2
ENDMDL
MODEL 3
REMARK VINA RESULT:     -15.5      2.130      4.980
REMARK  Name = 
REMARK  2 active torsions:
REMARK  status: ('A' for Active; 'I' for Inactive)
REMARK    1  A    between atoms: C_5  and  N_6
REMARK    2  A    between atoms: N_9  and  C_10
REMARK                            x       y       z     vdW  Elec       q    Type
REMARK                         _______ _______ _______ _____ _____    ______ ____
ROOT
ATOM     10  C   UNL     1      -3.058   0.136  24.606  0.00  0.00    +0.131 A 
ATOM     11  C   UNL     1      -3.846   0.147  24.363  0.00  0.00    +0.023 A 
ATOM     12  C   UNL     1      -4.232  -0.558  24.180  0.00  0.00    +0.014 A 
ATOM     13  C   UNL     1      -3.830  -1.276  24.242  0.00  0.00    +0.041 A 
ATOM     14  C   UNL     1      -3.958  -2.178  24.122  0.00  0.00    +0.058 C 
ATOM     15  C   UNL     1      -4.446  -2.644  23.929  0.00  0.00    +0.011 C 
ATOM     16  C   UNL     1      -3.668  -2.652  24.170  0.00  0.00    +0.043 C 
ATOM     17  C   UNL     1      -2.741  -2.866  24.439  0.00  0.00    +0.096 C 
ATOM     18  N   UNL     1      -2.460  -2.095  24.595  0.00  0.00    -0.278 N 
ATOM     19  C   UNL     1      -3.066  -2.401  24.380  0.00  0.00    +0.099 C 
ATOM     20  C   UNL     1      -1.934  -1.497  24.811  0.00  0.00    +0.220 A 
ATOM     21  N   UNL     1      -1.163  -1.686  25.034  0.00  0.00    -0.212 NA
ATOM     22  C   UNL     1      -0.637  -1.088  25.250  0.00  0.00    +0.103 A 
ATOM     23  C   UNL     1      -0.883  -0.300  25.244  0.00  0.00    +0.041 A 
ATOM     24  C   UNL     1      -1.654  -0.111  25.021  0.00  0.00    +0.103 A 
ATOM     25  N   UNL     1      -2.179  -0.708  24.805  0.00  0.00    -0.212 NA
ATOM     26  C   UNL     1      -3.525  -1.711  24.298  0.00  0.00    +0.110 C 
ATOM     27  N   UNL     1      -3.042  -1.287  24.486  0.00  0.00    -0.298 N 
ATOM     28  C   UNL     1      -2.656  -0.582  24.668  0.00  0.00    +0.276 A 
ATOM     29  O   UNL     1      -2.024  -0.108  24.906  0.00  0.00    -0.266 OA
ENDROOT
BRANCH  10   9
ATOM      6  N   UNL     1      -3.935   1.504  24.895  0.00  0.00    -0.161 NA
ATOM      7  C   UNL     1      -3.111   1.526  24.933  0.00  0.00    +0.348 C 
ATOM      8  O   UNL     1      -2.725   2.233  25.115  0.00  0.00    -0.248 OA
ATOM      9  N   UNL     1      -2.673   0.842  24.789  0.00  0.00    -0.156 NA
BRANCH   6   5
ATOM      1 CL   UNL     1      -5.685   4.240  25.475  0.00  0.00    -0.082 Cl
ATOM      2  C   UNL     1      -5.248   3.556  25.330  0.00  0.00    +0.058 A 
ATOM      3  C   UNL     1      -5.326   2.903  25.829  0.00  0.00    +0.013 A 
ATOM      4  C   UNL     1      -4.888   2.220  25.684  0.00  0.00    +0.018 A 
ATOM      5  C   UNL     1      -4.373   2.188  25.040  0.00  0.00    +0.075 A 
ATOM     30  C   UNL     1      -4.295   2.841  24.542  0.00  0.00    +0.018 A 
ATOM     31  C   UNL     1      -4.732   3.525  24.687  0.00  0.00    +0.013 A 
ENDBRANCH   6   5
ENDBRANCH  10   9
TORSDOF 2
ENDMDL
MODEL 4
REMARK VINA RESULT:     -15.2      2.461      5.183
REMARK  Name = 
REMARK  2 active torsions:
REMARK  status: ('A' for Active; 'I' for Inactive)
REMARK    1  A    between atoms: C_5  and  N_6
REMARK    2  A    between atoms: N_9  and  C_10
REMARK                            x       y       z     vdW  Elec       q    Type
REMARK                         _______ _______ _______ _____ _____    ______ ____
ROOT
ATOM     10  C   UNL     1      -2.017   0.348  25.089  0.00  0.00    +0.131 A 
ATOM     11  C   UNL     1      -2.657   0.852  24.964  0.00  0.00    +0.023 A 
ATOM     12  C   UNL     1      -3.376   0.549  24.695  0.00  0.00    +0.014 A 
ATOM     13  C   UNL     1      -3.453  -0.260  24.551  0.00  0.00    +0.041 A 
ATOM     14  C   UNL     1      -4.071  -0.878  24.267  0.00  0.00    +0.058 C 
ATOM     15  C   UNL     1      -4.737  -0.932  24.052  0.00  0.00    +0.011 C 
ATOM     16  C   UNL     1      -4.102  -1.427  24.176  0.00  0.00    +0.043 C 
ATOM     17  C   UNL     1      -3.463  -2.175  24.264  0.00  0.00    +0.096 C 
ATOM     18  N   UNL     1      -2.793  -1.756  24.535  0.00  0.00    -0.278 N 
ATOM     19  C   UNL     1      -3.465  -1.611  24.347  0.00  0.00    +0.099 C 
ATOM     20  C   UNL     1      -2.021  -1.623  24.795  0.00  0.00    +0.220 A 
ATOM     21  N   UNL     1      -1.496  -2.255  24.865  0.00  0.00    -0.212 NA
ATOM     22  C   UNL     1      -0.724  -2.123  25.125  0.00  0.00    +0.103 A 
ATOM     23  C   UNL     1      -0.478  -1.358  25.315  0.00  0.00    +0.041 A 
ATOM     24  C   UNL     1      -1.004  -0.727  25.245  0.00  0.00    +0.103 A 
ATOM     25  N   UNL     1      -1.775  -0.858  24.985  0.00  0.00    -0.212 NA
ATOM     26  C   UNL     1      -3.450  -0.789  24.474  0.00  0.00    +0.110 C 
ATOM     27  N   UNL     1      -2.813  -0.764  24.676  0.00  0.00    -0.298 N 
ATOM     28  C   UNL     1      -2.094  -0.461  24.945  0.00  0.00    +0.276 A 
ATOM     29  O   UNL     1      -1.306  -0.491  25.186  0.00  0.00    -0.266 OA
ENDROOT
BRANCH  10   9
ATOM      6  N   UNL     1      -1.768   1.979  25.110  0.00  0.00    -0.161 NA
ATOM      7  C   UNL     1      -1.174   1.467  25.368  0.00  0.00    +0.348 C 
ATOM      8  O   UNL     1      -0.455   1.772  25.637  0.00  0.00    -0.248 OA
ATOM      9  N   UNL     1      -1.299   0.652  25.357  0.00  0.00    -0.156 NA
BRANCH   6   5
ATOM      1 CL   UNL     1      -1.269   5.241  25.156  0.00  0.00    -0.082 Cl
ATOM      2  C   UNL     1      -1.394   4.425  25.144  0.00  0.00    +0.058 A 
ATOM      3  C   UNL     1      -1.868   4.073  25.719  0.00  0.00    +0.013 A 
ATOM      4  C   UNL     1      -1.993   3.258  25.708  0.00  0.00    +0.018 A 
ATOM      5  C   UNL     1      -1.643   2.795  25.121  0.00  0.00    +0.075 A 
ATOM     30  C   UNL     1      -1.168   3.147  24.546  0.00  0.00    +0.018 A 
ATOM     31  C   UNL     1      -1.043   3.963  24.558  0.00  0.00    +0.013 A 
ENDBRANCH   6   5
ENDBRANCH  10   9
TORSDOF 2
ENDMDL
