MODEL 1
REMARK VINA RESULT:     -15.8      0.000      0.000
REMARK  Name = 
REMARK  3 active torsions:
REMARK  status: ('A' for Active; 'I' for Inactive)
REMARK    1  A    between atoms: C_5  and  N_8
REMARK    2  A    between atoms: C_19  and  C_21
REMARK    3  A    between atoms: C_24  and  C_27
REMARK                            x       y       z     vdW  Elec       q    Type
REMARK                         _______ _______ _______ _____ _____    ______ ____
ROOT
ATOM      8  N   UNL     1      -1.786   1.542  24.874  0.00  0.00    -0.190 N 
ATOM      9  C   UNL     1      -1.361   2.247  24.926  0.00  0.00    +0.333 C 
ATOM     10  O   UNL     1      -0.539   2.229  24.995  0.00  0.00    -0.250 OA
ATOM     11  N   UNL     1      -1.759   2.970  24.910  0.00  0.00    -0.187 NA
ATOM     12  C   UNL     1      -2.581   2.988  24.842  0.00  0.00    +0.126 C 
ATOM     13  C   UNL     1      -3.119   3.611  24.811  0.00  0.00    +0.045 C 
ATOM     14  C   UNL     1      -3.876   3.292  24.740  0.00  0.00    +0.096 C 
ATOM     15  N   UNL     1      -3.806   2.470  24.726  0.00  0.00    -0.268 N 
ATOM     16  C   UNL     1      -3.005   2.282  24.789  0.00  0.00    +0.173 C 
ATOM     17  C   UNL     1      -2.608   1.559  24.805  0.00  0.00    +0.256 C 
ATOM     18  O   UNL     1      -3.033   0.853  24.753  0.00  0.00    -0.272 OA
ATOM     19  C   UNL     1      -4.427   1.931  24.661  0.00  0.00    +0.249 C 
ATOM     20  O   UNL     1      -5.204   2.202  24.602  0.00  0.00    -0.270 OA
ENDROOT
BRANCH   8   5
ATOM      1  F   UNL     1      -0.197  -1.350  24.938  0.00  0.00    -0.204 F 
ATOM      2  C   UNL     1      -0.594  -0.627  24.922  0.00  0.00    +0.140 A 
ATOM      3  C   UNL     1      -0.724  -0.244  24.203  0.00  0.00    +0.031 A 
ATOM      4  C   UNL     1      -1.122   0.479  24.187  0.00  0.00    +0.018 A 
ATOM      5  C   UNL     1      -1.389   0.818  24.890  0.00  0.00    +0.062 A 
ATOM      6  C   UNL     1      -1.258   0.435  25.609  0.00  0.00    +0.018 A 
ATOM      7  C   UNL     1      -0.862  -0.287  25.625  0.00  0.00    +0.031 A 
ENDBRANCH   8   5
BRANCH  19  21
ATOM     21  C   UNL     1      -4.272   1.121  24.655  0.00  0.00    +0.054 A 
ATOM     22  C   UNL     1      -4.289   0.692  25.360  0.00  0.00    +0.005 A 
ATOM     23  C   UNL     1      -4.134  -0.118  25.354  0.00  0.00    +0.000 A 
ATOM     24  C   UNL     1      -3.961  -0.499  24.642  0.00  0.00    +0.000 A 
ATOM     25  C   UNL     1      -3.943  -0.071  23.938  0.00  0.00    +0.000 A 
ATOM     26  C   UNL     1      -4.099   0.740  23.944  0.00  0.00    +0.005 A 
BRANCH  24  27
ATOM     27  C   UNL     1      -3.805  -1.309  24.636  0.00  0.00    +0.000 A 
ATOM     28  C   UNL     1      -3.793  -1.721  23.921  0.00  0.00    +0.000 A 
ATOM     29  C   UNL     1      -3.638  -2.531  23.915  0.00  0.00    +0.000 A 
ATOM     30  C   UNL     1      -3.494  -2.930  24.623  0.00  0.00    +0.000 A 
ATOM     31  C   UNL     1      -3.506  -2.518  25.338  0.00  0.00    +0.000 A 
ATOM     32  C   UNL     1      -3.662  -1.707  25.344  0.00  0.00    +0.000 A 
ENDBRANCH  24  27
ENDBRANCH  19  21
TORSDOF 3
ENDMDL
MODEL 2
REMARK VINA RESULT:     -14.9      1.626      3.579
REMARK  Name = 
REMARK  3 active torsions:
REMARK  status: ('A' for Active; 'I' for Inactive)
REMARK    1  A    between atoms: C_5  and  N_8
REMARK    2  A    between atoms: C_19  and  C_21
REMARK    3  A    between atoms: C_24  and  C_27
REMARK                            x       y       z     vdW  Elec       q    Type
REMARK                         _______ _______ _______ _____ _____    ______ ____
ROOT
ATOM      8  N   UNL     1      -1.459  -0.555  24.790  0.00  0.00    -0.190 N 
ATOM      9  C   UNL     1      -0.942  -1.193  24.868  0.00  0.00    +0.333 C 
ATOM     10  O   UNL     1      -0.144  -1.060  25.028  0.00  0.00    -0.250 OA
ATOM     11  N   UNL     1      -1.225  -1.964  24.787  0.00  0.00    -0.187 NA
ATOM     12  C   UNL     1      -2.023  -2.096  24.627  0.00  0.00    +0.126 C 
ATOM     13  C   UNL     1      -2.457  -2.789  24.518  0.00  0.00    +0.045 C 
ATOM     14  C   UNL     1      -3.241  -2.579  24.373  0.00  0.00    +0.096 C 
ATOM     15  N   UNL     1      -3.292  -1.756  24.392  0.00  0.00    -0.268 N 
ATOM     16  C   UNL     1      -2.540  -1.458  24.549  0.00  0.00    +0.173 C 
ATOM     17  C   UNL     1      -2.257  -0.686  24.631  0.00  0.00    +0.256 C 
ATOM     18  O   UNL     1      -2.774  -0.047  24.553  0.00  0.00    -0.272 OA
ATOM     19  C   UNL     1      -3.976  -1.309  24.274  0.00  0.00    +0.249 C 
ATOM     20  O   UNL     1      -4.694  -1.686  24.122  0.00  0.00    -0.270 OA
ENDROOT
BRANCH   8   5
ATOM      1  F   UNL     1      -0.330   2.529  25.117  0.00  0.00    -0.204 F 
ATOM      2  C   UNL     1      -0.612   1.759  25.036  0.00  0.00    +0.140 A 
ATOM      3  C   UNL     1      -0.616   1.398  24.294  0.00  0.00    +0.031 A 
ATOM      4  C   UNL     1      -0.898   0.626  24.212  0.00  0.00    +0.018 A 
ATOM      5  C   UNL     1      -1.176   0.217  24.872  0.00  0.00    +0.062 A 
ATOM      6  C   UNL     1      -1.173   0.578  25.614  0.00  0.00    +0.018 A 
ATOM      7  C   UNL     1      -0.891   1.349  25.695  0.00  0.00    +0.031 A 
ENDBRANCH   8   5
BRANCH  19  21
ATOM     21  C   UNL     1      -3.942  -0.486  24.310  0.00  0.00    +0.054 A 
ATOM     22  C   UNL     1      -4.092  -0.097  25.022  0.00  0.00    +0.005 A 
ATOM     23  C   UNL     1      -4.059   0.727  25.058  0.00  0.00    +0.000 A 
ATOM     24  C   UNL     1      -3.875   1.161  24.381  0.00  0.00    +0.000 A 
ATOM     25  C   UNL     1      -3.725   0.773  23.669  0.00  0.00    +0.000 A 
ATOM     26  C   UNL     1      -3.758  -0.050  23.634  0.00  0.00    +0.005 A 
BRANCH  24  27
ATOM     27  C   UNL     1      -3.841   1.985  24.416  0.00  0.00    +0.000 A 
ATOM     28  C   UNL     1      -3.683   2.421  23.734  0.00  0.00    +0.000 A 
ATOM     29  C   UNL     1      -3.649   3.244  23.769  0.00  0.00    +0.000 A 
ATOM     30  C   UNL     1      -3.773   3.632  24.487  0.00  0.00    +0.000 A 
ATOM     31  C   UNL     1      -3.930   3.196  25.169  0.00  0.00    +0.000 A 
ATOM     32  C   UNL     1      -3.964   2.373  25.134  0.00  0.00    +0.000 A 
ENDBRANCH  24  27
ENDBRANCH  19  21
TORSDOF 3
ENDMDL
MODEL 3
REMARK VINA RESULT:     -14.5      1.630      3.190
REMARK  Name = 
REMARK  3 active torsions:
REMARK  status: ('A' for Active; 'I' for Inactive)
REMARK    1  A    between atoms: C_5  and  N_8
REMARK    2  A    between atoms: C_19  and  C_21
REMARK    3  A    between atoms: C_24  and  C_27
REMARK                            x       y       z     vdW  Elec       q    Type
REMARK                         _______ _______ _______ _____ _____    ______ ____
ROOT
ATOM      8  N   UNL     1      -3.203   3.106  24.994  0.00  0.00    -0.190 N 
ATOM      9  C   UNL     1      -3.180   3.925  25.095  0.00  0.00    +0.333 C 
ATOM     10  O   UNL     1      -3.884   4.354  25.142  0.00  0.00    -0.250 OA
ATOM     11  N   UNL     1      -2.455   4.313  25.148  0.00  0.00    -0.187 NA
ATOM     12  C   UNL     1      -1.752   3.884  25.101  0.00  0.00    +0.126 C 
ATOM     13  C   UNL     1      -0.961   4.114  25.135  0.00  0.00    +0.045 C 
ATOM     14  C   UNL     1      -0.495   3.439  25.056  0.00  0.00    +0.096 C 
ATOM     15  N   UNL     1      -0.998   2.791  24.972  0.00  0.00    -0.268 N 
ATOM     16  C   UNL     1      -1.774   3.066  25.000  0.00  0.00    +0.173 C 
ATOM     17  C   UNL     1      -2.500   2.676  24.947  0.00  0.00    +0.256 C 
ATOM     18  O   UNL     1      -2.523   1.858  24.846  0.00  0.00    -0.272 OA
ATOM     19  C   UNL     1      -0.764   2.005  24.877  0.00  0.00    +0.249 C 
ATOM     20  O   UNL     1       0.038   1.812  24.860  0.00  0.00    -0.270 OA
ENDROOT
BRANCH   8   5
ATOM      1  F   UNL     1      -6.105   1.549  24.781  0.00  0.00    -0.204 F 
ATOM      2  C   UNL     1      -5.380   1.938  24.834  0.00  0.00    +0.140 A 
ATOM      3  C   UNL     1      -5.028   2.057  25.571  0.00  0.00    +0.031 A 
ATOM      4  C   UNL     1      -4.302   2.446  25.625  0.00  0.00    +0.018 A 
ATOM      5  C   UNL     1      -3.929   2.717  24.941  0.00  0.00    +0.062 A 
ATOM      6  C   UNL     1      -4.280   2.598  24.204  0.00  0.00    +0.018 A 
ATOM      7  C   UNL     1      -5.005   2.209  24.151  0.00  0.00    +0.031 A 
ENDBRANCH   8   5
BRANCH  19  21
ATOM     21  C   UNL     1      -1.333   1.412  24.800  0.00  0.00    +0.054 A 
ATOM     22  C   UNL     1      -1.626   1.216  24.054  0.00  0.00    +0.005 A 
ATOM     23  C   UNL     1      -2.194   0.624  23.976  0.00  0.00    +0.000 A 
ATOM     24  C   UNL     1      -2.470   0.227  24.645  0.00  0.00    +0.000 A 
ATOM     25  C   UNL     1      -2.178   0.423  25.391  0.00  0.00    +0.000 A 
ATOM     26  C   UNL     1      -1.609   1.015  25.468  0.00  0.00    +0.005 A 
BRANCH  24  27
ATOM     27  C   UNL     1      -3.039  -0.366  24.568  0.00  0.00    +0.000 A 
ATOM     28  C   UNL     1      -3.298  -0.779  25.234  0.00  0.00    +0.000 A 
ATOM     29  C   UNL     1      -3.866  -1.371  25.157  0.00  0.00    +0.000 A 
ATOM     30  C   UNL     1      -4.176  -1.551  24.414  0.00  0.00    +0.000 A 
ATOM     31  C   UNL     1      -3.917  -1.139  23.748  0.00  0.00    +0.000 A 
ATOM     32  C   UNL     1      -3.349  -0.546  23.825  0.00  0.00    +0.000 A 
ENDBRANCH  24  27
ENDBRANCH  19  21
TORSDOF 3
ENDMDL
MODEL 4
REMARK VINA RESULT:     -14.5      1.855      4.594
REMARK  Name = 
REMARK  3 active torsions:
REMARK  status: ('A' for Active; 'I' for Inactive)
REMARK    1  A    between atoms: C_5  and  N_8
REMARK    2  A    between atoms: C_19  and  C_21
REMARK    3  A    between atoms: C_24  and  C_27
REMARK                            x       y       z     vdW  Elec       q    Type
REMARK                         _______ _______ _______ _____ _____    ______ ____
ROOT
ATOM      8  N   UNL     1      -3.336  -0.165  24.367  0.00  0.00    -0.190 N 
ATOM      9  C   UNL     1      -3.883  -0.764  24.218  0.00  0.00    +0.333 C 
ATOM     10  O   UNL     1      -4.660  -0.573  24.016  0.00  0.00    -0.250 OA
ATOM     11  N   UNL     1      -3.653  -1.554  24.271  0.00  0.00    -0.187 NA
ATOM     12  C   UNL     1      -2.876  -1.745  24.472  0.00  0.00    +0.126 C 
ATOM     13  C   UNL     1      -2.491  -2.468  24.566  0.00  0.00    +0.045 C 
ATOM     14  C   UNL     1      -1.708  -2.317  24.773  0.00  0.00    +0.096 C 
ATOM     15  N   UNL     1      -1.607  -1.499  24.807  0.00  0.00    -0.268 N 
ATOM     16  C   UNL     1      -2.329  -1.146  24.621  0.00  0.00    +0.173 C 
ATOM     17  C   UNL     1      -2.559  -0.355  24.568  0.00  0.00    +0.256 C 
ATOM     18  O   UNL     1      -2.012   0.245  24.717  0.00  0.00    -0.272 OA
ATOM     19  C   UNL     1      -0.907  -1.103  24.993  0.00  0.00    +0.249 C 
ATOM     20  O   UNL     1      -0.225  -1.532  25.168  0.00  0.00    -0.270 OA
ENDROOT
BRANCH   8   5
ATOM      1  F   UNL     1      -4.257   2.998  24.156  0.00  0.00    -0.204 F 
ATOM      2  C   UNL     1      -4.027   2.208  24.209  0.00  0.00    +0.140 A 
ATOM      3  C   UNL     1      -4.119   1.798  24.918  0.00  0.00    +0.031 A 
ATOM      4  C   UNL     1      -3.889   1.006  24.971  0.00  0.00    +0.018 A 
ATOM      5  C   UNL     1      -3.566   0.627  24.314  0.00  0.00    +0.062 A 
ATOM      6  C   UNL     1      -3.474   1.037  23.604  0.00  0.00    +0.018 A 
ATOM      7  C   UNL     1      -3.704   1.827  23.551  0.00  0.00    +0.031 A 
ENDBRANCH   8   5
BRANCH  19  21
ATOM     21  C   UNL     1      -0.890  -0.279  25.006  0.00  0.00    +0.054 A 
ATOM     22  C   UNL     1      -0.691   0.140  24.323  0.00  0.00    +0.005 A 
ATOM     23  C   UNL     1      -0.674   0.965  24.335  0.00  0.00    +0.000 A 
ATOM     24  C   UNL     1      -0.856   1.371  25.030  0.00  0.00    +0.000 A 
ATOM     25  C   UNL     1      -1.055   0.953  25.712  0.00  0.00    +0.000 A 
ATOM     26  C   UNL     1      -1.072   0.128  25.700  0.00  0.00    +0.005 A 
BRANCH  24  27
ATOM     27  C   UNL     1      -0.839   2.195  25.042  0.00  0.00    +0.000 A 
ATOM     28  C   UNL     1      -0.636   2.614  24.360  0.00  0.00    +0.000 A 
ATOM     29  C   UNL     1      -0.619   3.439  24.373  0.00  0.00    +0.000 A 
ATOM     30  C   UNL     1      -0.804   3.845  25.066  0.00  0.00    +0.000 A 
ATOM     31  C   UNL     1      -1.007   3.427  25.748  0.00  0.00    +0.000 A 
ATOM     32  C   UNL     1      -1.024   2.602  25.736  0.00  0.00    +0.000 A 
ENDBRANCH  24  27
ENDBRANCH  19  21
TORSDOF 3
ENDMDL
MODEL 5
REMARK VINA RESULT:     -14.0      1.124      2.957
REMARK  Name = 
REMARK  3 active torsions:
REMARK  status: ('A' for Active; 'I' for Inactive)
REMARK    1  A    between atoms: C_5  and  N_8
REMARK    2  A    between atoms: C_19  and  C_21
REMARK    3  A    between atoms: C_24  and  C_27
REMARK                            x       y       z     vdW  Elec       q    Type
REMARK                         _______ _______ _______ _____ _____    ______ ____
ROOT
ATOM      8  N   UNL     1      -4.055   1.370  24.686  0.00  0.00    -0.190 N 
ATOM      9  C   UNL     1      -4.776   1.769  24.650  0.00  0.00    +0.333 C 
ATOM     10  O   UNL     1      -5.482   1.343  24.616  0.00  0.00    -0.250 OA
ATOM     11  N   UNL     1      -4.790   2.593  24.648  0.00  0.00    -0.187 NA
ATOM     12  C   UNL     1      -4.084   3.019  24.682  0.00  0.00    +0.126 C 
ATOM     13  C   UNL     1      -3.927   3.828  24.688  0.00  0.00    +0.045 C 
ATOM     14  C   UNL     1      -3.110   3.930  24.728  0.00  0.00    +0.096 C 
ATOM     15  N   UNL     1      -2.761   3.182  24.746  0.00  0.00    -0.268 N 
ATOM     16  C   UNL     1      -3.363   2.620  24.718  0.00  0.00    +0.173 C 
ATOM     17  C   UNL     1      -3.348   1.794  24.719  0.00  0.00    +0.256 C 
ATOM     18  O   UNL     1      -2.627   1.395  24.755  0.00  0.00    -0.272 OA
ATOM     19  C   UNL     1      -1.952   3.025  24.786  0.00  0.00    +0.249 C 
ATOM     20  O   UNL     1      -1.411   3.648  24.811  0.00  0.00    -0.270 OA
ENDROOT
BRANCH   8   5
ATOM      1  F   UNL     1      -3.995  -1.930  24.693  0.00  0.00    -0.204 F 
ATOM      2  C   UNL     1      -4.010  -1.106  24.691  0.00  0.00    +0.140 A 
ATOM      3  C   UNL     1      -3.981  -0.694  23.977  0.00  0.00    +0.031 A 
ATOM      4  C   UNL     1      -3.996   0.131  23.975  0.00  0.00    +0.018 A 
ATOM      5  C   UNL     1      -4.040   0.544  24.688  0.00  0.00    +0.062 A 
ATOM      6  C   UNL     1      -4.068   0.132  25.402  0.00  0.00    +0.018 A 
ATOM      7  C   UNL     1      -4.053  -0.692  25.404  0.00  0.00    +0.031 A 
ENDBRANCH   8   5
BRANCH  19  21
ATOM     21  C   UNL     1      -1.683   2.245  24.800  0.00  0.00    +0.054 A 
ATOM     22  C   UNL     1      -1.530   1.849  24.093  0.00  0.00    +0.005 A 
ATOM     23  C   UNL     1      -1.261   1.069  24.107  0.00  0.00    +0.000 A 
ATOM     24  C   UNL     1      -1.146   0.686  24.829  0.00  0.00    +0.000 A 
ATOM     25  C   UNL     1      -1.299   1.082  25.535  0.00  0.00    +0.000 A 
ATOM     26  C   UNL     1      -1.568   1.862  25.521  0.00  0.00    +0.005 A 
BRANCH  24  27
ATOM     27  C   UNL     1      -0.877  -0.094  24.843  0.00  0.00    +0.000 A 
ATOM     28  C   UNL     1      -0.631  -0.458  24.145  0.00  0.00    +0.000 A 
ATOM     29  C   UNL     1      -0.362  -1.238  24.159  0.00  0.00    +0.000 A 
ATOM     30  C   UNL     1      -0.340  -1.654  24.871  0.00  0.00    +0.000 A 
ATOM     31  C   UNL     1      -0.586  -1.290  25.569  0.00  0.00    +0.000 A 
ATOM     32  C   UNL     1      -0.855  -0.510  25.555  0.00  0.00    +0.000 A 
ENDBRANCH  24  27
ENDBRANCH  19  21
TORSDOF 3
ENDMDL
