MODEL 1
REMARK VINA RESULT:      -9.4      0.000      0.000
REMARK  Name = 
REMARK  6 active torsions:
REMARK  status: ('A' for Active; 'I' for Inactive)
REMARK    1  A    between atoms: O_2  and  C_3
REMARK    2  A    between atoms: C_6  and  C_7
REMARK    3  A    between atoms: C_7  and  N_8
REMARK    4  A    between atoms: C_9  and  C_11
REMARK    5  A    between atoms: C_11  and  C_12
REMARK    6  A    between atoms: C_14  and  C_15
REMARK                            x       y       z     vdW  Elec       q    Type
REMARK                         _______ _______ _______ _____ _____    ______ ____
ROOT
ATOM      8  N   UNL     1      -3.989   0.957  24.585  0.00  0.00    -0.200 NA
ATOM      9  C   UNL     1      -4.155   1.746  24.766  0.00  0.00    +0.244 C 
ATOM     10  O   UNL     1      -4.671   1.927  25.382  0.00  0.00    -0.273 OA
ENDROOT
BRANCH   8   7
ATOM      7  C   UNL     1      -4.340   0.351  25.022  0.00  0.00    +0.141 C 
BRANCH   7   6
ATOM      3  C   UNL     1      -3.624  -1.993  24.680  0.00  0.00    +0.139 A 
ATOM      4  C   UNL     1      -4.053  -1.603  24.093  0.00  0.00    +0.037 A 
ATOM      5  C   UNL     1      -4.291  -0.822  24.206  0.00  0.00    +0.001 A 
ATOM      6  C   UNL     1      -4.102  -0.430  24.907  0.00  0.00    -0.000 A 
ATOM     21  C   UNL     1      -3.673  -0.820  25.495  0.00  0.00    +0.001 A 
ATOM     22  C   UNL     1      -3.434  -1.602  25.381  0.00  0.00    +0.037 A 
BRANCH   3   2
ATOM      1  C   UNL     1      -2.596  -2.945  24.399  0.00  0.00    +0.252 C 
ATOM      2  O   UNL     1      -3.385  -2.774  24.567  0.00  0.00    -0.471 OA
ENDBRANCH   3   2
ENDBRANCH   7   6
ENDBRANCH   8   7
BRANCH   9  11
ATOM     11  C   UNL     1      -3.803   2.351  24.329  0.00  0.00    +0.119 C 
BRANCH  11  12
ATOM     12  C   UNL     1      -3.221   2.823  24.675  0.00  0.00    +0.157 C 
ATOM     13  O   UNL     1      -2.584   2.554  25.126  0.00  0.00    -0.351 OA
ATOM     14  C   UNL     1      -2.143   3.210  25.360  0.00  0.00    +0.167 C 
ATOM     17  C   UNL     1      -2.507   3.884  25.054  0.00  0.00    +0.213 C 
ATOM     18  O   UNL     1      -2.250   4.662  25.153  0.00  0.00    -0.218 OA
ATOM     19  C   UNL     1      -3.173   3.645  24.631  0.00  0.00    +0.212 C 
ATOM     20  O   UNL     1      -3.699   4.140  24.233  0.00  0.00    -0.218 OA
BRANCH  14  15
ATOM     15  C   UNL     1      -1.458   3.196  25.820  0.00  0.00    +0.141 C 
ATOM     16  N   UNL     1      -0.997   2.512  25.851  0.00  0.00    -0.129 NA
ENDBRANCH  14  15
ENDBRANCH  11  12
ENDBRANCH   9  11
TORSDOF 6
ENDMDL
MODEL 2
REMARK VINA RESULT:      -8.6      1.850      4.716
REMARK  Name = 
REMARK  6 active torsions:
REMARK  status: ('A' for Active; 'I' for Inactive)
REMARK    1  A    between atoms: O_2  and  C_3
REMARK    2  A    between atoms: C_6  and  C_7
REMARK    3  A    between atoms: C_7  and  N_8
REMARK    4  A    between atoms: C_9  and  C_11
REMARK    5  A    between atoms: C_11  and  C_12
REMARK    6  A    between atoms: C_14  and  C_15
REMARK                            x       y       z     vdW  Elec       q    Type
REMARK                         _______ _______ _______ _____ _____    ______ ____
ROOT
ATOM      8  N   UNL     1      -4.259   0.193  24.863  0.00  0.00    -0.200 NA
ATOM      9  C   UNL     1      -4.006  -0.492  24.476  0.00  0.00    +0.244 C 
ATOM     10  O   UNL     1      -4.016  -0.527  23.652  0.00  0.00    -0.273 OA
ENDROOT
BRANCH   8   7
ATOM      7  C   UNL     1      -4.520   0.842  24.424  0.00  0.00    +0.141 C 
BRANCH   7   6
ATOM      3  C   UNL     1      -5.302   2.883  25.586  0.00  0.00    +0.139 A 
ATOM      4  C   UNL     1      -5.806   2.234  25.506  0.00  0.00    +0.037 A 
ATOM      5  C   UNL     1      -5.546   1.554  25.119  0.00  0.00    +0.001 A 
ATOM      6  C   UNL     1      -4.781   1.522  24.812  0.00  0.00    -0.000 A 
ATOM     21  C   UNL     1      -4.276   2.169  24.891  0.00  0.00    +0.001 A 
ATOM     22  C   UNL     1      -4.537   2.850  25.278  0.00  0.00    +0.037 A 
BRANCH   3   2
ATOM      1  C   UNL     1      -5.643   4.270  25.556  0.00  0.00    +0.252 C 
ATOM      2  O   UNL     1      -5.562   3.563  25.973  0.00  0.00    -0.471 OA
ENDBRANCH   3   2
ENDBRANCH   7   6
ENDBRANCH   8   7
BRANCH   9  11
ATOM     11  C   UNL     1      -3.745  -1.140  24.914  0.00  0.00    +0.119 C 
BRANCH  11  12
ATOM     12  C   UNL     1      -2.966  -1.400  24.838  0.00  0.00    +0.157 C 
ATOM     13  O   UNL     1      -2.297  -0.920  24.792  0.00  0.00    -0.351 OA
ATOM     14  C   UNL     1      -1.636  -1.409  24.720  0.00  0.00    +0.167 C 
ATOM     17  C   UNL     1      -1.897  -2.191  24.721  0.00  0.00    +0.213 C 
ATOM     18  O   UNL     1      -1.421  -2.862  24.660  0.00  0.00    -0.218 OA
ATOM     19  C   UNL     1      -2.719  -2.186  24.793  0.00  0.00    +0.212 C 
ATOM     20  O   UNL     1      -3.208  -2.850  24.818  0.00  0.00    -0.218 OA
BRANCH  14  15
ATOM     15  C   UNL     1      -0.852  -1.160  24.658  0.00  0.00    +0.141 C 
ATOM     16  N   UNL     1      -0.663  -0.364  24.767  0.00  0.00    -0.129 NA
ENDBRANCH  14  15
ENDBRANCH  11  12
ENDBRANCH   9  11
TORSDOF 6
ENDMDL
MODEL 3
REMARK VINA RESULT:      -8.5      1.573      2.054
REMARK  Name = 
REMARK  6 active torsions:
REMARK  status: ('A' for Active; 'I' for Inactive)
REMARK    1  A    between atoms: O_2  and  C_3
REMARK    2  A    between atoms: C_6  and  C_7
REMARK    3  A    between atoms: C_7  and  N_8
REMARK    4  A    between atoms: C_9  and  C_11
REMARK    5  A    between atoms: C_11  and  C_12
REMARK    6  A    between atoms: C_14  and  C_15
REMARK                            x       y       z     vdW  Elec       q    Type
REMARK                         _______ _______ _______ _____ _____    ______ ____
ROOT
ATOM      8  N   UNL     1      -1.740   0.630  25.005  0.00  0.00    -0.200 NA
ATOM      9  C   UNL     1      -1.258   1.277  25.179  0.00  0.00    +0.244 C 
ATOM     10  O   UNL     1      -0.815   1.287  25.874  0.00  0.00    -0.273 OA
ENDROOT
BRANCH   8   7
ATOM      7  C   UNL     1      -1.777  -0.009  25.528  0.00  0.00    +0.141 C 
BRANCH   7   6
ATOM      3  C   UNL     1      -3.154  -1.987  24.965  0.00  0.00    +0.139 A 
ATOM      4  C   UNL     1      -3.496  -1.341  25.349  0.00  0.00    +0.037 A 
ATOM      5  C   UNL     1      -3.038  -0.682  25.537  0.00  0.00    +0.001 A 
ATOM      6  C   UNL     1      -2.236  -0.668  25.341  0.00  0.00    -0.000 A 
ATOM     21  C   UNL     1      -1.894  -1.312  24.957  0.00  0.00    +0.001 A 
ATOM     22  C   UNL     1      -2.353  -1.972  24.769  0.00  0.00    +0.037 A 
BRANCH   3   2
ATOM      1  C   UNL     1      -4.016  -2.677  24.059  0.00  0.00    +0.252 C 
ATOM      2  O   UNL     1      -3.613  -2.646  24.778  0.00  0.00    -0.471 OA
ENDBRANCH   3   2
ENDBRANCH   7   6
ENDBRANCH   8   7
BRANCH   9  11
ATOM     11  C   UNL     1      -1.221   1.915  24.657  0.00  0.00    +0.119 C 
BRANCH  11  12
ATOM     12  C   UNL     1      -1.432   2.670  24.914  0.00  0.00    +0.157 C 
ATOM     13  O   UNL     1      -2.080   2.856  25.389  0.00  0.00    -0.351 OA
ATOM     14  C   UNL     1      -2.081   3.672  25.511  0.00  0.00    +0.167 C 
ATOM     17  C   UNL     1      -1.433   3.990  25.111  0.00  0.00    +0.213 C 
ATOM     18  O   UNL     1      -1.223   4.787  25.084  0.00  0.00    -0.218 OA
ATOM     19  C   UNL     1      -1.032   3.370  24.742  0.00  0.00    +0.212 C 
ATOM     20  O   UNL     1      -0.351   3.439  24.282  0.00  0.00    -0.218 OA
BRANCH  14  15
ATOM     15  C   UNL     1      -2.632   4.097  25.954  0.00  0.00    +0.141 C 
ATOM     16  N   UNL     1      -3.389   3.790  26.073  0.00  0.00    -0.129 NA
ENDBRANCH  14  15
ENDBRANCH  11  12
ENDBRANCH   9  11
TORSDOF 6
ENDMDL
MODEL 4
REMARK VINA RESULT:      -8.4      1.378      4.994
REMARK  Name = 
REMARK  6 active torsions:
REMARK  status: ('A' for Active; 'I' for Inactive)
REMARK    1  A    between atoms: O_2  and  C_3
REMARK    2  A    between atoms: C_6  and  C_7
REMARK    3  A    between atoms: C_7  and  N_8
REMARK    4  A    between atoms: C_9  and  C_11
REMARK    5  A    between atoms: C_11  and  C_12
REMARK    6  A    between atoms: C_14  and  C_15
REMARK                            x       y       z     vdW  Elec       q    Type
REMARK                         _______ _______ _______ _____ _____    ______ ____
ROOT
ATOM      8  N   UNL     1      -3.365   1.213  24.361  0.00  0.00    -0.200 NA
ATOM      9  C   UNL     1      -3.550   0.516  23.960  0.00  0.00    +0.244 C 
ATOM     10  O   UNL     1      -3.370   0.440  23.159  0.00  0.00    -0.273 OA
ENDROOT
BRANCH   8   7
ATOM      7  C   UNL     1      -2.998   1.835  23.960  0.00  0.00    +0.141 C 
BRANCH   7   6
ATOM      3  C   UNL     1      -2.316   3.869  25.194  0.00  0.00    +0.139 A 
ATOM      4  C   UNL     1      -1.807   3.222  25.151  0.00  0.00    +0.037 A 
ATOM      5  C   UNL     1      -2.033   2.544  24.740  0.00  0.00    +0.001 A 
ATOM      6  C   UNL     1      -2.771   2.513  24.372  0.00  0.00    -0.000 A 
ATOM     21  C   UNL     1      -3.281   3.159  24.414  0.00  0.00    +0.001 A 
ATOM     22  C   UNL     1      -3.054   3.838  24.825  0.00  0.00    +0.037 A 
BRANCH   3   2
ATOM      1  C   UNL     1      -1.577   5.091  25.255  0.00  0.00    +0.252 C 
ATOM      2  O   UNL     1      -2.090   4.547  25.605  0.00  0.00    -0.471 OA
ENDBRANCH   3   2
ENDBRANCH   7   6
ENDBRANCH   8   7
BRANCH   9  11
ATOM     11  C   UNL     1      -3.916  -0.105  24.361  0.00  0.00    +0.119 C 
BRANCH  11  12
ATOM     12  C   UNL     1      -3.548  -0.842  24.402  0.00  0.00    +0.157 C 
ATOM     13  O   UNL     1      -2.756  -0.978  24.593  0.00  0.00    -0.351 OA
ATOM     14  C   UNL     1      -2.625  -1.792  24.568  0.00  0.00    +0.167 C 
ATOM     17  C   UNL     1      -3.334  -2.159  24.362  0.00  0.00    +0.213 C 
ATOM     18  O   UNL     1      -3.453  -2.971  24.273  0.00  0.00    -0.218 OA
ATOM     19  C   UNL     1      -3.904  -1.572  24.259  0.00  0.00    +0.212 C 
ATOM     20  O   UNL     1      -4.693  -1.693  24.050  0.00  0.00    -0.218 OA
BRANCH  14  15
ATOM     15  C   UNL     1      -1.909  -2.173  24.722  0.00  0.00    +0.141 C 
ATOM     16  N   UNL     1      -1.246  -1.732  24.937  0.00  0.00    -0.129 NA
ENDBRANCH  14  15
ENDBRANCH  11  12
ENDBRANCH   9  11
TORSDOF 6
ENDMDL
MODEL 5
REMARK VINA RESULT:      -8.0      2.430      4.279
REMARK  Name = 
REMARK  6 active torsions:
REMARK  status: ('A' for Active; 'I' for Inactive)
REMARK    1  A    between atoms: O_2  and  C_3
REMARK    2  A    between atoms: C_6  and  C_7
REMARK    3  A    between atoms: C_7  and  N_8
REMARK    4  A    between atoms: C_9  and  C_11
REMARK    5  A    between atoms: C_11  and  C_12
REMARK    6  A    between atoms: C_14  and  C_15
REMARK                            x       y       z     vdW  Elec       q    Type
REMARK                         _______ _______ _______ _____ _____    ______ ____
ROOT
ATOM      8  N   UNL     1      -2.505   2.174  24.190  0.00  0.00    -0.200 NA
ATOM      9  C   UNL     1      -1.920   1.865  23.697  0.00  0.00    +0.244 C 
ATOM     10  O   UNL     1      -2.073   1.750  22.896  0.00  0.00    -0.273 OA
ENDROOT
BRANCH   8   7
ATOM      7  C   UNL     1      -3.246   2.369  23.879  0.00  0.00    +0.141 C 
BRANCH   7   6
ATOM      3  C   UNL     1      -5.125   2.894  25.402  0.00  0.00    +0.139 A 
ATOM      4  C   UNL     1      -5.102   2.169  25.008  0.00  0.00    +0.037 A 
ATOM      5  C   UNL     1      -4.476   1.994  24.501  0.00  0.00    +0.001 A 
ATOM      6  C   UNL     1      -3.872   2.543  24.387  0.00  0.00    -0.000 A 
ATOM     21  C   UNL     1      -3.893   3.268  24.780  0.00  0.00    +0.001 A 
ATOM     22  C   UNL     1      -4.520   3.443  25.288  0.00  0.00    +0.037 A 
BRANCH   3   2
ATOM      1  C   UNL     1      -6.160   2.460  26.286  0.00  0.00    +0.252 C 
ATOM      2  O   UNL     1      -5.750   3.069  25.910  0.00  0.00    -0.471 OA
ENDBRANCH   3   2
ENDBRANCH   7   6
ENDBRANCH   8   7
BRANCH   9  11
ATOM     11  C   UNL     1      -1.180   1.671  24.008  0.00  0.00    +0.119 C 
BRANCH  11  12
ATOM     12  C   UNL     1      -0.967   0.880  24.099  0.00  0.00    +0.157 C 
ATOM     13  O   UNL     1      -1.460   0.273  24.365  0.00  0.00    -0.351 OA
ATOM     14  C   UNL     1      -1.022  -0.426  24.372  0.00  0.00    +0.167 C 
ATOM     17  C   UNL     1      -0.260  -0.252  24.110  0.00  0.00    +0.213 C 
ATOM     18  O   UNL     1       0.360  -0.790  24.029  0.00  0.00    -0.218 OA
ATOM     19  C   UNL     1      -0.226   0.555  23.941  0.00  0.00    +0.212 C 
ATOM     20  O   UNL     1       0.433   0.965  23.663  0.00  0.00    -0.218 OA
BRANCH  14  15
ATOM     15  C   UNL     1      -1.299  -1.170  24.600  0.00  0.00    +0.141 C 
ATOM     16  N   UNL     1      -1.992  -1.233  25.043  0.00  0.00    -0.129 NA
ENDBRANCH  14  15
ENDBRANCH  11  12
ENDBRANCH   9  11
TORSDOF 6
ENDMDL
MODEL 6
REMARK VINA RESULT:      -7.9      2.022      2.645
REMARK  Name = 
REMARK  6 active torsions:
REMARK  status: ('A' for Active; 'I' for Inactive)
REMARK    1  A    between atoms: O_2  and  C_3
REMARK    2  A    between atoms: C_6  and  C_7
REMARK    3  A    between atoms: C_7  and  N_8
REMARK    4  A    between atoms: C_9  and  C_11
REMARK    5  A    between atoms: C_11  and  C_12
REMARK    6  A    between atoms: C_14  and  C_15
REMARK                            x       y       z     vdW  Elec       q    Type
REMARK                         _______ _______ _______ _____ _____    ______ ____
ROOT
ATOM      8  N   UNL     1      -3.518   0.258  24.839  0.00  0.00    -0.200 NA
ATOM      9  C   UNL     1      -4.272   0.471  25.101  0.00  0.00    +0.244 C 
ATOM     10  O   UNL     1      -4.582   0.132  25.784  0.00  0.00    -0.273 OA
ENDROOT
BRANCH   8   7
ATOM      7  C   UNL     1      -3.076  -0.296  25.263  0.00  0.00    +0.141 C 
BRANCH   7   6
ATOM      3  C   UNL     1      -0.756  -0.814  24.573  0.00  0.00    +0.139 A 
ATOM      4  C   UNL     1      -0.925  -0.099  24.950  0.00  0.00    +0.037 A 
ATOM      5  C   UNL     1      -1.698   0.074  25.180  0.00  0.00    +0.001 A 
ATOM      6  C   UNL     1      -2.302  -0.468  25.033  0.00  0.00    -0.000 A 
ATOM     21  C   UNL     1      -2.135  -1.183  24.657  0.00  0.00    +0.001 A 
ATOM     22  C   UNL     1      -1.361  -1.356  24.427  0.00  0.00    +0.037 A 
BRANCH   3   2
ATOM      1  C   UNL     1       0.380  -0.544  23.750  0.00  0.00    +0.252 C 
ATOM      2  O   UNL     1       0.016  -0.987  24.343  0.00  0.00    -0.471 OA
ENDBRANCH   3   2
ENDBRANCH   7   6
ENDBRANCH   8   7
BRANCH   9  11
ATOM     11  C   UNL     1      -4.713   1.024  24.677  0.00  0.00    +0.119 C 
BRANCH  11  12
ATOM     12  C   UNL     1      -4.810   1.788  24.974  0.00  0.00    +0.157 C 
ATOM     13  O   UNL     1      -4.207   2.286  25.237  0.00  0.00    -0.351 OA
ATOM     14  C   UNL     1      -4.551   2.993  25.486  0.00  0.00    +0.167 C 
ATOM     17  C   UNL     1      -5.366   2.932  25.377  0.00  0.00    +0.213 C 
ATOM     18  O   UNL     1      -5.924   3.514  25.554  0.00  0.00    -0.218 OA
ATOM     19  C   UNL     1      -5.526   2.187  25.061  0.00  0.00    +0.212 C 
ATOM     20  O   UNL     1      -6.272   1.894  24.866  0.00  0.00    -0.218 OA
BRANCH  14  15
ATOM     15  C   UNL     1      -4.150   3.647  25.790  0.00  0.00    +0.141 C 
ATOM     16  N   UNL     1      -3.339   3.730  25.660  0.00  0.00    -0.129 NA
ENDBRANCH  14  15
ENDBRANCH  11  12
ENDBRANCH   9  11
TORSDOF 6
ENDMDL
MODEL 7
REMARK VINA RESULT:      -7.9      1.790      5.351
REMARK  Name = 
REMARK  6 active torsions:
REMARK  status: ('A' for Active; 'I' for Inactive)
REMARK    1  A    between atoms: O_2  and  C_3
REMARK    2  A    between atoms: C_6  and  C_7
REMARK    3  A    between atoms: C_7  and  N_8
REMARK    4  A    between atoms: C_9  and  C_11
REMARK    5  A    between atoms: C_11  and  C_12
REMARK    6  A    between atoms: C_14  and  C_15
REMARK                            x       y       z     vdW  Elec       q    Type
REMARK                         _______ _______ _______ _____ _____    ______ ____
ROOT
ATOM      8  N   UNL     1      -0.975   0.726  25.111  0.00  0.00    -0.200 NA
ATOM      9  C   UNL     1      -1.106  -0.061  25.325  0.00  0.00    +0.244 C 
ATOM     10  O   UNL     1      -1.119  -0.275  26.120  0.00  0.00    -0.273 OA
ENDROOT
BRANCH   8   7
ATOM      7  C   UNL     1      -0.856   1.298  25.695  0.00  0.00    +0.141 C 
BRANCH   7   6
ATOM      3  C   UNL     1      -0.783   3.694  25.081  0.00  0.00    +0.139 A 
ATOM      4  C   UNL     1      -1.346   3.423  25.619  0.00  0.00    +0.037 A 
ATOM      5  C   UNL     1      -1.371   2.625  25.824  0.00  0.00    +0.001 A 
ATOM      6  C   UNL     1      -0.832   2.096  25.491  0.00  0.00    -0.000 A 
ATOM     21  C   UNL     1      -0.268   2.366  24.953  0.00  0.00    +0.001 A 
ATOM     22  C   UNL     1      -0.244   3.166  24.748  0.00  0.00    +0.037 A 
BRANCH   3   2
ATOM      1  C   UNL     1      -1.376   4.994  25.093  0.00  0.00    +0.252 C 
ATOM      2  O   UNL     1      -0.758   4.492  24.876  0.00  0.00    -0.471 OA
ENDBRANCH   3   2
ENDBRANCH   7   6
ENDBRANCH   8   7
BRANCH   9  11
ATOM     11  C   UNL     1      -1.224  -0.631  24.741  0.00  0.00    +0.119 C 
BRANCH  11  12
ATOM     12  C   UNL     1      -1.956  -1.004  24.673  0.00  0.00    +0.157 C 
ATOM     13  O   UNL     1      -2.693  -0.634  24.702  0.00  0.00    -0.351 OA
ATOM     14  C   UNL     1      -3.273  -1.213  24.611  0.00  0.00    +0.167 C 
ATOM     17  C   UNL     1      -2.896  -1.941  24.526  0.00  0.00    +0.213 C 
ATOM     18  O   UNL     1      -3.266  -2.671  24.420  0.00  0.00    -0.218 OA
ATOM     19  C   UNL     1      -2.082  -1.812  24.564  0.00  0.00    +0.212 C 
ATOM     20  O   UNL     1      -1.496  -2.390  24.504  0.00  0.00    -0.218 OA
BRANCH  14  15
ATOM     15  C   UNL     1      -4.089  -1.087  24.606  0.00  0.00    +0.141 C 
ATOM     16  N   UNL     1      -4.388  -0.330  24.468  0.00  0.00    -0.129 NA
ENDBRANCH  14  15
ENDBRANCH  11  12
ENDBRANCH   9  11
TORSDOF 6
ENDMDL
