MODEL 1
REMARK VINA RESULT:     -14.7      0.000      0.000
REMARK  Name = 
REMARK  4 active torsions:
REMARK  status: ('A' for Active; 'I' for Inactive)
REMARK    1  A    between atoms: C_2  and  C_27
REMARK    2  A    between atoms: N_3  and  C_4
REMARK    3  A    between atoms: N_12  and  S_14
REMARK    4  A    between atoms: S_14  and  C_17
REMARK                            x       y       z     vdW  Elec       q    Type
REMARK                         _______ _______ _______ _____ _____    ______ ____
ROOT
ATOM      4  C   UNL     1      -2.409   0.428  24.354  0.00  0.00    +0.130 A 
ATOM      5  C   UNL     1      -2.086   1.166  24.177  0.00  0.00    +0.023 A 
ATOM      6  C   UNL     1      -2.563   1.839  24.187  0.00  0.00    +0.014 A 
ATOM      7  C   UNL     1      -3.364   1.773  24.375  0.00  0.00    +0.041 A 
ATOM      8  C   UNL     1      -4.119   2.288  24.470  0.00  0.00    +0.056 C 
ATOM      9  C   UNL     1      -4.342   2.952  24.425  0.00  0.00    +0.011 C 
ATOM     10  C   UNL     1      -4.657   2.221  24.599  0.00  0.00    +0.041 C 
ATOM     11  C   UNL     1      -5.215   1.441  24.835  0.00  0.00    +0.098 C 
ATOM     12  N   UNL     1      -4.639   0.838  24.793  0.00  0.00    -0.155 NA
ATOM     13  C   UNL     1      -4.672   1.543  24.699  0.00  0.00    +0.102 C 
ATOM     23  C   UNL     1      -3.873   1.675  24.503  0.00  0.00    +0.110 C 
ATOM     24  N   UNL     1      -3.686   1.035  24.553  0.00  0.00    -0.298 N 
ATOM     25  C   UNL     1      -3.209   0.362  24.542  0.00  0.00    +0.276 A 
ATOM     26  O   UNL     1      -3.532  -0.376  24.720  0.00  0.00    -0.266 OA
ENDROOT
BRANCH   4   3
ATOM      1  O   UNL     1      -0.649  -0.855  24.509  0.00  0.00    -0.266 OA
ATOM      2  C   UNL     1      -1.127  -0.182  24.520  0.00  0.00    +0.288 C 
ATOM      3  N   UNL     1      -1.931  -0.244  24.344  0.00  0.00    -0.169 NA
BRANCH   2  27
ATOM     27  C   UNL     1      -0.801   0.553  24.706  0.00  0.00    +0.156 A 
ATOM     28  C   UNL     1      -0.475   1.022  24.111  0.00  0.00    +0.123 A 
ATOM     29  N   UNL     1      -0.149   1.757  24.298  0.00  0.00    -0.239 NA
ATOM     30  C   UNL     1      -0.150   2.021  25.079  0.00  0.00    +0.120 A 
ATOM     31  C   UNL     1      -0.476   1.551  25.674  0.00  0.00    +0.120 A 
ATOM     32  N   UNL     1      -0.801   0.817  25.488  0.00  0.00    -0.236 NA
ENDBRANCH   2  27
ENDBRANCH   4   3
BRANCH  12  14
ATOM     14  S   UNL     1      -4.313   0.081  24.828  0.00  0.00    +0.063 S 
ATOM     15  O   UNL     1      -4.459  -0.020  24.022  0.00  0.00    -0.153 OA
ATOM     16  O   UNL     1      -4.166   0.181  25.634  0.00  0.00    -0.153 OA
BRANCH  14  17
ATOM     17  C   UNL     1      -3.987  -0.677  24.864  0.00  0.00    +0.122 A 
ATOM     18  C   UNL     1      -3.950  -1.142  24.184  0.00  0.00    +0.020 A 
ATOM     19  C   UNL     1      -3.624  -1.900  24.220  0.00  0.00    +0.001 A 
ATOM     20  C   UNL     1      -3.336  -2.191  24.935  0.00  0.00    +0.000 A 
ATOM     21  C   UNL     1      -3.372  -1.726  25.615  0.00  0.00    +0.001 A 
ATOM     22  C   UNL     1      -3.698  -0.968  25.579  0.00  0.00    +0.020 A 
ENDBRANCH  14  17
ENDBRANCH  12  14
TORSDOF 4
ENDMDL
MODEL 2
REMARK VINA RESULT:     -13.6      1.862      3.240
REMARK  Name = 
REMARK  4 active torsions:
REMARK  status: ('A' for Active; 'I' for Inactive)
REMARK    1  A    between atoms: C_2  and  C_27
REMARK    2  A    between atoms: N_3  and  C_4
REMARK    3  A    between atoms: N_12  and  S_14
REMARK    4  A    between atoms: S_14  and  C_17
REMARK                            x       y       z     vdW  Elec       q    Type
REMARK                         _______ _______ _______ _____ _____    ______ ____
ROOT
ATOM      4  C   UNL     1      -2.987   1.856  24.658  0.00  0.00    +0.130 A 
ATOM      5  C   UNL     1      -3.375   1.157  24.455  0.00  0.00    +0.023 A 
ATOM      6  C   UNL     1      -4.192   1.095  24.549  0.00  0.00    +0.014 A 
ATOM      7  C   UNL     1      -4.622   1.734  24.846  0.00  0.00    +0.041 A 
ATOM      8  C   UNL     1      -5.482   1.978  25.058  0.00  0.00    +0.056 C 
ATOM      9  C   UNL     1      -6.139   1.732  25.061  0.00  0.00    +0.011 C 
ATOM     10  C   UNL     1      -5.753   2.421  25.260  0.00  0.00    +0.041 C 
ATOM     11  C   UNL     1      -5.474   3.322  25.553  0.00  0.00    +0.098 C 
ATOM     12  N   UNL     1      -4.652   3.266  25.415  0.00  0.00    -0.155 NA
ATOM     13  C   UNL     1      -5.228   2.853  25.345  0.00  0.00    +0.102 C 
ATOM     23  C   UNL     1      -4.852   2.175  25.041  0.00  0.00    +0.110 C 
ATOM     24  N   UNL     1      -4.234   2.433  25.049  0.00  0.00    -0.298 N 
ATOM     25  C   UNL     1      -3.417   2.495  24.955  0.00  0.00    +0.276 A 
ATOM     26  O   UNL     1      -3.030   3.194  25.158  0.00  0.00    -0.266 OA
ENDROOT
BRANCH   4   3
ATOM      1  O   UNL     1      -0.879   1.305  24.531  0.00  0.00    -0.266 OA
ATOM      2  C   UNL     1      -1.697   1.244  24.625  0.00  0.00    +0.288 C 
ATOM      3  N   UNL     1      -2.170   1.917  24.565  0.00  0.00    -0.169 NA
BRANCH   2  27
ATOM     27  C   UNL     1      -2.041   0.510  24.780  0.00  0.00    +0.156 A 
ATOM     28  C   UNL     1      -2.299   0.036  24.155  0.00  0.00    +0.123 A 
ATOM     29  N   UNL     1      -2.643  -0.698  24.310  0.00  0.00    -0.239 NA
ATOM     30  C   UNL     1      -2.728  -0.957  25.088  0.00  0.00    +0.120 A 
ATOM     31  C   UNL     1      -2.469  -0.483  25.713  0.00  0.00    +0.120 A 
ATOM     32  N   UNL     1      -2.126   0.251  25.558  0.00  0.00    -0.236 NA
ENDBRANCH   2  27
ENDBRANCH   4   3
BRANCH  12  14
ATOM     14  S   UNL     1      -3.859   3.493  25.386  0.00  0.00    +0.063 S 
ATOM     15  O   UNL     1      -3.961   3.749  24.608  0.00  0.00    -0.153 OA
ATOM     16  O   UNL     1      -3.758   3.238  26.165  0.00  0.00    -0.153 OA
BRANCH  14  17
ATOM     17  C   UNL     1      -3.066   3.721  25.358  0.00  0.00    +0.122 A 
ATOM     18  C   UNL     1      -2.753   4.035  24.663  0.00  0.00    +0.020 A 
ATOM     19  C   UNL     1      -1.960   4.263  24.634  0.00  0.00    +0.001 A 
ATOM     20  C   UNL     1      -1.482   4.175  25.300  0.00  0.00    +0.000 A 
ATOM     21  C   UNL     1      -1.795   3.860  25.995  0.00  0.00    +0.001 A 
ATOM     22  C   UNL     1      -2.588   3.633  26.024  0.00  0.00    +0.020 A 
ENDBRANCH  14  17
ENDBRANCH  12  14
TORSDOF 4
ENDMDL
MODEL 3
REMARK VINA RESULT:     -13.3      1.311      3.509
REMARK  Name = 
REMARK  4 active torsions:
REMARK  status: ('A' for Active; 'I' for Inactive)
REMARK    1  A    between atoms: C_2  and  C_27
REMARK    2  A    between atoms: N_3  and  C_4
REMARK    3  A    between atoms: N_12  and  S_14
REMARK    4  A    between atoms: S_14  and  C_17
REMARK                            x       y       z     vdW  Elec       q    Type
REMARK                         _______ _______ _______ _____ _____    ______ ____
ROOT
ATOM      4  C   UNL     1      -2.844   1.248  24.362  0.00  0.00    +0.130 A 
ATOM      5  C   UNL     1      -3.633   1.149  24.143  0.00  0.00    +0.023 A 
ATOM      6  C   UNL     1      -3.969   0.396  24.137  0.00  0.00    +0.014 A 
ATOM      7  C   UNL     1      -3.515  -0.259  24.350  0.00  0.00    +0.041 A 
ATOM      8  C   UNL     1      -3.578  -1.171  24.442  0.00  0.00    +0.056 C 
ATOM      9  C   UNL     1      -4.032  -1.702  24.374  0.00  0.00    +0.011 C 
ATOM     10  C   UNL     1      -3.253  -1.600  24.590  0.00  0.00    +0.041 C 
ATOM     11  C   UNL     1      -2.311  -1.682  24.876  0.00  0.00    +0.098 C 
ATOM     12  N   UNL     1      -2.085  -0.879  24.844  0.00  0.00    -0.155 NA
ATOM     13  C   UNL     1      -2.669  -1.267  24.720  0.00  0.00    +0.102 C 
ATOM     23  C   UNL     1      -3.178  -0.648  24.496  0.00  0.00    +0.110 C 
ATOM     24  N   UNL     1      -2.725  -0.160  24.569  0.00  0.00    -0.298 N 
ATOM     25  C   UNL     1      -2.390   0.593  24.575  0.00  0.00    +0.276 A 
ATOM     26  O   UNL     1      -1.601   0.692  24.795  0.00  0.00    -0.266 OA
ENDROOT
BRANCH   4   3
ATOM      1  O   UNL     1      -2.643   3.415  24.537  0.00  0.00    -0.266 OA
ATOM      2  C   UNL     1      -2.979   2.660  24.531  0.00  0.00    +0.288 C 
ATOM      3  N   UNL     1      -2.510   2.002  24.369  0.00  0.00    -0.169 NA
BRANCH   2  27
ATOM     27  C   UNL     1      -3.783   2.565  24.687  0.00  0.00    +0.156 A 
ATOM     28  C   UNL     1      -4.328   2.580  24.068  0.00  0.00    +0.123 A 
ATOM     29  N   UNL     1      -5.133   2.485  24.224  0.00  0.00    -0.239 NA
ATOM     30  C   UNL     1      -5.392   2.375  24.999  0.00  0.00    +0.120 A 
ATOM     31  C   UNL     1      -4.847   2.361  25.619  0.00  0.00    +0.120 A 
ATOM     32  N   UNL     1      -4.042   2.456  25.463  0.00  0.00    -0.236 NA
ENDBRANCH   2  27
ENDBRANCH   4   3
BRANCH  12  14
ATOM     14  S   UNL     1      -1.602  -0.212  24.905  0.00  0.00    +0.063 S 
ATOM     15  O   UNL     1      -1.386  -0.297  24.112  0.00  0.00    -0.153 OA
ATOM     16  O   UNL     1      -1.817  -0.128  25.697  0.00  0.00    -0.153 OA
BRANCH  14  17
ATOM     17  C   UNL     1      -1.119   0.454  24.965  0.00  0.00    +0.122 A 
ATOM     18  C   UNL     1      -0.711   0.729  24.303  0.00  0.00    +0.020 A 
ATOM     19  C   UNL     1      -0.228   1.396  24.363  0.00  0.00    +0.001 A 
ATOM     20  C   UNL     1      -0.153   1.786  25.086  0.00  0.00    +0.000 A 
ATOM     21  C   UNL     1      -0.561   1.511  25.748  0.00  0.00    +0.001 A 
ATOM     22  C   UNL     1      -1.044   0.844  25.687  0.00  0.00    +0.020 A 
ENDBRANCH  14  17
ENDBRANCH  12  14
TORSDOF 4
ENDMDL
MODEL 4
REMARK VINA RESULT:     -13.1      1.947      3.171
REMARK  Name = 
REMARK  4 active torsions:
REMARK  status: ('A' for Active; 'I' for Inactive)
REMARK    1  A    between atoms: C_2  and  C_27
REMARK    2  A    between atoms: N_3  and  C_4
REMARK    3  A    between atoms: N_12  and  S_14
REMARK    4  A    between atoms: S_14  and  C_17
REMARK                            x       y       z     vdW  Elec       q    Type
REMARK                         _______ _______ _______ _____ _____    ______ ____
ROOT
ATOM      4  C   UNL     1      -2.605   1.944  24.452  0.00  0.00    +0.130 A 
ATOM      5  C   UNL     1      -1.802   1.810  24.315  0.00  0.00    +0.023 A 
ATOM      6  C   UNL     1      -1.252   2.406  24.466  0.00  0.00    +0.014 A 
ATOM      7  C   UNL     1      -1.505   3.136  24.755  0.00  0.00    +0.041 A 
ATOM      8  C   UNL     1      -1.175   3.955  25.010  0.00  0.00    +0.056 C 
ATOM      9  C   UNL     1      -0.574   4.312  25.071  0.00  0.00    +0.011 C 
ATOM     10  C   UNL     1      -1.367   4.441  25.205  0.00  0.00    +0.041 C 
ATOM     11  C   UNL     1      -2.267   4.785  25.428  0.00  0.00    +0.098 C 
ATOM     12  N   UNL     1      -2.724   4.112  25.239  0.00  0.00    -0.155 NA
ATOM     13  C   UNL     1      -2.038   4.302  25.230  0.00  0.00    +0.102 C 
ATOM     23  C   UNL     1      -1.721   3.588  24.940  0.00  0.00    +0.110 C 
ATOM     24  N   UNL     1      -2.307   3.270  24.892  0.00  0.00    -0.298 N 
ATOM     25  C   UNL     1      -2.857   2.674  24.741  0.00  0.00    +0.276 A 
ATOM     26  O   UNL     1      -3.660   2.808  24.878  0.00  0.00    -0.266 OA
ENDROOT
BRANCH   4   3
ATOM      1  O   UNL     1      -3.484  -0.041  24.221  0.00  0.00    -0.266 OA
ATOM      2  C   UNL     1      -2.934   0.556  24.373  0.00  0.00    +0.288 C 
ATOM      3  N   UNL     1      -3.153   1.348  24.300  0.00  0.00    -0.169 NA
BRANCH   2  27
ATOM     27  C   UNL     1      -2.164   0.360  24.597  0.00  0.00    +0.156 A 
ATOM     28  C   UNL     1      -1.580   0.262  24.022  0.00  0.00    +0.123 A 
ATOM     29  N   UNL     1      -0.810   0.066  24.246  0.00  0.00    -0.239 NA
ATOM     30  C   UNL     1      -0.626  -0.031  25.044  0.00  0.00    +0.120 A 
ATOM     31  C   UNL     1      -1.210   0.067  25.619  0.00  0.00    +0.120 A 
ATOM     32  N   UNL     1      -1.980   0.263  25.395  0.00  0.00    -0.236 NA
ENDBRANCH   2  27
ENDBRANCH   4   3
BRANCH  12  14
ATOM     14  S   UNL     1      -3.393   3.638  25.144  0.00  0.00    +0.063 S 
ATOM     15  O   UNL     1      -3.467   3.897  24.364  0.00  0.00    -0.153 OA
ATOM     16  O   UNL     1      -3.320   3.378  25.924  0.00  0.00    -0.153 OA
BRANCH  14  17
ATOM     17  C   UNL     1      -4.062   3.164  25.050  0.00  0.00    +0.122 A 
ATOM     18  C   UNL     1      -4.419   3.098  24.309  0.00  0.00    +0.020 A 
ATOM     19  C   UNL     1      -5.088   2.624  24.215  0.00  0.00    +0.001 A 
ATOM     20  C   UNL     1      -5.399   2.217  24.861  0.00  0.00    +0.000 A 
ATOM     21  C   UNL     1      -5.043   2.283  25.601  0.00  0.00    +0.001 A 
ATOM     22  C   UNL     1      -4.373   2.757  25.696  0.00  0.00    +0.020 A 
ENDBRANCH  14  17
ENDBRANCH  12  14
TORSDOF 4
ENDMDL
