MODEL 1
REMARK VINA RESULT:     -11.5      0.000      0.000
REMARK  Name = 
REMARK  5 active torsions:
REMARK  status: ('A' for Active; 'I' for Inactive)
REMARK    1  A    between atoms: O_2  and  C_3
REMARK    2  A    between atoms: C_6  and  C_9
REMARK    3  A    between atoms: C_15  and  N_16
REMARK    4  A    between atoms: N_16  and  C_17
REMARK    5  A    between atoms: C_17  and  C_18
REMARK                            x       y       z     vdW  Elec       q    Type
REMARK                         _______ _______ _______ _____ _____    ______ ____
ROOT
ATOM      9  C   UNL     1      -3.753   2.260  24.715  0.00  0.00    +0.044 C 
ATOM     10  C   UNL     1      -4.229   2.906  24.900  0.00  0.00    +0.041 C 
ATOM     11  C   UNL     1      -4.984   2.625  25.076  0.00  0.00    +0.184 C 
ATOM     12  O   UNL     1      -5.635   3.084  25.290  0.00  0.00    -0.220 OA
ATOM     13  C   UNL     1      -4.974   1.803  25.000  0.00  0.00    +0.198 C 
ATOM     14  O   UNL     1      -5.613   1.297  25.125  0.00  0.00    -0.219 OA
ATOM     15  C   UNL     1      -4.213   1.577  24.777  0.00  0.00    +0.110 C 
ENDROOT
BRANCH   9   6
ATOM      3  C   UNL     1      -1.361   2.348  24.084  0.00  0.00    +0.139 A 
ATOM      4  C   UNL     1      -1.579   2.379  24.879  0.00  0.00    +0.037 A 
ATOM      5  C   UNL     1      -2.377   2.350  25.089  0.00  0.00    -0.001 A 
ATOM      6  C   UNL     1      -2.955   2.289  24.505  0.00  0.00    -0.021 A 
ATOM      7  C   UNL     1      -2.737   2.257  23.710  0.00  0.00    -0.001 A 
ATOM      8  C   UNL     1      -1.939   2.287  23.500  0.00  0.00    +0.037 A 
BRANCH   3   2
ATOM      1  C   UNL     1      -0.019   1.883  24.249  0.00  0.00    +0.252 C 
ATOM      2  O   UNL     1      -0.563   2.377  23.874  0.00  0.00    -0.471 OA
ENDBRANCH   3   2
ENDBRANCH   9   6
BRANCH  15  16
ATOM     16  N   UNL     1      -3.957   0.806  24.640  0.00  0.00    -0.212 NA
BRANCH  16  17
ATOM     17  C   UNL     1      -4.344   0.173  25.000  0.00  0.00    +0.115 C 
BRANCH  17  18
ATOM     18  C   UNL     1      -4.063  -0.596  24.895  0.00  0.00    -0.005 A 
ATOM     19  C   UNL     1      -4.250  -1.014  24.209  0.00  0.00    -0.002 A 
ATOM     20  C   UNL     1      -3.969  -1.783  24.105  0.00  0.00    +0.011 A 
ATOM     21  C   UNL     1      -3.502  -2.134  24.687  0.00  0.00    +0.058 A 
ATOM     22 CL   UNL     1      -3.221  -2.903  24.583  0.00  0.00    -0.082 Cl
ATOM     23  C   UNL     1      -3.315  -1.716  25.373  0.00  0.00    +0.011 A 
ATOM     24  C   UNL     1      -3.596  -0.947  25.478  0.00  0.00    -0.002 A 
ENDBRANCH  17  18
ENDBRANCH  16  17
ENDBRANCH  15  16
TORSDOF 5
ENDMDL
MODEL 2
REMARK VINA RESULT:     -10.9      1.690      3.636
REMARK  Name = 
REMARK  5 active torsions:
REMARK  status: ('A' for Active; 'I' for Inactive)
REMARK    1  A    between atoms: O_2  and  C_3
REMARK    2  A    between atoms: C_6  and  C_9
REMARK    3  A    between atoms: C_15  and  N_16
REMARK    4  A    between atoms: N_16  and  C_17
REMARK    5  A    between atoms: C_17  and  C_18
REMARK                            x       y       z     vdW  Elec       q    Type
REMARK                         _______ _______ _______ _____ _____    ______ ____
ROOT
ATOM      9  C   UNL     1      -4.439   0.659  24.872  0.00  0.00    +0.044 C 
ATOM     10  C   UNL     1      -5.216   0.893  25.021  0.00  0.00    +0.041 C 
ATOM     11  C   UNL     1      -5.243   1.716  24.998  0.00  0.00    +0.184 C 
ATOM     12  O   UNL     1      -5.913   2.183  25.118  0.00  0.00    -0.220 OA
ATOM     13  C   UNL     1      -4.483   1.992  24.833  0.00  0.00    +0.198 C 
ATOM     14  O   UNL     1      -4.259   2.783  24.760  0.00  0.00    -0.219 OA
ATOM     15  C   UNL     1      -3.986   1.339  24.755  0.00  0.00    +0.110 C 
ENDROOT
BRANCH   9   6
ATOM      3  C   UNL     1      -3.612  -1.672  24.786  0.00  0.00    +0.139 A 
ATOM      4  C   UNL     1      -3.610  -1.260  25.500  0.00  0.00    +0.037 A 
ATOM      5  C   UNL     1      -3.886  -0.482  25.528  0.00  0.00    -0.001 A 
ATOM      6  C   UNL     1      -4.164  -0.118  24.843  0.00  0.00    -0.021 A 
ATOM      7  C   UNL     1      -4.166  -0.530  24.129  0.00  0.00    -0.001 A 
ATOM      8  C   UNL     1      -3.890  -1.308  24.100  0.00  0.00    +0.037 A 
BRANCH   3   2
ATOM      1  C   UNL     1      -2.564  -2.605  24.513  0.00  0.00    +0.252 C 
ATOM      2  O   UNL     1      -3.336  -2.450  24.757  0.00  0.00    -0.471 OA
ENDBRANCH   3   2
ENDBRANCH   9   6
BRANCH  15  16
ATOM     16  N   UNL     1      -3.179   1.361  24.590  0.00  0.00    -0.212 NA
BRANCH  16  17
ATOM     17  C   UNL     1      -2.736   2.029  24.783  0.00  0.00    +0.115 C 
BRANCH  17  18
ATOM     18  C   UNL     1      -1.915   2.020  24.697  0.00  0.00    -0.005 A 
ATOM     19  C   UNL     1      -1.580   1.975  23.945  0.00  0.00    -0.002 A 
ATOM     20  C   UNL     1      -0.759   1.966  23.859  0.00  0.00    +0.011 A 
ATOM     21  C   UNL     1      -0.275   2.002  24.525  0.00  0.00    +0.058 A 
ATOM     22 CL   UNL     1       0.546   1.993  24.439  0.00  0.00    -0.082 Cl
ATOM     23  C   UNL     1      -0.610   2.048  25.278  0.00  0.00    +0.011 A 
ATOM     24  C   UNL     1      -1.431   2.057  25.364  0.00  0.00    -0.002 A 
ENDBRANCH  17  18
ENDBRANCH  16  17
ENDBRANCH  15  16
TORSDOF 5
ENDMDL
