MODEL 1
REMARK VINA RESULT:     -10.5      0.000      0.000
REMARK  Name = 
REMARK  7 active torsions:
REMARK  status: ('A' for Active; 'I' for Inactive)
REMARK    1  A    between atoms: O_2  and  C_3
REMARK    2  A    between atoms: C_3  and  C_4
REMARK    3  A    between atoms: C_6  and  C_7
REMARK    4  A    between atoms: C_7  and  C_8
REMARK    5  A    between atoms: C_13  and  C_14
REMARK    6  A    between atoms: C_14  and  N_15
REMARK    7  A    between atoms: N_15  and  C_16
REMARK                            x       y       z     vdW  Elec       q    Type
REMARK                         _______ _______ _______ _____ _____    ______ ____
ROOT
ATOM      8  C   UNL     1      -4.200   2.820  24.775  0.00  0.00    +0.121 C 
ATOM      9  C   UNL     1      -4.885   3.166  25.077  0.00  0.00    +0.033 C 
ATOM     10  C   UNL     1      -5.502   2.688  25.347  0.00  0.00    +0.038 C 
ATOM     11  C   UNL     1      -5.434   1.867  25.315  0.00  0.00    +0.180 C 
ATOM     12  O   UNL     1      -6.050   1.391  25.584  0.00  0.00    -0.220 OA
ATOM     13  C   UNL     1      -4.748   1.523  25.012  0.00  0.00    +0.163 C 
ATOM     22  O   UNL     1      -4.131   1.999  24.742  0.00  0.00    -0.354 OA
ENDROOT
BRANCH   8   7
ATOM      7  C   UNL     1      -3.583   3.297  24.505  0.00  0.00    +0.079 C 
BRANCH   7   6
ATOM      4  C   UNL     1      -1.716   3.472  25.525  0.00  0.00    +0.184 A 
ATOM      5  C   UNL     1      -2.177   3.165  24.914  0.00  0.00    +0.056 A 
ATOM      6  C   UNL     1      -2.942   3.463  24.997  0.00  0.00    +0.103 A 
ATOM     23  N   UNL     1      -2.954   3.954  25.660  0.00  0.00    -0.082 NA
ATOM     24  O   UNL     1      -2.196   3.960  25.987  0.00  0.00    -0.356 OA
BRANCH   4   3
ATOM      3  C   UNL     1      -0.915   3.319  25.653  0.00  0.00    +0.209 C 
BRANCH   3   2
ATOM      1  C   UNL     1       0.110   2.512  26.234  0.00  0.00    +0.175 C 
ATOM      2  O   UNL     1      -0.687   2.706  26.156  0.00  0.00    -0.343 OA
ENDBRANCH   3   2
ENDBRANCH   4   3
ENDBRANCH   7   6
ENDBRANCH   8   7
BRANCH  13  14
ATOM     14  C   UNL     1      -4.679   0.701  24.979  0.00  0.00    +0.121 C 
BRANCH  14  15
ATOM     15  N   UNL     1      -3.993   0.356  24.677  0.00  0.00    -0.217 NA
BRANCH  15  16
ATOM     16  C   UNL     1      -3.913  -0.466  24.673  0.00  0.00    +0.073 C 
ATOM     17  C   UNL     1      -3.572  -0.848  25.320  0.00  0.00    +0.017 C 
ATOM     18  C   UNL     1      -3.492  -1.670  25.317  0.00  0.00    +0.001 C 
ATOM     19  C   UNL     1      -3.752  -2.108  24.668  0.00  0.00    +0.000 C 
ATOM     20  C   UNL     1      -4.093  -1.725  24.022  0.00  0.00    +0.001 C 
ATOM     21  C   UNL     1      -4.173  -0.903  24.025  0.00  0.00    +0.017 C 
ENDBRANCH  15  16
ENDBRANCH  14  15
ENDBRANCH  13  14
TORSDOF 7
ENDMDL
MODEL 2
REMARK VINA RESULT:      -9.6      1.430      4.231
REMARK  Name = 
REMARK  7 active torsions:
REMARK  status: ('A' for Active; 'I' for Inactive)
REMARK    1  A    between atoms: O_2  and  C_3
REMARK    2  A    between atoms: C_3  and  C_4
REMARK    3  A    between atoms: C_6  and  C_7
REMARK    4  A    between atoms: C_7  and  C_8
REMARK    5  A    between atoms: C_13  and  C_14
REMARK    6  A    between atoms: C_14  and  N_15
REMARK    7  A    between atoms: N_15  and  C_16
REMARK                            x       y       z     vdW  Elec       q    Type
REMARK                         _______ _______ _______ _____ _____    ______ ____
ROOT
ATOM      8  C   UNL     1      -4.564   1.524  24.704  0.00  0.00    +0.121 C 
ATOM      9  C   UNL     1      -5.303   1.671  25.039  0.00  0.00    +0.033 C 
ATOM     10  C   UNL     1      -5.455   2.397  25.400  0.00  0.00    +0.038 C 
ATOM     11  C   UNL     1      -4.867   2.976  25.427  0.00  0.00    +0.180 C 
ATOM     12  O   UNL     1      -5.019   3.701  25.789  0.00  0.00    -0.220 OA
ATOM     13  C   UNL     1      -4.128   2.828  25.092  0.00  0.00    +0.163 C 
ATOM     22  O   UNL     1      -3.976   2.102  24.731  0.00  0.00    -0.354 OA
ENDROOT
BRANCH   8   7
ATOM      7  C   UNL     1      -4.412   0.797  24.342  0.00  0.00    +0.079 C 
BRANCH   7   6
ATOM      4  C   UNL     1      -3.084  -0.688  25.106  0.00  0.00    +0.184 A 
ATOM      5  C   UNL     1      -3.281  -0.119  24.542  0.00  0.00    +0.056 A 
ATOM      6  C   UNL     1      -4.009   0.208  24.753  0.00  0.00    +0.103 A 
ATOM     23  N   UNL     1      -4.261  -0.159  25.448  0.00  0.00    -0.082 NA
ATOM     24  O   UNL     1      -3.690  -0.713  25.666  0.00  0.00    -0.356 OA
BRANCH   4   3
ATOM      3  C   UNL     1      -2.401  -1.151  25.110  0.00  0.00    +0.209 C 
BRANCH   3   2
ATOM      1  C   UNL     1      -1.679  -2.295  24.649  0.00  0.00    +0.175 C 
ATOM      2  O   UNL     1      -2.367  -1.841  24.657  0.00  0.00    -0.343 OA
ENDBRANCH   3   2
ENDBRANCH   4   3
ENDBRANCH   7   6
ENDBRANCH   8   7
BRANCH  13  14
ATOM     14  C   UNL     1      -3.540   3.406  25.119  0.00  0.00    +0.121 C 
BRANCH  14  15
ATOM     15  N   UNL     1      -2.797   3.225  25.428  0.00  0.00    -0.217 NA
BRANCH  15  16
ATOM     16  C   UNL     1      -2.157   3.725  25.280  0.00  0.00    +0.073 C 
ATOM     17  C   UNL     1      -1.442   3.409  25.013  0.00  0.00    +0.017 C 
ATOM     18  C   UNL     1      -0.801   3.908  24.865  0.00  0.00    +0.001 C 
ATOM     19  C   UNL     1      -0.876   4.722  24.983  0.00  0.00    +0.000 C 
ATOM     20  C   UNL     1      -1.590   5.036  25.250  0.00  0.00    +0.001 C 
ATOM     21  C   UNL     1      -2.231   4.537  25.398  0.00  0.00    +0.017 C 
ENDBRANCH  15  16
ENDBRANCH  14  15
ENDBRANCH  13  14
TORSDOF 7
ENDMDL
MODEL 3
REMARK VINA RESULT:      -9.2      1.446      3.050
REMARK  Name = 
REMARK  7 active torsions:
REMARK  status: ('A' for Active; 'I' for Inactive)
REMARK    1  A    between atoms: O_2  and  C_3
REMARK    2  A    between atoms: C_3  and  C_4
REMARK    3  A    between atoms: C_6  and  C_7
REMARK    4  A    between atoms: C_7  and  C_8
REMARK    5  A    between atoms: C_13  and  C_14
REMARK    6  A    between atoms: C_14  and  N_15
REMARK    7  A    between atoms: N_15  and  C_16
REMARK                            x       y       z     vdW  Elec       q    Type
REMARK                         _______ _______ _______ _____ _____    ______ ____
ROOT
ATOM      8  C   UNL     1      -1.699   1.771  24.487  0.00  0.00    +0.121 C 
ATOM      9  C   UNL     1      -0.958   1.830  24.846  0.00  0.00    +0.033 C 
ATOM     10  C   UNL     1      -0.584   1.152  25.131  0.00  0.00    +0.038 C 
ATOM     11  C   UNL     1      -0.950   0.416  25.058  0.00  0.00    +0.180 C 
ATOM     12  O   UNL     1      -0.576  -0.261  25.343  0.00  0.00    -0.220 OA
ATOM     13  C   UNL     1      -1.691   0.359  24.699  0.00  0.00    +0.163 C 
ATOM     22  O   UNL     1      -2.065   1.036  24.414  0.00  0.00    -0.354 OA
ENDROOT
BRANCH   8   7
ATOM      7  C   UNL     1      -2.073   2.449  24.202  0.00  0.00    +0.079 C 
BRANCH   7   6
ATOM      4  C   UNL     1      -3.749   3.340  25.180  0.00  0.00    +0.184 A 
ATOM      5  C   UNL     1      -3.430   2.866  24.585  0.00  0.00    +0.056 A 
ATOM      6  C   UNL     1      -2.610   2.856  24.678  0.00  0.00    +0.103 A 
ATOM     23  N   UNL     1      -2.422   3.324  25.330  0.00  0.00    -0.082 NA
ATOM     24  O   UNL     1      -3.125   3.624  25.641  0.00  0.00    -0.356 OA
BRANCH   4   3
ATOM      3  C   UNL     1      -4.549   3.502  25.295  0.00  0.00    +0.209 C 
BRANCH   3   2
ATOM      1  C   UNL     1      -5.837   3.068  25.735  0.00  0.00    +0.175 C 
ATOM      2  O   UNL     1      -5.017   2.983  25.733  0.00  0.00    -0.343 OA
ENDBRANCH   3   2
ENDBRANCH   4   3
ENDBRANCH   7   6
ENDBRANCH   8   7
BRANCH  13  14
ATOM     14  C   UNL     1      -2.057  -0.377  24.625  0.00  0.00    +0.121 C 
BRANCH  14  15
ATOM     15  N   UNL     1      -2.860  -0.458  24.797  0.00  0.00    -0.217 NA
BRANCH  15  16
ATOM     16  C   UNL     1      -3.253  -1.158  24.608  0.00  0.00    +0.073 C 
ATOM     17  C   UNL     1      -3.823  -1.162  24.011  0.00  0.00    +0.017 C 
ATOM     18  C   UNL     1      -4.217  -1.862  23.821  0.00  0.00    +0.001 C 
ATOM     19  C   UNL     1      -4.040  -2.558  24.229  0.00  0.00    +0.000 C 
ATOM     20  C   UNL     1      -3.471  -2.553  24.825  0.00  0.00    +0.001 C 
ATOM     21  C   UNL     1      -3.077  -1.853  25.015  0.00  0.00    +0.017 C 
ENDBRANCH  15  16
ENDBRANCH  14  15
ENDBRANCH  13  14
TORSDOF 7
ENDMDL
MODEL 4
REMARK VINA RESULT:      -9.2      1.977      3.838
REMARK  Name = 
REMARK  7 active torsions:
REMARK  status: ('A' for Active; 'I' for Inactive)
REMARK    1  A    between atoms: O_2  and  C_3
REMARK    2  A    between atoms: C_3  and  C_4
REMARK    3  A    between atoms: C_6  and  C_7
REMARK    4  A    between atoms: C_7  and  C_8
REMARK    5  A    between atoms: C_13  and  C_14
REMARK    6  A    between atoms: C_14  and  N_15
REMARK    7  A    between atoms: N_15  and  C_16
REMARK                            x       y       z     vdW  Elec       q    Type
REMARK                         _______ _______ _______ _____ _____    ______ ____
ROOT
ATOM      8  C   UNL     1      -2.438  -1.388  24.977  0.00  0.00    +0.121 C 
ATOM      9  C   UNL     1      -2.637  -2.118  24.647  0.00  0.00    +0.033 C 
ATOM     10  C   UNL     1      -3.378  -2.225  24.302  0.00  0.00    +0.038 C 
ATOM     11  C   UNL     1      -3.921  -1.604  24.286  0.00  0.00    +0.180 C 
ATOM     12  O   UNL     1      -4.662  -1.712  23.941  0.00  0.00    -0.220 OA
ATOM     13  C   UNL     1      -3.722  -0.875  24.616  0.00  0.00    +0.163 C 
ATOM     22  O   UNL     1      -2.981  -0.767  24.961  0.00  0.00    -0.354 OA
ENDROOT
BRANCH   8   7
ATOM      7  C   UNL     1      -1.696  -1.280  25.323  0.00  0.00    +0.079 C 
BRANCH   7   6
ATOM      4  C   UNL     1      -0.351   0.231  24.641  0.00  0.00    +0.184 A 
ATOM      5  C   UNL     1      -0.941  -0.030  25.155  0.00  0.00    +0.056 A 
ATOM      6  C   UNL     1      -1.133  -0.806  24.951  0.00  0.00    +0.103 A 
ATOM     23  N   UNL     1      -0.662  -1.025  24.310  0.00  0.00    -0.082 NA
ATOM     24  O   UNL     1      -0.179  -0.384  24.118  0.00  0.00    -0.356 OA
BRANCH   4   3
ATOM      3  C   UNL     1       0.003   0.976  24.647  0.00  0.00    +0.209 C 
BRANCH   3   2
ATOM      1  C   UNL     1      -0.067   2.379  24.388  0.00  0.00    +0.175 C 
ATOM      2  O   UNL     1      -0.395   1.626  24.329  0.00  0.00    -0.343 OA
ENDBRANCH   3   2
ENDBRANCH   4   3
ENDBRANCH   7   6
ENDBRANCH   8   7
BRANCH  13  14
ATOM     14  C   UNL     1      -4.264  -0.254  24.601  0.00  0.00    +0.121 C 
BRANCH  14  15
ATOM     15  N   UNL     1      -4.207   0.359  25.151  0.00  0.00    -0.217 NA
BRANCH  15  16
ATOM     16  C   UNL     1      -4.635   1.055  25.038  0.00  0.00    +0.073 C 
ATOM     17  C   UNL     1      -4.316   1.665  24.583  0.00  0.00    +0.017 C 
ATOM     18  C   UNL     1      -4.744   2.362  24.470  0.00  0.00    +0.001 C 
ATOM     19  C   UNL     1      -5.490   2.448  24.812  0.00  0.00    +0.000 C 
ATOM     20  C   UNL     1      -5.808   1.838  25.267  0.00  0.00    +0.001 C 
ATOM     21  C   UNL     1      -5.380   1.141  25.380  0.00  0.00    +0.017 C 
ENDBRANCH  15  16
ENDBRANCH  14  15
ENDBRANCH  13  14
TORSDOF 7
ENDMDL
