MODEL 1
REMARK VINA RESULT:     -15.2      0.000      0.000
REMARK  Name = 
REMARK  5 active torsions:
REMARK  status: ('A' for Active; 'I' for Inactive)
REMARK    1  A    between atoms: C_2  and  C_3
REMARK    2  A    between atoms: C_11  and  C_12
REMARK    3  A    between atoms: C_12  and  C_13
REMARK    4  A    between atoms: N_15  and  C_16
REMARK    5  A    between atoms: C_28  and  C_30
REMARK                            x       y       z     vdW  Elec       q    Type
REMARK                         _______ _______ _______ _____ _____    ______ ____
ROOT
ATOM      1  C   UNL     1      -2.506  -2.704  24.623  0.00  0.00    +0.005 C 
ATOM      2  C   UNL     1      -2.767  -1.927  24.533  0.00  0.00    +0.059 C 
ATOM      5  C   UNL     1      -3.462  -2.332  24.355  0.00  0.00    +0.154 C 
ATOM      6  O   UNL     1      -3.476  -3.157  24.372  0.00  0.00    -0.223 OA
ATOM      7  C   UNL     1      -4.146  -1.913  24.160  0.00  0.00    +0.033 C 
ATOM      8  C   UNL     1      -4.133  -1.089  24.143  0.00  0.00    +0.003 C 
ATOM      9  C   UNL     1      -3.438  -0.683  24.320  0.00  0.00    +0.006 C 
ATOM     10  C   UNL     1      -4.120  -0.265  24.125  0.00  0.00    +0.000 C 
ATOM     11  C   UNL     1      -3.424   0.142  24.303  0.00  0.00    +0.050 C 
ATOM     21  C   UNL     1      -2.729   0.547  24.480  0.00  0.00    +0.063 A 
ATOM     22  C   UNL     1      -2.045   0.127  24.676  0.00  0.00    +0.023 A 
ATOM     23  C   UNL     1      -2.058  -0.697  24.693  0.00  0.00    +0.034 C 
ATOM     24  C   UNL     1      -2.754  -1.103  24.515  0.00  0.00    +0.010 C 
ATOM     25  S   UNL     1      -1.445   0.674  24.824  0.00  0.00    -0.054 S 
ATOM     26  C   UNL     1      -1.756   1.431  24.720  0.00  0.00    +0.186 A 
ATOM     27  N   UNL     1      -1.347   2.141  24.813  0.00  0.00    -0.148 NA
ATOM     28  C   UNL     1      -1.734   2.858  24.690  0.00  0.00    +0.305 C 
ATOM     29  O   UNL     1      -2.531   2.867  24.475  0.00  0.00    -0.265 OA
ATOM     35  N   UNL     1      -2.550   1.352  24.508  0.00  0.00    -0.227 NA
ENDROOT
BRANCH  28  30
ATOM     30  C   UNL     1      -1.325   3.569  24.783  0.00  0.00    +0.201 A 
ATOM     31  C   UNL     1      -1.595   4.235  25.189  0.00  0.00    +0.046 A 
ATOM     32  C   UNL     1      -1.010   4.816  25.143  0.00  0.00    +0.044 A 
ATOM     33  C   UNL     1      -0.380   4.509  24.708  0.00  0.00    +0.180 A 
ATOM     34  O   UNL     1      -0.574   3.738  24.486  0.00  0.00    -0.446 OA
ENDBRANCH  28  30
BRANCH   2   3
ATOM      3  C   UNL     1      -1.980  -1.792  24.742  0.00  0.00    +0.184 C 
ATOM      4  O   UNL     1      -1.470  -2.429  24.864  0.00  0.00    -0.220 OA
ENDBRANCH   2   3
BRANCH  11  12
ATOM     12  C   UNL     1      -4.107   0.561  24.108  0.00  0.00    +0.093 C 
BRANCH  12  13
ATOM     13  C   UNL     1      -4.525   0.966  24.694  0.00  0.00    +0.242 C 
ATOM     14  O   UNL     1      -4.435   0.753  25.486  0.00  0.00    -0.273 OA
ATOM     15  N   UNL     1      -5.031   1.583  24.488  0.00  0.00    -0.207 NA
BRANCH  15  16
ATOM     16  C   UNL     1      -5.448   1.988  25.073  0.00  0.00    +0.095 C 
ATOM     17  C   UNL     1      -5.325   2.771  25.301  0.00  0.00    +0.022 C 
ATOM     18  C   UNL     1      -5.862   2.949  25.902  0.00  0.00    +0.002 C 
ATOM     19  C   UNL     1      -6.317   2.275  26.045  0.00  0.00    +0.002 C 
ATOM     20  C   UNL     1      -6.061   1.681  25.533  0.00  0.00    +0.022 C 
ENDBRANCH  15  16
ENDBRANCH  12  13
ENDBRANCH  11  12
TORSDOF 5
ENDMDL
MODEL 2
REMARK VINA RESULT:     -13.7      1.793      4.077
REMARK  Name = 
REMARK  5 active torsions:
REMARK  status: ('A' for Active; 'I' for Inactive)
REMARK    1  A    between atoms: C_2  and  C_3
REMARK    2  A    between atoms: C_11  and  C_12
REMARK    3  A    between atoms: C_12  and  C_13
REMARK    4  A    between atoms: N_15  and  C_16
REMARK    5  A    between atoms: C_28  and  C_30
REMARK                            x       y       z     vdW  Elec       q    Type
REMARK                         _______ _______ _______ _____ _____    ______ ____
ROOT
ATOM      1  C   UNL     1      -4.761   3.639  25.749  0.00  0.00    +0.005 C 
ATOM      2  C   UNL     1      -4.420   2.994  25.364  0.00  0.00    +0.059 C 
ATOM      5  C   UNL     1      -5.212   2.767  25.350  0.00  0.00    +0.154 C 
ATOM      6  O   UNL     1      -5.788   3.255  25.684  0.00  0.00    -0.223 OA
ATOM      7  C   UNL     1      -5.431   2.050  25.002  0.00  0.00    +0.033 C 
ATOM      8  C   UNL     1      -4.856   1.563  24.668  0.00  0.00    +0.003 C 
ATOM      9  C   UNL     1      -4.064   1.790  24.682  0.00  0.00    +0.006 C 
ATOM     10  C   UNL     1      -4.281   1.075  24.335  0.00  0.00    +0.000 C 
ATOM     11  C   UNL     1      -3.488   1.302  24.348  0.00  0.00    +0.050 C 
ATOM     21  C   UNL     1      -2.696   1.528  24.362  0.00  0.00    +0.063 A 
ATOM     22  C   UNL     1      -2.477   2.245  24.710  0.00  0.00    +0.023 A 
ATOM     23  C   UNL     1      -3.052   2.733  25.044  0.00  0.00    +0.034 C 
ATOM     24  C   UNL     1      -3.845   2.506  25.030  0.00  0.00    +0.010 C 
ATOM     25  S   UNL     1      -1.659   2.322  24.641  0.00  0.00    -0.054 S 
ATOM     26  C   UNL     1      -1.371   1.655  24.252  0.00  0.00    +0.186 A 
ATOM     27  N   UNL     1      -0.581   1.504  24.067  0.00  0.00    -0.148 NA
ATOM     28  C   UNL     1      -0.375   0.809  23.674  0.00  0.00    +0.305 C 
ATOM     29  O   UNL     1      -0.958   0.264  23.464  0.00  0.00    -0.265 OA
ATOM     35  N   UNL     1      -2.011   1.165  24.079  0.00  0.00    -0.227 NA
ENDROOT
BRANCH  28  30
ATOM     30  C   UNL     1       0.415   0.659  23.489  0.00  0.00    +0.201 A 
ATOM     31  C   UNL     1       0.706  -0.023  23.125  0.00  0.00    +0.046 A 
ATOM     32  C   UNL     1       1.524   0.060  23.047  0.00  0.00    +0.044 A 
ATOM     33  C   UNL     1       1.737   0.792  23.362  0.00  0.00    +0.180 A 
ATOM     34  O   UNL     1       1.052   1.162  23.635  0.00  0.00    -0.446 OA
ENDBRANCH  28  30
BRANCH   2   3
ATOM      3  C   UNL     1      -3.746   3.445  25.512  0.00  0.00    +0.184 C 
ATOM      4  O   UNL     1      -3.808   4.158  25.924  0.00  0.00    -0.220 OA
ENDBRANCH   2   3
BRANCH  11  12
ATOM     12  C   UNL     1      -3.706   0.586  24.000  0.00  0.00    +0.093 C 
BRANCH  12  13
ATOM     13  C   UNL     1      -3.556  -0.126  24.391  0.00  0.00    +0.242 C 
ATOM     14  O   UNL     1      -3.392  -0.125  25.200  0.00  0.00    -0.273 OA
ATOM     15  N   UNL     1      -3.571  -0.836  23.974  0.00  0.00    -0.207 NA
BRANCH  15  16
ATOM     16  C   UNL     1      -3.421  -1.547  24.364  0.00  0.00    +0.095 C 
ATOM     17  C   UNL     1      -2.714  -1.972  24.345  0.00  0.00    +0.022 C 
ATOM     18  C   UNL     1      -2.807  -2.646  24.811  0.00  0.00    +0.002 C 
ATOM     19  C   UNL     1      -3.573  -2.638  25.119  0.00  0.00    +0.002 C 
ATOM     20  C   UNL     1      -3.953  -1.960  24.843  0.00  0.00    +0.022 C 
ENDBRANCH  15  16
ENDBRANCH  12  13
ENDBRANCH  11  12
TORSDOF 5
ENDMDL
MODEL 3
REMARK VINA RESULT:     -13.5      1.052      4.436
REMARK  Name = 
REMARK  5 active torsions:
REMARK  status: ('A' for Active; 'I' for Inactive)
REMARK    1  A    between atoms: C_2  and  C_3
REMARK    2  A    between atoms: C_11  and  C_12
REMARK    3  A    between atoms: C_12  and  C_13
REMARK    4  A    between atoms: N_15  and  C_16
REMARK    5  A    between atoms: C_28  and  C_30
REMARK                            x       y       z     vdW  Elec       q    Type
REMARK                         _______ _______ _______ _____ _____    ______ ____
ROOT
ATOM      1  C   UNL     1       0.067   3.447  25.557  0.00  0.00    +0.005 C 
ATOM      2  C   UNL     1      -0.631   3.096  25.293  0.00  0.00    +0.059 C 
ATOM      5  C   UNL     1      -0.815   3.890  25.169  0.00  0.00    +0.154 C 
ATOM      6  O   UNL     1      -0.265   4.476  25.356  0.00  0.00    -0.223 OA
ATOM      7  C   UNL     1      -1.550   4.099  24.855  0.00  0.00    +0.033 C 
ATOM      8  C   UNL     1      -2.099   3.514  24.668  0.00  0.00    +0.003 C 
ATOM      9  C   UNL     1      -1.915   2.720  24.792  0.00  0.00    +0.006 C 
ATOM     10  C   UNL     1      -2.649   2.929  24.480  0.00  0.00    +0.000 C 
ATOM     11  C   UNL     1      -2.465   2.134  24.605  0.00  0.00    +0.050 C 
ATOM     21  C   UNL     1      -2.282   1.340  24.730  0.00  0.00    +0.063 A 
ATOM     22  C   UNL     1      -1.547   1.131  25.043  0.00  0.00    +0.023 A 
ATOM     23  C   UNL     1      -0.997   1.716  25.231  0.00  0.00    +0.034 C 
ATOM     24  C   UNL     1      -1.180   2.511  25.106  0.00  0.00    +0.010 C 
ATOM     25  S   UNL     1      -1.522   0.309  25.105  0.00  0.00    -0.054 S 
ATOM     26  C   UNL     1      -2.240   0.009  24.830  0.00  0.00    +0.186 A 
ATOM     27  N   UNL     1      -2.451  -0.787  24.794  0.00  0.00    -0.148 NA
ATOM     28  C   UNL     1      -3.192  -1.004  24.505  0.00  0.00    +0.305 C 
ATOM     29  O   UNL     1      -3.723  -0.425  24.252  0.00  0.00    -0.265 OA
ATOM     35  N   UNL     1      -2.709   0.647  24.599  0.00  0.00    -0.227 NA
ENDROOT
BRANCH  28  30
ATOM     30  C   UNL     1      -3.403  -1.801  24.469  0.00  0.00    +0.201 A 
ATOM     31  C   UNL     1      -3.965  -2.131  23.961  0.00  0.00    +0.046 A 
ATOM     32  C   UNL     1      -3.999  -2.942  24.112  0.00  0.00    +0.044 A 
ATOM     33  C   UNL     1      -3.459  -3.112  24.712  0.00  0.00    +0.180 A 
ATOM     34  O   UNL     1      -3.091  -2.407  24.933  0.00  0.00    -0.446 OA
ENDBRANCH  28  30
BRANCH   2   3
ATOM      3  C   UNL     1      -0.204   2.424  25.510  0.00  0.00    +0.184 C 
ATOM      4  O   UNL     1       0.536   2.502  25.866  0.00  0.00    -0.220 OA
ENDBRANCH   2   3
BRANCH  11  12
ATOM     12  C   UNL     1      -3.199   2.343  24.292  0.00  0.00    +0.093 C 
BRANCH  12  13
ATOM     13  C   UNL     1      -3.871   2.333  24.772  0.00  0.00    +0.242 C 
ATOM     14  O   UNL     1      -3.791   2.296  25.592  0.00  0.00    -0.273 OA
ATOM     15  N   UNL     1      -4.621   2.359  24.432  0.00  0.00    -0.207 NA
BRANCH  15  16
ATOM     16  C   UNL     1      -5.293   2.348  24.911  0.00  0.00    +0.095 C 
ATOM     17  C   UNL     1      -5.839   1.732  24.965  0.00  0.00    +0.022 C 
ATOM     18  C   UNL     1      -6.420   1.954  25.507  0.00  0.00    +0.002 C 
ATOM     19  C   UNL     1      -6.232   2.708  25.788  0.00  0.00    +0.002 C 
ATOM     20  C   UNL     1      -5.535   2.951  25.420  0.00  0.00    +0.022 C 
ENDBRANCH  15  16
ENDBRANCH  12  13
ENDBRANCH  11  12
TORSDOF 5
ENDMDL
MODEL 4
REMARK VINA RESULT:     -13.2      1.396      3.367
REMARK  Name = 
REMARK  5 active torsions:
REMARK  status: ('A' for Active; 'I' for Inactive)
REMARK    1  A    between atoms: C_2  and  C_3
REMARK    2  A    between atoms: C_11  and  C_12
REMARK    3  A    between atoms: C_12  and  C_13
REMARK    4  A    between atoms: N_15  and  C_16
REMARK    5  A    between atoms: C_28  and  C_30
REMARK                            x       y       z     vdW  Elec       q    Type
REMARK                         _______ _______ _______ _____ _____    ______ ____
ROOT
ATOM      1  C   UNL     1      -3.625  -2.931  23.993  0.00  0.00    +0.005 C 
ATOM      2  C   UNL     1      -3.384  -2.208  24.309  0.00  0.00    +0.059 C 
ATOM      5  C   UNL     1      -2.705  -2.655  24.441  0.00  0.00    +0.154 C 
ATOM      6  O   UNL     1      -2.679  -3.446  24.210  0.00  0.00    -0.223 OA
ATOM      7  C   UNL     1      -2.048  -2.310  24.805  0.00  0.00    +0.033 C 
ATOM      8  C   UNL     1      -2.073  -1.519  25.037  0.00  0.00    +0.003 C 
ATOM      9  C   UNL     1      -2.753  -1.072  24.904  0.00  0.00    +0.006 C 
ATOM     10  C   UNL     1      -2.098  -0.728  25.268  0.00  0.00    +0.000 C 
ATOM     11  C   UNL     1      -2.779  -0.280  25.135  0.00  0.00    +0.050 C 
ATOM     21  C   UNL     1      -3.459   0.167  25.003  0.00  0.00    +0.063 A 
ATOM     22  C   UNL     1      -4.115  -0.178  24.638  0.00  0.00    +0.023 A 
ATOM     23  C   UNL     1      -4.090  -0.969  24.407  0.00  0.00    +0.034 C 
ATOM     24  C   UNL     1      -3.409  -1.417  24.540  0.00  0.00    +0.010 C 
ATOM     25  S   UNL     1      -4.704   0.397  24.581  0.00  0.00    -0.054 S 
ATOM     26  C   UNL     1      -4.414   1.096  24.908  0.00  0.00    +0.186 A 
ATOM     27  N   UNL     1      -4.821   1.811  24.965  0.00  0.00    -0.148 NA
ATOM     28  C   UNL     1      -4.457   2.466  25.309  0.00  0.00    +0.305 C 
ATOM     29  O   UNL     1      -3.685   2.407  25.596  0.00  0.00    -0.265 OA
ATOM     35  N   UNL     1      -3.644   0.953  25.169  0.00  0.00    -0.227 NA
ENDROOT
BRANCH  28  30
ATOM     30  C   UNL     1      -4.864   3.181  25.366  0.00  0.00    +0.201 A 
ATOM     31  C   UNL     1      -4.591   3.916  25.109  0.00  0.00    +0.046 A 
ATOM     32  C   UNL     1      -5.174   4.477  25.274  0.00  0.00    +0.044 A 
ATOM     33  C   UNL     1      -5.807   4.088  25.633  0.00  0.00    +0.180 A 
ATOM     34  O   UNL     1      -5.615   3.287  25.689  0.00  0.00    -0.446 OA
ENDBRANCH  28  30
BRANCH   2   3
ATOM      3  C   UNL     1      -4.148  -2.012  24.066  0.00  0.00    +0.184 C 
ATOM      4  O   UNL     1      -4.609  -2.567  23.665  0.00  0.00    -0.220 OA
ENDBRANCH   2   3
BRANCH  11  12
ATOM     12  C   UNL     1      -2.123   0.064  25.499  0.00  0.00    +0.093 C 
BRANCH  12  13
ATOM     13  C   UNL     1      -1.633   0.572  25.071  0.00  0.00    +0.242 C 
ATOM     14  O   UNL     1      -1.694   0.608  24.250  0.00  0.00    -0.273 OA
ATOM     15  N   UNL     1      -1.083   1.043  25.466  0.00  0.00    -0.207 NA
BRANCH  15  16
ATOM     16  C   UNL     1      -0.593   1.551  25.039  0.00  0.00    +0.095 C 
ATOM     17  C   UNL     1      -0.676   2.370  24.982  0.00  0.00    +0.022 C 
ATOM     18  C   UNL     1      -0.069   2.655  24.502  0.00  0.00    +0.002 C 
ATOM     19  C   UNL     1       0.390   2.012  24.262  0.00  0.00    +0.002 C 
ATOM     20  C   UNL     1       0.066   1.330  24.593  0.00  0.00    +0.022 C 
ENDBRANCH  15  16
ENDBRANCH  12  13
ENDBRANCH  11  12
TORSDOF 5
ENDMDL
MODEL 5
REMARK VINA RESULT:     -13.0      1.629      5.269
REMARK  Name = 
REMARK  5 active torsions:
REMARK  status: ('A' for Active; 'I' for Inactive)
REMARK    1  A    between atoms: C_2  and  C_3
REMARK    2  A    between atoms: C_11  and  C_12
REMARK    3  A    between atoms: C_12  and  C_13
REMARK    4  A    between atoms: N_15  and  C_16
REMARK    5  A    between atoms: C_28  and  C_30
REMARK                            x       y       z     vdW  Elec       q    Type
REMARK                         _______ _______ _______ _____ _____    ______ ____
ROOT
ATOM      1  C   UNL     1      -5.538   3.847  25.687  0.00  0.00    +0.005 C 
ATOM      2  C   UNL     1      -5.016   3.343  25.296  0.00  0.00    +0.059 C 
ATOM      5  C   UNL     1      -4.721   4.072  25.050  0.00  0.00    +0.154 C 
ATOM      6  O   UNL     1      -5.078   4.770  25.308  0.00  0.00    -0.223 OA
ATOM      7  C   UNL     1      -4.068   4.105  24.545  0.00  0.00    +0.033 C 
ATOM      8  C   UNL     1      -3.712   3.408  24.287  0.00  0.00    +0.003 C 
ATOM      9  C   UNL     1      -4.007   2.678  24.533  0.00  0.00    +0.006 C 
ATOM     10  C   UNL     1      -3.355   2.711  24.029  0.00  0.00    +0.000 C 
ATOM     11  C   UNL     1      -3.650   1.980  24.275  0.00  0.00    +0.050 C 
ATOM     21  C   UNL     1      -3.945   1.251  24.520  0.00  0.00    +0.063 A 
ATOM     22  C   UNL     1      -4.598   1.218  25.025  0.00  0.00    +0.023 A 
ATOM     23  C   UNL     1      -4.955   1.915  25.283  0.00  0.00    +0.034 C 
ATOM     24  C   UNL     1      -4.660   2.646  25.038  0.00  0.00    +0.010 C 
ATOM     25  S   UNL     1      -4.765   0.424  25.173  0.00  0.00    -0.054 S 
ATOM     26  C   UNL     1      -4.217  -0.034  24.761  0.00  0.00    +0.186 A 
ATOM     27  N   UNL     1      -4.182  -0.859  24.754  0.00  0.00    -0.148 NA
ATOM     28  C   UNL     1      -3.599  -1.242  24.314  0.00  0.00    +0.305 C 
ATOM     29  O   UNL     1      -3.052  -0.802  23.881  0.00  0.00    -0.265 OA
ATOM     35  N   UNL     1      -3.711   0.476  24.358  0.00  0.00    -0.227 NA
ENDROOT
BRANCH  28  30
ATOM     30  C   UNL     1      -3.564  -2.066  24.307  0.00  0.00    +0.201 A 
ATOM     31  C   UNL     1      -3.012  -2.532  24.707  0.00  0.00    +0.046 A 
ATOM     32  C   UNL     1      -3.181  -3.323  24.546  0.00  0.00    +0.044 A 
ATOM     33  C   UNL     1      -3.837  -3.347  24.046  0.00  0.00    +0.180 A 
ATOM     34  O   UNL     1      -4.074  -2.570  23.899  0.00  0.00    -0.446 OA
ENDBRANCH  28  30
BRANCH   2   3
ATOM      3  C   UNL     1      -5.493   2.788  25.677  0.00  0.00    +0.184 C 
ATOM      4  O   UNL     1      -6.097   3.040  26.181  0.00  0.00    -0.220 OA
ENDBRANCH   2   3
BRANCH  11  12
ATOM     12  C   UNL     1      -2.998   2.013  23.770  0.00  0.00    +0.093 C 
BRANCH  12  13
ATOM     13  C   UNL     1      -2.238   1.898  24.071  0.00  0.00    +0.242 C 
ATOM     14  O   UNL     1      -2.116   1.877  24.886  0.00  0.00    -0.273 OA
ATOM     15  N   UNL     1      -1.601   1.804  23.556  0.00  0.00    -0.207 NA
BRANCH  15  16
ATOM     16  C   UNL     1      -0.841   1.689  23.855  0.00  0.00    +0.095 C 
ATOM     17  C   UNL     1      -0.432   0.972  23.876  0.00  0.00    +0.022 C 
ATOM     18  C   UNL     1       0.305   1.110  24.220  0.00  0.00    +0.002 C 
ATOM     19  C   UNL     1       0.351   1.912  24.412  0.00  0.00    +0.002 C 
ATOM     20  C   UNL     1      -0.357   2.270  24.187  0.00  0.00    +0.022 C 
ENDBRANCH  15  16
ENDBRANCH  12  13
ENDBRANCH  11  12
TORSDOF 5
ENDMDL
MODEL 6
REMARK VINA RESULT:     -12.8      1.714      5.610
REMARK  Name = 
REMARK  5 active torsions:
REMARK  status: ('A' for Active; 'I' for Inactive)
REMARK    1  A    between atoms: C_2  and  C_3
REMARK    2  A    between atoms: C_11  and  C_12
REMARK    3  A    between atoms: C_12  and  C_13
REMARK    4  A    between atoms: N_15  and  C_16
REMARK    5  A    between atoms: C_28  and  C_30
REMARK                            x       y       z     vdW  Elec       q    Type
REMARK                         _______ _______ _______ _____ _____    ______ ____
ROOT
ATOM      1  C   UNL     1      -2.679   4.666  25.169  0.00  0.00    +0.005 C 
ATOM      2  C   UNL     1      -2.373   3.901  25.132  0.00  0.00    +0.059 C 
ATOM      5  C   UNL     1      -1.684   4.323  25.296  0.00  0.00    +0.154 C 
ATOM      6  O   UNL     1      -1.713   5.143  25.386  0.00  0.00    -0.223 OA
ATOM      7  C   UNL     1      -0.964   3.925  25.371  0.00  0.00    +0.033 C 
ATOM      8  C   UNL     1      -0.935   3.106  25.282  0.00  0.00    +0.003 C 
ATOM      9  C   UNL     1      -1.624   2.684  25.118  0.00  0.00    +0.006 C 
ATOM     10  C   UNL     1      -0.906   2.287  25.193  0.00  0.00    +0.000 C 
ATOM     11  C   UNL     1      -1.595   1.864  25.029  0.00  0.00    +0.050 C 
ATOM     21  C   UNL     1      -2.284   1.442  24.865  0.00  0.00    +0.063 A 
ATOM     22  C   UNL     1      -3.004   1.840  24.790  0.00  0.00    +0.023 A 
ATOM     23  C   UNL     1      -3.033   2.659  24.879  0.00  0.00    +0.034 C 
ATOM     24  C   UNL     1      -2.344   3.082  25.043  0.00  0.00    +0.010 C 
ATOM     25  S   UNL     1      -3.588   1.280  24.628  0.00  0.00    -0.054 S 
ATOM     26  C   UNL     1      -3.231   0.537  24.603  0.00  0.00    +0.186 A 
ATOM     27  N   UNL     1      -3.612  -0.180  24.457  0.00  0.00    -0.148 NA
ATOM     28  C   UNL     1      -3.180  -0.882  24.449  0.00  0.00    +0.305 C 
ATOM     29  O   UNL     1      -2.366  -0.868  24.586  0.00  0.00    -0.265 OA
ATOM     35  N   UNL     1      -2.425   0.638  24.749  0.00  0.00    -0.227 NA
ENDROOT
BRANCH  28  30
ATOM     30  C   UNL     1      -3.561  -1.599  24.302  0.00  0.00    +0.201 A 
ATOM     31  C   UNL     1      -3.364  -2.329  24.634  0.00  0.00    +0.046 A 
ATOM     32  C   UNL     1      -3.887  -2.893  24.335  0.00  0.00    +0.044 A 
ATOM     33  C   UNL     1      -4.407  -2.512  23.820  0.00  0.00    +0.180 A 
ATOM     34  O   UNL     1      -4.205  -1.712  23.800  0.00  0.00    -0.446 OA
ENDBRANCH  28  30
BRANCH   2   3
ATOM      3  C   UNL     1      -3.169   3.745  24.981  0.00  0.00    +0.184 C 
ATOM      4  O   UNL     1      -3.715   4.364  24.964  0.00  0.00    -0.220 OA
ENDBRANCH   2   3
BRANCH  11  12
ATOM     12  C   UNL     1      -0.876   1.467  25.104  0.00  0.00    +0.093 C 
BRANCH  12  13
ATOM     13  C   UNL     1      -0.476   1.206  24.430  0.00  0.00    +0.242 C 
ATOM     14  O   UNL     1      -0.678   1.508  23.689  0.00  0.00    -0.273 OA
ATOM     15  N   UNL     1       0.124   0.645  24.498  0.00  0.00    -0.207 NA
BRANCH  15  16
ATOM     16  C   UNL     1       0.523   0.384  23.825  0.00  0.00    +0.095 C 
ATOM     17  C   UNL     1       1.188   0.739  23.489  0.00  0.00    +0.022 C 
ATOM     18  C   UNL     1       1.405   0.298  22.826  0.00  0.00    +0.002 C 
ATOM     19  C   UNL     1       0.874  -0.330  22.753  0.00  0.00    +0.002 C 
ATOM     20  C   UNL     1       0.329  -0.277  23.370  0.00  0.00    +0.022 C 
ENDBRANCH  15  16
ENDBRANCH  12  13
ENDBRANCH  11  12
TORSDOF 5
ENDMDL
MODEL 7
REMARK VINA RESULT:     -12.4      1.741      3.583
REMARK  Name = 
REMARK  5 active torsions:
REMARK  status: ('A' for Active; 'I' for Inactive)
REMARK    1  A    between atoms: C_2  and  C_3
REMARK    2  A    between atoms: C_11  and  C_12
REMARK    3  A    between atoms: C_12  and  C_13
REMARK    4  A    between atoms: N_15  and  C_16
REMARK    5  A    between atoms: C_28  and  C_30
REMARK                            x       y       z     vdW  Elec       q    Type
REMARK                         _______ _______ _______ _____ _____    ______ ____
ROOT
ATOM      1  C   UNL     1      -4.281  -1.952  24.218  0.00  0.00    +0.005 C 
ATOM      2  C   UNL     1      -3.610  -1.491  24.349  0.00  0.00    +0.059 C 
ATOM      5  C   UNL     1      -3.267  -2.240  24.329  0.00  0.00    +0.154 C 
ATOM      6  O   UNL     1      -3.737  -2.907  24.207  0.00  0.00    -0.223 OA
ATOM      7  C   UNL     1      -2.451  -2.323  24.431  0.00  0.00    +0.033 C 
ATOM      8  C   UNL     1      -1.981  -1.657  24.553  0.00  0.00    +0.003 C 
ATOM      9  C   UNL     1      -2.324  -0.908  24.573  0.00  0.00    +0.006 C 
ATOM     10  C   UNL     1      -1.511  -0.991  24.675  0.00  0.00    +0.000 C 
ATOM     11  C   UNL     1      -1.854  -0.241  24.695  0.00  0.00    +0.050 C 
ATOM     21  C   UNL     1      -2.197   0.508  24.715  0.00  0.00    +0.063 A 
ATOM     22  C   UNL     1      -3.013   0.591  24.613  0.00  0.00    +0.023 A 
ATOM     23  C   UNL     1      -3.483  -0.075  24.491  0.00  0.00    +0.034 C 
ATOM     24  C   UNL     1      -3.140  -0.825  24.471  0.00  0.00    +0.010 C 
ATOM     25  S   UNL     1      -3.194   1.395  24.660  0.00  0.00    -0.054 S 
ATOM     26  C   UNL     1      -2.492   1.808  24.790  0.00  0.00    +0.186 A 
ATOM     27  N   UNL     1      -2.419   2.626  24.872  0.00  0.00    -0.148 NA
ATOM     28  C   UNL     1      -1.678   2.962  25.002  0.00  0.00    +0.305 C 
ATOM     29  O   UNL     1      -1.008   2.482  25.049  0.00  0.00    -0.265 OA
ATOM     35  N   UNL     1      -1.877   1.261  24.825  0.00  0.00    -0.227 NA
ENDROOT
BRANCH  28  30
ATOM     30  C   UNL     1      -1.604   3.780  25.084  0.00  0.00    +0.201 A 
ATOM     31  C   UNL     1      -0.955   4.235  24.852  0.00  0.00    +0.046 A 
ATOM     32  C   UNL     1      -1.117   5.023  25.037  0.00  0.00    +0.044 A 
ATOM     33  C   UNL     1      -1.865   5.055  25.383  0.00  0.00    +0.180 A 
ATOM     34  O   UNL     1      -2.166   4.287  25.412  0.00  0.00    -0.446 OA
ENDBRANCH  28  30
BRANCH   2   3
ATOM      3  C   UNL     1      -4.187  -0.902  24.324  0.00  0.00    +0.184 C 
ATOM      4  O   UNL     1      -4.973  -1.101  24.171  0.00  0.00    -0.220 OA
ENDBRANCH   2   3
BRANCH  11  12
ATOM     12  C   UNL     1      -1.040  -0.324  24.797  0.00  0.00    +0.093 C 
BRANCH  12  13
ATOM     13  C   UNL     1      -0.525  -0.148  24.176  0.00  0.00    +0.242 C 
ATOM     14  O   UNL     1      -0.828   0.051  23.435  0.00  0.00    -0.273 OA
ATOM     15  N   UNL     1       0.290  -0.169  24.297  0.00  0.00    -0.207 NA
BRANCH  15  16
ATOM     16  C   UNL     1       0.804   0.007  23.676  0.00  0.00    +0.095 C 
ATOM     17  C   UNL     1       1.228   0.709  23.583  0.00  0.00    +0.022 C 
ATOM     18  C   UNL     1       1.670   0.650  22.890  0.00  0.00    +0.002 C 
ATOM     19  C   UNL     1       1.520  -0.090  22.554  0.00  0.00    +0.002 C 
ATOM     20  C   UNL     1       0.985  -0.487  23.040  0.00  0.00    +0.022 C 
ENDBRANCH  15  16
ENDBRANCH  12  13
ENDBRANCH  11  12
TORSDOF 5
ENDMDL
MODEL 8
REMARK VINA RESULT:     -12.1      1.920      4.472
REMARK  Name = 
REMARK  5 active torsions:
REMARK  status: ('A' for Active; 'I' for Inactive)
REMARK    1  A    between atoms: C_2  and  C_3
REMARK    2  A    between atoms: C_11  and  C_12
REMARK    3  A    between atoms: C_12  and  C_13
REMARK    4  A    between atoms: N_15  and  C_16
REMARK    5  A    between atoms: C_28  and  C_30
REMARK                            x       y       z     vdW  Elec       q    Type
REMARK                         _______ _______ _______ _____ _____    ______ ____
ROOT
ATOM      1  C   UNL     1      -6.273   2.368  25.129  0.00  0.00    +0.005 C 
ATOM      2  C   UNL     1      -5.456   2.443  25.216  0.00  0.00    +0.059 C 
ATOM      5  C   UNL     1      -5.706   3.101  25.644  0.00  0.00    +0.154 C 
ATOM      6  O   UNL     1      -6.511   3.265  25.717  0.00  0.00    -0.223 OA
ATOM      7  C   UNL     1      -5.150   3.598  26.001  0.00  0.00    +0.033 C 
ATOM      8  C   UNL     1      -4.345   3.434  25.928  0.00  0.00    +0.003 C 
ATOM      9  C   UNL     1      -4.095   2.775  25.500  0.00  0.00    +0.006 C 
ATOM     10  C   UNL     1      -3.541   3.270  25.856  0.00  0.00    +0.000 C 
ATOM     11  C   UNL     1      -3.290   2.611  25.427  0.00  0.00    +0.050 C 
ATOM     21  C   UNL     1      -3.040   1.953  24.999  0.00  0.00    +0.063 A 
ATOM     22  C   UNL     1      -3.596   1.456  24.643  0.00  0.00    +0.023 A 
ATOM     23  C   UNL     1      -4.400   1.620  24.716  0.00  0.00    +0.034 C 
ATOM     24  C   UNL     1      -4.651   2.279  25.144  0.00  0.00    +0.010 C 
ATOM     25  S   UNL     1      -3.187   0.852  24.258  0.00  0.00    -0.054 S 
ATOM     26  C   UNL     1      -2.380   0.973  24.376  0.00  0.00    +0.186 A 
ATOM     27  N   UNL     1      -1.770   0.498  24.087  0.00  0.00    -0.148 NA
ATOM     28  C   UNL     1      -0.985   0.690  24.251  0.00  0.00    +0.305 C 
ATOM     29  O   UNL     1      -0.808   1.357  24.704  0.00  0.00    -0.265 OA
ATOM     35  N   UNL     1      -2.289   1.653  24.834  0.00  0.00    -0.227 NA
ENDROOT
BRANCH  28  30
ATOM     30  C   UNL     1      -0.376   0.215  23.962  0.00  0.00    +0.201 A 
ATOM     31  C   UNL     1       0.211   0.449  23.430  0.00  0.00    +0.046 A 
ATOM     32  C   UNL     1       0.704  -0.199  23.293  0.00  0.00    +0.044 A 
ATOM     33  C   UNL     1       0.421  -0.833  23.740  0.00  0.00    +0.180 A 
ATOM     34  O   UNL     1      -0.246  -0.577  24.153  0.00  0.00    -0.446 OA
ENDBRANCH  28  30
BRANCH   2   3
ATOM      3  C   UNL     1      -5.490   1.758  24.758  0.00  0.00    +0.184 C 
ATOM      4  O   UNL     1      -6.220   1.418  24.577  0.00  0.00    -0.220 OA
ENDBRANCH   2   3
BRANCH  11  12
ATOM     12  C   UNL     1      -2.735   3.107  25.783  0.00  0.00    +0.093 C 
BRANCH  12  13
ATOM     13  C   UNL     1      -2.327   3.663  25.330  0.00  0.00    +0.242 C 
ATOM     14  O   UNL     1      -2.575   3.828  24.560  0.00  0.00    -0.273 OA
ATOM     15  N   UNL     1      -1.673   4.053  25.645  0.00  0.00    -0.207 NA
BRANCH  15  16
ATOM     16  C   UNL     1      -1.266   4.609  25.192  0.00  0.00    +0.095 C 
ATOM     17  C   UNL     1      -1.475   5.402  25.095  0.00  0.00    +0.022 C 
ATOM     18  C   UNL     1      -0.916   5.754  24.600  0.00  0.00    +0.002 C 
ATOM     19  C   UNL     1      -0.362   5.178  24.392  0.00  0.00    +0.002 C 
ATOM     20  C   UNL     1      -0.578   4.471  24.757  0.00  0.00    +0.022 C 
ENDBRANCH  15  16
ENDBRANCH  12  13
ENDBRANCH  11  12
TORSDOF 5
ENDMDL
MODEL 9
REMARK VINA RESULT:     -11.6      2.293      3.481
REMARK  Name = 
REMARK  5 active torsions:
REMARK  status: ('A' for Active; 'I' for Inactive)
REMARK    1  A    between atoms: C_2  and  C_3
REMARK    2  A    between atoms: C_11  and  C_12
REMARK    3  A    between atoms: C_12  and  C_13
REMARK    4  A    between atoms: N_15  and  C_16
REMARK    5  A    between atoms: C_28  and  C_30
REMARK                            x       y       z     vdW  Elec       q    Type
REMARK                         _______ _______ _______ _____ _____    ______ ____
ROOT
ATOM      1  C   UNL     1      -3.736  -1.296  25.562  0.00  0.00    +0.005 C 
ATOM      2  C   UNL     1      -3.268  -0.733  25.184  0.00  0.00    +0.059 C 
ATOM      5  C   UNL     1      -3.970  -0.308  25.258  0.00  0.00    +0.154 C 
ATOM      6  O   UNL     1      -4.627  -0.655  25.617  0.00  0.00    -0.223 OA
ATOM      7  C   UNL     1      -4.017   0.466  24.973  0.00  0.00    +0.033 C 
ATOM      8  C   UNL     1      -3.361   0.813  24.614  0.00  0.00    +0.003 C 
ATOM      9  C   UNL     1      -2.659   0.389  24.540  0.00  0.00    +0.006 C 
ATOM     10  C   UNL     1      -2.705   1.161  24.256  0.00  0.00    +0.000 C 
ATOM     11  C   UNL     1      -2.002   0.736  24.181  0.00  0.00    +0.050 C 
ATOM     21  C   UNL     1      -1.299   0.311  24.107  0.00  0.00    +0.063 A 
ATOM     22  C   UNL     1      -1.252  -0.463  24.392  0.00  0.00    +0.023 A 
ATOM     23  C   UNL     1      -1.908  -0.810  24.750  0.00  0.00    +0.034 C 
ATOM     24  C   UNL     1      -2.612  -0.385  24.825  0.00  0.00    +0.010 C 
ATOM     25  S   UNL     1      -0.491  -0.743  24.242  0.00  0.00    -0.054 S 
ATOM     26  C   UNL     1      -0.067  -0.144  23.864  0.00  0.00    +0.186 A 
ATOM     27  N   UNL     1       0.718  -0.189  23.614  0.00  0.00    -0.148 NA
ATOM     28  C   UNL     1       1.069   0.458  23.243  0.00  0.00    +0.305 C 
ATOM     29  O   UNL     1       0.637   1.150  23.121  0.00  0.00    -0.265 OA
ATOM     35  N   UNL     1      -0.567   0.507  23.781  0.00  0.00    -0.227 NA
ENDROOT
BRANCH  28  30
ATOM     30  C   UNL     1       1.854   0.413  22.993  0.00  0.00    +0.201 A 
ATOM     31  C   UNL     1       2.462   0.929  23.208  0.00  0.00    +0.046 A 
ATOM     32  C   UNL     1       3.153   0.679  22.832  0.00  0.00    +0.044 A 
ATOM     33  C   UNL     1       2.972   0.010  22.385  0.00  0.00    +0.180 A 
ATOM     34  O   UNL     1       2.169  -0.154  22.484  0.00  0.00    -0.446 OA
ENDBRANCH  28  30
BRANCH   2   3
ATOM      3  C   UNL     1      -2.728  -1.353  25.241  0.00  0.00    +0.184 C 
ATOM      4  O   UNL     1      -2.971  -2.086  25.533  0.00  0.00    -0.220 OA
ENDBRANCH   2   3
BRANCH  11  12
ATOM     12  C   UNL     1      -2.048   1.509  23.896  0.00  0.00    +0.093 C 
BRANCH  12  13
ATOM     13  C   UNL     1      -1.775   2.136  24.358  0.00  0.00    +0.242 C 
ATOM     14  O   UNL     1      -1.525   1.999  25.132  0.00  0.00    -0.273 OA
ATOM     15  N   UNL     1      -1.753   2.899  24.046  0.00  0.00    -0.207 NA
BRANCH  15  16
ATOM     16  C   UNL     1      -1.480   3.526  24.507  0.00  0.00    +0.095 C 
ATOM     17  C   UNL     1      -1.939   3.995  25.008  0.00  0.00    +0.022 C 
ATOM     18  C   UNL     1      -1.444   4.553  25.359  0.00  0.00    +0.002 C 
ATOM     19  C   UNL     1      -0.678   4.429  25.076  0.00  0.00    +0.002 C 
ATOM     20  C   UNL     1      -0.700   3.794  24.550  0.00  0.00    +0.022 C 
ENDBRANCH  15  16
ENDBRANCH  12  13
ENDBRANCH  11  12
TORSDOF 5
ENDMDL
MODEL 10
REMARK VINA RESULT:     -11.4      1.294      3.730
REMARK  Name = 
REMARK  5 active torsions:
REMARK  status: ('A' for Active; 'I' for Inactive)
REMARK    1  A    between atoms: C_2  and  C_3
REMARK    2  A    between atoms: C_11  and  C_12
REMARK    3  A    between atoms: C_12  and  C_13
REMARK    4  A    between atoms: N_15  and  C_16
REMARK    5  A    between atoms: C_28  and  C_30
REMARK                            x       y       z     vdW  Elec       q    Type
REMARK                         _______ _______ _______ _____ _____    ______ ____
ROOT
ATOM      1  C   UNL     1      -0.149  -1.585  24.577  0.00  0.00    +0.005 C 
ATOM      2  C   UNL     1      -0.560  -0.881  24.451  0.00  0.00    +0.059 C 
ATOM      5  C   UNL     1       0.168  -0.684  24.119  0.00  0.00    +0.154 C 
ATOM      6  O   UNL     1       0.783  -1.234  24.113  0.00  0.00    -0.223 OA
ATOM      7  C   UNL     1       0.283   0.066  23.791  0.00  0.00    +0.033 C 
ATOM      8  C   UNL     1      -0.332   0.616  23.796  0.00  0.00    +0.003 C 
ATOM      9  C   UNL     1      -1.060   0.418  24.128  0.00  0.00    +0.006 C 
ATOM     10  C   UNL     1      -0.946   1.166  23.801  0.00  0.00    +0.000 C 
ATOM     11  C   UNL     1      -1.675   0.968  24.134  0.00  0.00    +0.050 C 
ATOM     21  C   UNL     1      -2.403   0.771  24.466  0.00  0.00    +0.063 A 
ATOM     22  C   UNL     1      -2.517   0.021  24.794  0.00  0.00    +0.023 A 
ATOM     23  C   UNL     1      -1.903  -0.529  24.789  0.00  0.00    +0.034 C 
ATOM     24  C   UNL     1      -1.174  -0.331  24.456  0.00  0.00    +0.010 C 
ATOM     25  S   UNL     1      -3.290  -0.015  25.081  0.00  0.00    -0.054 S 
ATOM     26  C   UNL     1      -3.653   0.709  24.931  0.00  0.00    +0.186 A 
ATOM     27  N   UNL     1      -4.429   0.913  25.126  0.00  0.00    -0.148 NA
ATOM     28  C   UNL     1      -4.717   1.662  24.939  0.00  0.00    +0.305 C 
ATOM     29  O   UNL     1      -4.231   2.209  24.558  0.00  0.00    -0.265 OA
ATOM     35  N   UNL     1      -3.105   1.195  24.551  0.00  0.00    -0.227 NA
ENDROOT
BRANCH  28  30
ATOM     30  C   UNL     1      -5.492   1.866  25.134  0.00  0.00    +0.201 A 
ATOM     31  C   UNL     1      -5.729   2.294  25.799  0.00  0.00    +0.046 A 
ATOM     32  C   UNL     1      -6.550   2.370  25.775  0.00  0.00    +0.044 A 
ATOM     33  C   UNL     1      -6.821   1.989  25.095  0.00  0.00    +0.180 A 
ATOM     34  O   UNL     1      -6.167   1.677  24.700  0.00  0.00    -0.446 OA
ENDBRANCH  28  30
BRANCH   2   3
ATOM      3  C   UNL     1      -1.145  -1.324  24.828  0.00  0.00    +0.184 C 
ATOM      4  O   UNL     1      -0.996  -2.107  25.043  0.00  0.00    -0.220 OA
ENDBRANCH   2   3
BRANCH  11  12
ATOM     12  C   UNL     1      -1.560   1.717  23.806  0.00  0.00    +0.093 C 
BRANCH  12  13
ATOM     13  C   UNL     1      -1.441   2.369  24.298  0.00  0.00    +0.242 C 
ATOM     14  O   UNL     1      -1.230   2.257  25.087  0.00  0.00    -0.273 OA
ATOM     15  N   UNL     1      -1.534   3.132  24.001  0.00  0.00    -0.207 NA
BRANCH  15  16
ATOM     16  C   UNL     1      -1.415   3.784  24.492  0.00  0.00    +0.095 C 
ATOM     17  C   UNL     1      -0.698   4.173  24.616  0.00  0.00    +0.022 C 
ATOM     18  C   UNL     1      -0.831   4.791  25.145  0.00  0.00    +0.002 C 
ATOM     19  C   UNL     1      -1.631   4.784  25.348  0.00  0.00    +0.002 C 
ATOM     20  C   UNL     1      -1.992   4.162  24.944  0.00  0.00    +0.022 C 
ENDBRANCH  15  16
ENDBRANCH  12  13
ENDBRANCH  11  12
TORSDOF 5
ENDMDL
