MODEL 1
REMARK VINA RESULT:     -11.6      0.000      0.000
REMARK  Name = 
REMARK  7 active torsions:
REMARK  status: ('A' for Active; 'I' for Inactive)
REMARK    1  A    between atoms: N_2  and  C_3
REMARK    2  A    between atoms: N_2  and  C_11
REMARK    3  A    between atoms: C_3  and  C_4
REMARK    4  A    between atoms: C_4  and  C_5
REMARK    5  A    between atoms: C_17  and  N_18
REMARK    6  A    between atoms: N_18  and  C_19
REMARK    7  A    between atoms: C_19  and  C_20
REMARK                            x       y       z     vdW  Elec       q    Type
REMARK                         _______ _______ _______ _____ _____    ______ ____
ROOT
ATOM     11  C   UNL     1      -4.383   1.990  24.740  0.00  0.00    +0.147 C 
ATOM     12  C   UNL     1      -4.815   2.576  25.384  0.00  0.00    +0.253 C 
ATOM     13  O   UNL     1      -4.727   3.453  25.429  0.00  0.00    -0.327 OA
ATOM     14  C   UNL     1      -4.620   2.781  25.177  0.00  0.00    +0.176 C 
ATOM     15  C   UNL     1      -4.794   2.028  25.261  0.00  0.00    +0.166 C 
ATOM     16  O   UNL     1      -5.239   2.018  25.818  0.00  0.00    -0.328 OA
ATOM     17  C   UNL     1      -4.389   1.456  24.653  0.00  0.00    +0.135 C 
ATOM     29  C   UNL     1      -3.963   2.018  24.217  0.00  0.00    +0.190 C 
ATOM     30  O   UNL     1      -3.461   2.335  23.645  0.00  0.00    -0.220 OA
ENDROOT
BRANCH  11   2
ATOM      1  C   UNL     1      -4.683   3.289  24.223  0.00  0.00    +0.090 C 
ATOM      2  N   UNL     1      -4.161   2.773  24.600  0.00  0.00    -0.266 NA
BRANCH   2   3
ATOM      3  C   UNL     1      -3.417   3.040  24.837  0.00  0.00    +0.079 C 
BRANCH   3   4
ATOM      4  C   UNL     1      -3.108   3.735  24.517  0.00  0.00    +0.063 C 
BRANCH   4   5
ATOM      5  C   UNL     1      -2.360   3.997  24.747  0.00  0.00    +0.060 A 
ATOM      6  N   UNL     1      -1.703   3.507  24.651  0.00  0.00    -0.248 NA
ATOM      7  C   UNL     1      -0.955   3.768  24.880  0.00  0.00    +0.098 A 
ATOM      8  C   UNL     1      -0.864   4.521  25.206  0.00  0.00    +0.021 A 
ATOM      9  C   UNL     1      -1.521   5.011  25.302  0.00  0.00    +0.003 A 
ATOM     10  C   UNL     1      -2.268   4.749  25.072  0.00  0.00    +0.015 A 
ENDBRANCH   4   5
ENDBRANCH   3   4
ENDBRANCH   2   3
ENDBRANCH  11   2
BRANCH  17  18
ATOM     18  N   UNL     1      -4.438   0.636  24.570  0.00  0.00    -0.209 NA
BRANCH  18  19
ATOM     19  C   UNL     1      -3.753   0.193  24.450  0.00  0.00    +0.115 C 
BRANCH  19  20
ATOM     20  C   UNL     1      -3.799  -0.630  24.398  0.00  0.00    -0.002 A 
ATOM     21  C   UNL     1      -4.237  -0.981  23.793  0.00  0.00    +0.000 A 
ATOM     22  C   UNL     1      -4.283  -1.803  23.741  0.00  0.00    +0.040 A 
ATOM     23  C   UNL     1      -3.890  -2.275  24.294  0.00  0.00    +0.176 A 
ATOM     24  O   UNL     1      -3.835  -3.093  24.381  0.00  0.00    -0.435 OA
ATOM     25  C   UNL     1      -3.363  -3.247  25.039  0.00  0.00    +0.429 C 
ATOM     26  O   UNL     1      -3.126  -2.524  25.359  0.00  0.00    -0.435 OA
ATOM     27  C   UNL     1      -3.452  -1.923  24.898  0.00  0.00    +0.176 A 
ATOM     28  C   UNL     1      -3.407  -1.101  24.950  0.00  0.00    +0.037 A 
ENDBRANCH  19  20
ENDBRANCH  18  19
ENDBRANCH  17  18
TORSDOF 7
ENDMDL
MODEL 2
REMARK VINA RESULT:     -11.0      2.319      5.914
REMARK  Name = 
REMARK  7 active torsions:
REMARK  status: ('A' for Active; 'I' for Inactive)
REMARK    1  A    between atoms: N_2  and  C_3
REMARK    2  A    between atoms: N_2  and  C_11
REMARK    3  A    between atoms: C_3  and  C_4
REMARK    4  A    between atoms: C_4  and  C_5
REMARK    5  A    between atoms: C_17  and  N_18
REMARK    6  A    between atoms: N_18  and  C_19
REMARK    7  A    between atoms: C_19  and  C_20
REMARK                            x       y       z     vdW  Elec       q    Type
REMARK                         _______ _______ _______ _____ _____    ______ ____
ROOT
ATOM     11  C   UNL     1      -1.032   0.227  24.779  0.00  0.00    +0.147 C 
ATOM     12  C   UNL     1      -0.485  -0.489  24.414  0.00  0.00    +0.253 C 
ATOM     13  O   UNL     1      -0.605  -1.353  24.545  0.00  0.00    -0.327 OA
ATOM     14  C   UNL     1      -0.735  -0.641  24.606  0.00  0.00    +0.176 C 
ATOM     15  C   UNL     1      -0.506   0.073  24.401  0.00  0.00    +0.166 C 
ATOM     16  O   UNL     1       0.064  -0.043  23.988  0.00  0.00    -0.328 OA
ATOM     17  C   UNL     1      -1.019   0.767  24.743  0.00  0.00    +0.135 C 
ATOM     29  C   UNL     1      -1.570   0.318  25.170  0.00  0.00    +0.190 C 
ATOM     30  O   UNL     1      -2.214   0.138  25.652  0.00  0.00    -0.220 OA
ENDROOT
BRANCH  11   2
ATOM      1  C   UNL     1      -0.956  -0.902  25.652  0.00  0.00    +0.090 C 
ATOM      2  N   UNL     1      -1.322  -0.503  25.030  0.00  0.00    -0.266 NA
BRANCH   2   3
ATOM      3  C   UNL     1      -1.980  -0.835  24.658  0.00  0.00    +0.079 C 
BRANCH   3   4
ATOM      4  C   UNL     1      -2.446  -1.386  25.059  0.00  0.00    +0.063 C 
BRANCH   4   5
ATOM      5  C   UNL     1      -3.071  -1.758  24.670  0.00  0.00    +0.060 A 
ATOM      6  N   UNL     1      -3.646  -1.308  24.287  0.00  0.00    -0.248 NA
ATOM      7  C   UNL     1      -4.271  -1.679  23.898  0.00  0.00    +0.098 A 
ATOM      8  C   UNL     1      -4.320  -2.504  23.892  0.00  0.00    +0.021 A 
ATOM      9  C   UNL     1      -3.745  -2.955  24.274  0.00  0.00    +0.003 A 
ATOM     10  C   UNL     1      -3.121  -2.582  24.663  0.00  0.00    +0.015 A 
ENDBRANCH   4   5
ENDBRANCH   3   4
ENDBRANCH   2   3
ENDBRANCH  11   2
BRANCH  17  18
ATOM     18  N   UNL     1      -0.949   1.584  24.650  0.00  0.00    -0.209 NA
BRANCH  18  19
ATOM     19  C   UNL     1      -0.930   2.074  25.313  0.00  0.00    +0.115 C 
BRANCH  19  20
ATOM     20  C   UNL     1      -0.948   2.895  25.221  0.00  0.00    -0.002 A 
ATOM     21  C   UNL     1      -0.297   3.288  24.902  0.00  0.00    +0.000 A 
ATOM     22  C   UNL     1      -0.315   4.107  24.809  0.00  0.00    +0.040 A 
ATOM     23  C   UNL     1      -0.984   4.534  25.036  0.00  0.00    +0.176 A 
ATOM     24  O   UNL     1      -1.160   5.339  25.011  0.00  0.00    -0.435 OA
ATOM     25  C   UNL     1      -1.920   5.443  25.314  0.00  0.00    +0.429 C 
ATOM     26  O   UNL     1      -2.214   4.702  25.527  0.00  0.00    -0.435 OA
ATOM     27  C   UNL     1      -1.635   4.140  25.355  0.00  0.00    +0.176 A 
ATOM     28  C   UNL     1      -1.617   3.320  25.447  0.00  0.00    +0.037 A 
ENDBRANCH  19  20
ENDBRANCH  18  19
ENDBRANCH  17  18
TORSDOF 7
ENDMDL
MODEL 3
REMARK VINA RESULT:     -10.8      2.205      3.124
REMARK  Name = 
REMARK  7 active torsions:
REMARK  status: ('A' for Active; 'I' for Inactive)
REMARK    1  A    between atoms: N_2  and  C_3
REMARK    2  A    between atoms: N_2  and  C_11
REMARK    3  A    between atoms: C_3  and  C_4
REMARK    4  A    between atoms: C_4  and  C_5
REMARK    5  A    between atoms: C_17  and  N_18
REMARK    6  A    between atoms: N_18  and  C_19
REMARK    7  A    between atoms: C_19  and  C_20
REMARK                            x       y       z     vdW  Elec       q    Type
REMARK                         _______ _______ _______ _____ _____    ______ ____
ROOT
ATOM     11  C   UNL     1      -0.610   0.965  24.722  0.00  0.00    +0.147 C 
ATOM     12  C   UNL     1      -0.054   1.386  24.045  0.00  0.00    +0.253 C 
ATOM     13  O   UNL     1       0.342   2.172  24.113  0.00  0.00    -0.327 OA
ATOM     14  C   UNL     1      -0.065   1.606  24.318  0.00  0.00    +0.176 C 
ATOM     15  C   UNL     1      -0.347   0.910  24.114  0.00  0.00    +0.166 C 
ATOM     16  O   UNL     1      -0.087   0.808  23.458  0.00  0.00    -0.328 OA
ATOM     17  C   UNL     1      -0.880   0.496  24.751  0.00  0.00    +0.135 C 
ATOM     29  C   UNL     1      -0.846   1.078  25.340  0.00  0.00    +0.190 C 
ATOM     30  O   UNL     1      -0.982   1.461  26.057  0.00  0.00    -0.220 OA
ENDROOT
BRANCH  11   2
ATOM      1  C   UNL     1       0.434   1.777  25.263  0.00  0.00    +0.090 C 
ATOM      2  N   UNL     1      -0.342   1.696  24.995  0.00  0.00    -0.266 NA
BRANCH   2   3
ATOM      3  C   UNL     1      -0.850   2.347  24.999  0.00  0.00    +0.079 C 
BRANCH   3   4
ATOM      4  C   UNL     1      -0.652   3.021  25.432  0.00  0.00    +0.063 C 
BRANCH   4   5
ATOM      5  C   UNL     1      -1.134   3.690  25.395  0.00  0.00    +0.060 A 
ATOM      6  N   UNL     1      -1.909   3.657  25.677  0.00  0.00    -0.248 NA
ATOM      7  C   UNL     1      -2.390   4.326  25.640  0.00  0.00    +0.098 A 
ATOM      8  C   UNL     1      -2.096   5.028  25.321  0.00  0.00    +0.021 A 
ATOM      9  C   UNL     1      -1.322   5.061  25.039  0.00  0.00    +0.003 A 
ATOM     10  C   UNL     1      -0.841   4.392  25.076  0.00  0.00    +0.015 A 
ENDBRANCH   4   5
ENDBRANCH   3   4
ENDBRANCH   2   3
ENDBRANCH  11   2
BRANCH  17  18
ATOM     18  N   UNL     1      -1.269  -0.231  24.735  0.00  0.00    -0.209 NA
BRANCH  18  19
ATOM     19  C   UNL     1      -2.064  -0.277  24.948  0.00  0.00    +0.115 C 
BRANCH  19  20
ATOM     20  C   UNL     1      -2.496  -0.963  24.787  0.00  0.00    -0.002 A 
ATOM     21  C   UNL     1      -2.225  -1.694  25.057  0.00  0.00    +0.000 A 
ATOM     22  C   UNL     1      -2.656  -2.378  24.896  0.00  0.00    +0.040 A 
ATOM     23  C   UNL     1      -3.358  -2.332  24.464  0.00  0.00    +0.176 A 
ATOM     24  O   UNL     1      -3.896  -2.909  24.223  0.00  0.00    -0.435 OA
ATOM     25  C   UNL     1      -4.499  -2.534  23.803  0.00  0.00    +0.429 C 
ATOM     26  O   UNL     1      -4.333  -1.726  23.785  0.00  0.00    -0.435 OA
ATOM     27  C   UNL     1      -3.628  -1.601  24.194  0.00  0.00    +0.176 A 
ATOM     28  C   UNL     1      -3.197  -0.916  24.356  0.00  0.00    +0.037 A 
ENDBRANCH  19  20
ENDBRANCH  18  19
ENDBRANCH  17  18
TORSDOF 7
ENDMDL
MODEL 4
REMARK VINA RESULT:     -10.6      1.455      4.949
REMARK  Name = 
REMARK  7 active torsions:
REMARK  status: ('A' for Active; 'I' for Inactive)
REMARK    1  A    between atoms: N_2  and  C_3
REMARK    2  A    between atoms: N_2  and  C_11
REMARK    3  A    between atoms: C_3  and  C_4
REMARK    4  A    between atoms: C_4  and  C_5
REMARK    5  A    between atoms: C_17  and  N_18
REMARK    6  A    between atoms: N_18  and  C_19
REMARK    7  A    between atoms: C_19  and  C_20
REMARK                            x       y       z     vdW  Elec       q    Type
REMARK                         _______ _______ _______ _____ _____    ______ ____
ROOT
ATOM     11  C   UNL     1      -4.673   2.398  25.151  0.00  0.00    +0.147 C 
ATOM     12  C   UNL     1      -5.445   2.185  25.703  0.00  0.00    +0.253 C 
ATOM     13  O   UNL     1      -5.938   1.455  25.645  0.00  0.00    -0.327 OA
ATOM     14  C   UNL     1      -5.403   1.917  25.480  0.00  0.00    +0.176 C 
ATOM     15  C   UNL     1      -5.068   2.599  25.647  0.00  0.00    +0.166 C 
ATOM     16  O   UNL     1      -5.463   2.855  26.183  0.00  0.00    -0.328 OA
ATOM     17  C   UNL     1      -4.329   2.816  25.129  0.00  0.00    +0.135 C 
ATOM     29  C   UNL     1      -4.312   2.142  24.647  0.00  0.00    +0.190 C 
ATOM     30  O   UNL     1      -4.067   1.616  24.061  0.00  0.00    -0.220 OA
ENDROOT
BRANCH  11   2
ATOM      1  C   UNL     1      -5.749   1.620  24.623  0.00  0.00    +0.090 C 
ATOM      2  N   UNL     1      -4.984   1.668  24.927  0.00  0.00    -0.266 NA
BRANCH   2   3
ATOM      3  C   UNL     1      -4.529   0.983  25.008  0.00  0.00    +0.079 C 
BRANCH   3   4
ATOM      4  C   UNL     1      -4.846   0.251  24.798  0.00  0.00    +0.063 C 
BRANCH   4   5
ATOM      5  C   UNL     1      -4.381  -0.429  24.847  0.00  0.00    +0.060 A 
ATOM      6  N   UNL     1      -3.997  -0.617  25.553  0.00  0.00    -0.248 NA
ATOM      7  C   UNL     1      -3.532  -1.296  25.602  0.00  0.00    +0.098 A 
ATOM      8  C   UNL     1      -3.450  -1.788  24.944  0.00  0.00    +0.021 A 
ATOM      9  C   UNL     1      -3.834  -1.600  24.238  0.00  0.00    +0.003 A 
ATOM     10  C   UNL     1      -4.299  -0.921  24.190  0.00  0.00    +0.015 A 
ENDBRANCH   4   5
ENDBRANCH   3   4
ENDBRANCH   2   3
ENDBRANCH  11   2
BRANCH  17  18
ATOM     18  N   UNL     1      -3.839   3.480  25.143  0.00  0.00    -0.209 NA
BRANCH  18  19
ATOM     19  C   UNL     1      -3.152   3.475  25.599  0.00  0.00    +0.115 C 
BRANCH  19  20
ATOM     20  C   UNL     1      -2.533   3.991  25.419  0.00  0.00    -0.002 A 
ATOM     21  C   UNL     1      -2.616   4.799  25.561  0.00  0.00    +0.000 A 
ATOM     22  C   UNL     1      -1.997   5.314  25.381  0.00  0.00    +0.040 A 
ATOM     23  C   UNL     1      -1.296   5.021  25.058  0.00  0.00    +0.176 A 
ATOM     24  O   UNL     1      -0.597   5.393  24.826  0.00  0.00    -0.435 OA
ATOM     25  C   UNL     1      -0.084   4.815  24.541  0.00  0.00    +0.429 C 
ATOM     26  O   UNL     1      -0.465   4.085  24.597  0.00  0.00    -0.435 OA
ATOM     27  C   UNL     1      -1.215   4.213  24.916  0.00  0.00    +0.176 A 
ATOM     28  C   UNL     1      -1.833   3.697  25.097  0.00  0.00    +0.037 A 
ENDBRANCH  19  20
ENDBRANCH  18  19
ENDBRANCH  17  18
TORSDOF 7
ENDMDL
