MODEL 1
REMARK VINA RESULT:     -10.8      0.000      0.000
REMARK  Name = 
REMARK  10 active torsions:
REMARK  status: ('A' for Active; 'I' for Inactive)
REMARK    1  A    between atoms: O_2  and  C_3
REMARK    2  A    between atoms: C_8  and  N_9
REMARK    3  A    between atoms: C_15  and  C_17
REMARK    4  A    between atoms: C_17  and  C_18
REMARK    5  A    between atoms: C_20  and  C_21
REMARK    6  A    between atoms: C_21  and  N_22
REMARK    7  A    between atoms: C_24  and  C_25
REMARK    8  A    between atoms: C_25  and  N_26
REMARK    9  A    between atoms: N_26  and  C_28
REMARK   10  A    between atoms: C_28  and  C_29
REMARK                            x       y       z     vdW  Elec       q    Type
REMARK                         _______ _______ _______ _____ _____    ______ ____
ROOT
ATOM     18  C   UNL     1      -4.345   2.924  25.298  0.00  0.00    +0.157 C 
ATOM     19  O   UNL     1      -3.553   3.048  25.494  0.00  0.00    -0.351 OA
ATOM     20  C   UNL     1      -3.493   3.784  25.862  0.00  0.00    +0.172 C 
ATOM     37  C   UNL     1      -4.248   4.116  25.894  0.00  0.00    +0.213 C 
ATOM     38  O   UNL     1      -4.442   4.849  26.217  0.00  0.00    -0.218 OA
ATOM     39  C   UNL     1      -4.775   3.584  25.546  0.00  0.00    +0.212 C 
ATOM     40  O   UNL     1      -5.588   3.694  25.460  0.00  0.00    -0.218 OA
ENDROOT
BRANCH  18  17
ATOM     17  C   UNL     1      -4.654   2.258  24.922  0.00  0.00    +0.117 C 
BRANCH  17  15
ATOM      9  N   UNL     1      -3.904  -0.562  24.345  0.00  0.00    -0.302 N 
ATOM     10  C   UNL     1      -4.330  -0.195  24.949  0.00  0.00    +0.112 C 
ATOM     11  C   UNL     1      -4.438   0.623  24.940  0.00  0.00    +0.115 C 
ATOM     12  N   UNL     1      -4.120   1.074  24.326  0.00  0.00    -0.276 N 
ATOM     13  C   UNL     1      -3.694   0.707  23.723  0.00  0.00    +0.115 C 
ATOM     14  C   UNL     1      -3.587  -0.111  23.732  0.00  0.00    +0.112 C 
ATOM     15  C   UNL     1      -4.228   1.891  24.317  0.00  0.00    +0.228 C 
ATOM     16  O   UNL     1      -3.910   2.343  23.704  0.00  0.00    -0.275 OA
BRANCH   9   8
ATOM      3  C   UNL     1      -3.208  -1.713  24.825  0.00  0.00    +0.152 A 
ATOM      4  C   UNL     1      -3.100  -2.531  24.834  0.00  0.00    +0.038 A 
ATOM      5  C   UNL     1      -3.581  -3.015  24.372  0.00  0.00    +0.003 A 
ATOM      6  C   UNL     1      -4.171  -2.683  23.901  0.00  0.00    +0.001 A 
ATOM      7  C   UNL     1      -4.279  -1.865  23.891  0.00  0.00    +0.018 A 
ATOM      8  C   UNL     1      -3.797  -1.380  24.354  0.00  0.00    +0.082 A 
BRANCH   3   2
ATOM      1  C   UNL     1      -2.141  -1.562  25.764  0.00  0.00    +0.253 C 
ATOM      2  O   UNL     1      -2.725  -1.229  25.288  0.00  0.00    -0.470 OA
ENDBRANCH   3   2
ENDBRANCH   9   8
ENDBRANCH  17  15
ENDBRANCH  18  17
BRANCH  20  21
ATOM     21  C   UNL     1      -2.800   4.128  26.147  0.00  0.00    +0.161 C 
BRANCH  21  22
ATOM     22  N   UNL     1      -2.084   3.997  25.757  0.00  0.00    -0.228 N 
ATOM     23  C   UNL     1      -1.566   3.370  25.892  0.00  0.00    +0.115 A 
ATOM     24  C   UNL     1      -0.923   3.456  25.383  0.00  0.00    +0.117 A 
ATOM     35  N   UNL     1      -1.044   4.137  24.932  0.00  0.00    -0.132 NA
ATOM     36  N   UNL     1      -1.762   4.471  25.164  0.00  0.00    -0.064 NA
BRANCH  24  25
ATOM     25  C   UNL     1      -0.273   2.951  25.331  0.00  0.00    +0.122 C 
BRANCH  25  26
ATOM     26  N   UNL     1      -0.370   2.181  25.053  0.00  0.00    -0.263 NA
ATOM     27  C   UNL     1      -0.493   1.563  25.584  0.00  0.00    +0.090 C 
BRANCH  26  28
ATOM     28  C   UNL     1      -0.343   2.029  24.242  0.00  0.00    +0.099 C 
BRANCH  28  29
ATOM     29  C   UNL     1       0.108   1.401  23.955  0.00  0.00    -0.006 A 
ATOM     30  C   UNL     1       0.921   1.490  23.852  0.00  0.00    -0.003 A 
ATOM     31  C   UNL     1       1.372   0.861  23.564  0.00  0.00    -0.000 A 
ATOM     32  C   UNL     1       1.009   0.144  23.380  0.00  0.00    -0.000 A 
ATOM     33  C   UNL     1       0.196   0.055  23.483  0.00  0.00    -0.000 A 
ATOM     34  C   UNL     1      -0.255   0.683  23.770  0.00  0.00    -0.003 A 
ENDBRANCH  28  29
ENDBRANCH  26  28
ENDBRANCH  25  26
ENDBRANCH  24  25
ENDBRANCH  21  22
ENDBRANCH  20  21
TORSDOF 10
ENDMDL
MODEL 2
REMARK VINA RESULT:     -10.6      1.464      4.518
REMARK  Name = 
REMARK  10 active torsions:
REMARK  status: ('A' for Active; 'I' for Inactive)
REMARK    1  A    between atoms: O_2  and  C_3
REMARK    2  A    between atoms: C_8  and  N_9
REMARK    3  A    between atoms: C_15  and  C_17
REMARK    4  A    between atoms: C_17  and  C_18
REMARK    5  A    between atoms: C_20  and  C_21
REMARK    6  A    between atoms: C_21  and  N_22
REMARK    7  A    between atoms: C_24  and  C_25
REMARK    8  A    between atoms: C_25  and  N_26
REMARK    9  A    between atoms: N_26  and  C_28
REMARK   10  A    between atoms: C_28  and  C_29
REMARK                            x       y       z     vdW  Elec       q    Type
REMARK                         _______ _______ _______ _____ _____    ______ ____
ROOT
ATOM     18  C   UNL     1      -2.673  -1.357  24.858  0.00  0.00    +0.157 C 
ATOM     19  O   UNL     1      -2.005  -0.876  24.809  0.00  0.00    -0.351 OA
ATOM     20  C   UNL     1      -1.341  -1.365  24.755  0.00  0.00    +0.172 C 
ATOM     37  C   UNL     1      -1.600  -2.148  24.769  0.00  0.00    +0.213 C 
ATOM     38  O   UNL     1      -1.121  -2.818  24.728  0.00  0.00    -0.218 OA
ATOM     39  C   UNL     1      -2.423  -2.144  24.833  0.00  0.00    +0.212 C 
ATOM     40  O   UNL     1      -2.910  -2.809  24.866  0.00  0.00    -0.218 OA
ENDROOT
BRANCH  18  17
ATOM     17  C   UNL     1      -3.454  -1.098  24.920  0.00  0.00    +0.117 C 
BRANCH  17  15
ATOM      9  N   UNL     1      -4.683   1.610  24.921  0.00  0.00    -0.302 N 
ATOM     10  C   UNL     1      -4.361   1.128  25.508  0.00  0.00    +0.112 C 
ATOM     11  C   UNL     1      -4.058   0.386  25.312  0.00  0.00    +0.115 C 
ATOM     12  N   UNL     1      -4.079   0.125  24.528  0.00  0.00    -0.276 N 
ATOM     13  C   UNL     1      -4.401   0.608  23.942  0.00  0.00    +0.115 C 
ATOM     14  C   UNL     1      -4.704   1.350  24.138  0.00  0.00    +0.112 C 
ATOM     15  C   UNL     1      -3.776  -0.616  24.333  0.00  0.00    +0.228 C 
ATOM     16  O   UNL     1      -3.796  -0.876  23.550  0.00  0.00    -0.275 OA
BRANCH   9   8
ATOM      3  C   UNL     1      -5.625   2.414  25.635  0.00  0.00    +0.152 A 
ATOM      4  C   UNL     1      -5.927   3.156  25.831  0.00  0.00    +0.038 A 
ATOM      5  C   UNL     1      -5.591   3.836  25.509  0.00  0.00    +0.003 A 
ATOM      6  C   UNL     1      -4.951   3.775  24.990  0.00  0.00    +0.001 A 
ATOM      7  C   UNL     1      -4.649   3.033  24.794  0.00  0.00    +0.018 A 
ATOM      8  C   UNL     1      -4.986   2.353  25.117  0.00  0.00    +0.082 A 
BRANCH   3   2
ATOM      1  C   UNL     1      -6.590   1.795  26.487  0.00  0.00    +0.253 C 
ATOM      2  O   UNL     1      -5.962   1.733  25.957  0.00  0.00    -0.470 OA
ENDBRANCH   3   2
ENDBRANCH   9   8
ENDBRANCH  17  15
ENDBRANCH  18  17
BRANCH  20  21
ATOM     21  C   UNL     1      -0.558  -1.114  24.696  0.00  0.00    +0.161 C 
BRANCH  21  22
ATOM     22  N   UNL     1      -0.386  -0.370  24.382  0.00  0.00    -0.228 N 
ATOM     23  C   UNL     1      -0.315   0.332  24.810  0.00  0.00    +0.115 A 
ATOM     24  C   UNL     1      -0.140   0.937  24.278  0.00  0.00    +0.117 A 
ATOM     35  N   UNL     1      -0.103   0.611  23.522  0.00  0.00    -0.132 NA
ATOM     36  N   UNL     1      -0.255  -0.198  23.587  0.00  0.00    -0.064 NA
BRANCH  24  25
ATOM     25  C   UNL     1      -0.023   1.731  24.468  0.00  0.00    +0.122 C 
BRANCH  25  26
ATOM     26  N   UNL     1      -0.668   2.242  24.526  0.00  0.00    -0.263 NA
ATOM     27  C   UNL     1      -1.190   2.320  23.892  0.00  0.00    +0.090 C 
BRANCH  26  28
ATOM     28  C   UNL     1      -0.791   2.674  25.218  0.00  0.00    +0.099 C 
BRANCH  28  29
ATOM     29  C   UNL     1      -0.938   3.485  25.177  0.00  0.00    -0.006 A 
ATOM     30  C   UNL     1      -0.446   3.972  24.728  0.00  0.00    -0.003 A 
ATOM     31  C   UNL     1      -0.593   4.782  24.687  0.00  0.00    -0.000 A 
ATOM     32  C   UNL     1      -1.232   5.106  25.094  0.00  0.00    -0.000 A 
ATOM     33  C   UNL     1      -1.725   4.620  25.544  0.00  0.00    -0.000 A 
ATOM     34  C   UNL     1      -1.578   3.810  25.585  0.00  0.00    -0.003 A 
ENDBRANCH  28  29
ENDBRANCH  26  28
ENDBRANCH  25  26
ENDBRANCH  24  25
ENDBRANCH  21  22
ENDBRANCH  20  21
TORSDOF 10
ENDMDL
MODEL 3
REMARK VINA RESULT:     -10.2      1.681      3.971
REMARK  Name = 
REMARK  10 active torsions:
REMARK  status: ('A' for Active; 'I' for Inactive)
REMARK    1  A    between atoms: O_2  and  C_3
REMARK    2  A    between atoms: C_8  and  N_9
REMARK    3  A    between atoms: C_15  and  C_17
REMARK    4  A    between atoms: C_17  and  C_18
REMARK    5  A    between atoms: C_20  and  C_21
REMARK    6  A    between atoms: C_21  and  N_22
REMARK    7  A    between atoms: C_24  and  C_25
REMARK    8  A    between atoms: C_25  and  N_26
REMARK    9  A    between atoms: N_26  and  C_28
REMARK   10  A    between atoms: C_28  and  C_29
REMARK                            x       y       z     vdW  Elec       q    Type
REMARK                         _______ _______ _______ _____ _____    ______ ____
ROOT
ATOM     18  C   UNL     1      -0.302   2.011  24.683  0.00  0.00    +0.157 C 
ATOM     19  O   UNL     1      -0.822   2.561  25.009  0.00  0.00    -0.351 OA
ATOM     20  C   UNL     1      -0.577   3.314  24.777  0.00  0.00    +0.172 C 
ATOM     37  C   UNL     1       0.096   3.229  24.307  0.00  0.00    +0.213 C 
ATOM     38  O   UNL     1       0.524   3.841  23.957  0.00  0.00    -0.218 OA
ATOM     39  C   UNL     1       0.266   2.423  24.249  0.00  0.00    +0.212 C 
ATOM     40  O   UNL     1       0.894   2.089  23.830  0.00  0.00    -0.218 OA
ENDROOT
BRANCH  18  17
ATOM     17  C   UNL     1      -0.342   1.192  24.774  0.00  0.00    +0.117 C 
BRANCH  17  15
ATOM      9  N   UNL     1      -2.549  -0.799  24.678  0.00  0.00    -0.302 N 
ATOM     10  C   UNL     1      -2.049  -0.472  24.109  0.00  0.00    +0.112 C 
ATOM     11  C   UNL     1      -1.480   0.083  24.331  0.00  0.00    +0.115 C 
ATOM     12  N   UNL     1      -1.411   0.310  25.122  0.00  0.00    -0.276 N 
ATOM     13  C   UNL     1      -1.911  -0.018  25.690  0.00  0.00    +0.115 C 
ATOM     14  C   UNL     1      -2.480  -0.573  25.468  0.00  0.00    +0.112 C 
ATOM     15  C   UNL     1      -0.842   0.864  25.343  0.00  0.00    +0.228 C 
ATOM     16  O   UNL     1      -0.773   1.091  26.133  0.00  0.00    -0.275 OA
BRANCH   9   8
ATOM      3  C   UNL     1      -2.927  -2.156  24.435  0.00  0.00    +0.152 A 
ATOM      4  C   UNL     1      -3.496  -2.711  24.214  0.00  0.00    +0.038 A 
ATOM      5  C   UNL     1      -4.257  -2.463  24.013  0.00  0.00    +0.003 A 
ATOM      6  C   UNL     1      -4.449  -1.661  24.034  0.00  0.00    +0.001 A 
ATOM      7  C   UNL     1      -3.880  -1.106  24.256  0.00  0.00    +0.018 A 
ATOM      8  C   UNL     1      -3.119  -1.355  24.456  0.00  0.00    +0.082 A 
BRANCH   3   2
ATOM      1  C   UNL     1      -1.945  -3.191  24.524  0.00  0.00    +0.253 C 
ATOM      2  O   UNL     1      -2.166  -2.404  24.636  0.00  0.00    -0.470 OA
ENDBRANCH   3   2
ENDBRANCH   9   8
ENDBRANCH  17  15
ENDBRANCH  18  17
BRANCH  20  21
ATOM     21  C   UNL     1      -0.940   4.026  24.979  0.00  0.00    +0.161 C 
BRANCH  21  22
ATOM     22  N   UNL     1      -1.711   4.027  25.274  0.00  0.00    -0.228 N 
ATOM     23  C   UNL     1      -2.398   3.904  24.834  0.00  0.00    +0.115 A 
ATOM     24  C   UNL     1      -3.041   3.951  25.348  0.00  0.00    +0.117 A 
ATOM     35  N   UNL     1      -2.752   4.103  26.106  0.00  0.00    -0.132 NA
ATOM     36  N   UNL     1      -1.929   4.150  26.059  0.00  0.00    -0.064 NA
BRANCH  24  25
ATOM     25  C   UNL     1      -3.835   3.862  25.142  0.00  0.00    +0.122 C 
BRANCH  25  26
ATOM     26  N   UNL     1      -4.105   3.143  24.841  0.00  0.00    -0.263 NA
ATOM     27  C   UNL     1      -4.145   3.026  24.026  0.00  0.00    +0.090 C 
BRANCH  26  28
ATOM     28  C   UNL     1      -4.335   2.541  25.357  0.00  0.00    +0.099 C 
BRANCH  28  29
ATOM     29  C   UNL     1      -5.115   2.274  25.357  0.00  0.00    -0.006 A 
ATOM     30  C   UNL     1      -5.406   1.848  24.713  0.00  0.00    -0.003 A 
ATOM     31  C   UNL     1      -6.186   1.581  24.713  0.00  0.00    -0.000 A 
ATOM     32  C   UNL     1      -6.676   1.740  25.357  0.00  0.00    -0.000 A 
ATOM     33  C   UNL     1      -6.386   2.166  26.001  0.00  0.00    -0.000 A 
ATOM     34  C   UNL     1      -5.606   2.433  26.001  0.00  0.00    -0.003 A 
ENDBRANCH  28  29
ENDBRANCH  26  28
ENDBRANCH  25  26
ENDBRANCH  24  25
ENDBRANCH  21  22
ENDBRANCH  20  21
TORSDOF 10
ENDMDL
MODEL 4
REMARK VINA RESULT:      -9.9      1.170      4.321
REMARK  Name = 
REMARK  10 active torsions:
REMARK  status: ('A' for Active; 'I' for Inactive)
REMARK    1  A    between atoms: O_2  and  C_3
REMARK    2  A    between atoms: C_8  and  N_9
REMARK    3  A    between atoms: C_15  and  C_17
REMARK    4  A    between atoms: C_17  and  C_18
REMARK    5  A    between atoms: C_20  and  C_21
REMARK    6  A    between atoms: C_21  and  N_22
REMARK    7  A    between atoms: C_24  and  C_25
REMARK    8  A    between atoms: C_25  and  N_26
REMARK    9  A    between atoms: N_26  and  C_28
REMARK   10  A    between atoms: C_28  and  C_29
REMARK                            x       y       z     vdW  Elec       q    Type
REMARK                         _______ _______ _______ _____ _____    ______ ____
ROOT
ATOM     18  C   UNL     1      -1.921   3.821  25.340  0.00  0.00    +0.157 C 
ATOM     19  O   UNL     1      -2.554   3.297  25.414  0.00  0.00    -0.351 OA
ATOM     20  C   UNL     1      -3.212   3.726  25.670  0.00  0.00    +0.172 C 
ATOM     37  C   UNL     1      -2.985   4.515  25.753  0.00  0.00    +0.213 C 
ATOM     38  O   UNL     1      -3.470   5.135  25.996  0.00  0.00    -0.218 OA
ATOM     39  C   UNL     1      -2.187   4.574  25.549  0.00  0.00    +0.212 C 
ATOM     40  O   UNL     1      -1.735   5.264  25.553  0.00  0.00    -0.218 OA
ENDROOT
BRANCH  18  17
ATOM     17  C   UNL     1      -1.157   3.626  25.099  0.00  0.00    +0.117 C 
BRANCH  17  15
ATOM      9  N   UNL     1       0.545   1.423  24.052  0.00  0.00    -0.302 N 
ATOM     10  C   UNL     1       0.150   2.057  23.701  0.00  0.00    +0.112 C 
ATOM     11  C   UNL     1      -0.285   2.580  24.167  0.00  0.00    +0.115 C 
ATOM     12  N   UNL     1      -0.327   2.469  24.984  0.00  0.00    -0.276 N 
ATOM     13  C   UNL     1       0.068   1.835  25.334  0.00  0.00    +0.115 C 
ATOM     14  C   UNL     1       0.504   1.312  24.868  0.00  0.00    +0.112 C 
ATOM     15  C   UNL     1      -0.762   2.992  25.449  0.00  0.00    +0.228 C 
ATOM     16  O   UNL     1      -0.803   2.881  26.266  0.00  0.00    -0.275 OA
BRANCH   9   8
ATOM      3  C   UNL     1       0.658   0.172  23.370  0.00  0.00    +0.152 A 
ATOM      4  C   UNL     1       1.093  -0.352  22.904  0.00  0.00    +0.038 A 
ATOM      5  C   UNL     1       1.852  -0.147  22.654  0.00  0.00    +0.003 A 
ATOM      6  C   UNL     1       2.176   0.581  22.869  0.00  0.00    +0.001 A 
ATOM      7  C   UNL     1       1.740   1.104  23.335  0.00  0.00    +0.018 A 
ATOM      8  C   UNL     1       0.981   0.899  23.585  0.00  0.00    +0.082 A 
BRANCH   3   2
ATOM      1  C   UNL     1      -0.358  -0.815  23.563  0.00  0.00    +0.253 C 
ATOM      2  O   UNL     1      -0.101  -0.034  23.621  0.00  0.00    -0.470 OA
ENDBRANCH   3   2
ENDBRANCH   9   8
ENDBRANCH  17  15
ENDBRANCH  18  17
BRANCH  20  21
ATOM     21  C   UNL     1      -3.963   3.419  25.816  0.00  0.00    +0.161 C 
BRANCH  21  22
ATOM     22  N   UNL     1      -4.273   2.834  25.323  0.00  0.00    -0.228 N 
ATOM     23  C   UNL     1      -4.263   2.022  25.469  0.00  0.00    +0.115 A 
ATOM     24  C   UNL     1      -4.630   1.645  24.834  0.00  0.00    +0.117 A 
ATOM     35  N   UNL     1      -4.867   2.223  24.295  0.00  0.00    -0.132 NA
ATOM     36  N   UNL     1      -4.646   2.959  24.598  0.00  0.00    -0.064 NA
BRANCH  24  25
ATOM     25  C   UNL     1      -4.742   0.832  24.751  0.00  0.00    +0.122 C 
BRANCH  25  26
ATOM     26  N   UNL     1      -4.094   0.338  24.618  0.00  0.00    -0.263 NA
ATOM     27  C   UNL     1      -3.614   0.456  23.959  0.00  0.00    +0.090 C 
BRANCH  26  28
ATOM     28  C   UNL     1      -3.929  -0.275  25.146  0.00  0.00    +0.099 C 
BRANCH  28  29
ATOM     29  C   UNL     1      -3.873  -1.051  24.871  0.00  0.00    -0.006 A 
ATOM     30  C   UNL     1      -4.262  -1.273  24.179  0.00  0.00    -0.003 A 
ATOM     31  C   UNL     1      -4.206  -2.049  23.904  0.00  0.00    -0.000 A 
ATOM     32  C   UNL     1      -3.761  -2.603  24.323  0.00  0.00    -0.000 A 
ATOM     33  C   UNL     1      -3.372  -2.382  25.016  0.00  0.00    -0.000 A 
ATOM     34  C   UNL     1      -3.428  -1.606  25.290  0.00  0.00    -0.003 A 
ENDBRANCH  28  29
ENDBRANCH  26  28
ENDBRANCH  25  26
ENDBRANCH  24  25
ENDBRANCH  21  22
ENDBRANCH  20  21
TORSDOF 10
ENDMDL
MODEL 5
REMARK VINA RESULT:      -9.8      1.815      5.922
REMARK  Name = 
REMARK  10 active torsions:
REMARK  status: ('A' for Active; 'I' for Inactive)
REMARK    1  A    between atoms: O_2  and  C_3
REMARK    2  A    between atoms: C_8  and  N_9
REMARK    3  A    between atoms: C_15  and  C_17
REMARK    4  A    between atoms: C_17  and  C_18
REMARK    5  A    between atoms: C_20  and  C_21
REMARK    6  A    between atoms: C_21  and  N_22
REMARK    7  A    between atoms: C_24  and  C_25
REMARK    8  A    between atoms: C_25  and  N_26
REMARK    9  A    between atoms: N_26  and  C_28
REMARK   10  A    between atoms: C_28  and  C_29
REMARK                            x       y       z     vdW  Elec       q    Type
REMARK                         _______ _______ _______ _____ _____    ______ ____
ROOT
ATOM     18  C   UNL     1      -0.883  -0.822  24.916  0.00  0.00    +0.157 C 
ATOM     19  O   UNL     1      -1.693  -0.961  24.847  0.00  0.00    -0.351 OA
ATOM     20  C   UNL     1      -1.821  -1.773  24.923  0.00  0.00    +0.172 C 
ATOM     37  C   UNL     1      -1.089  -2.136  25.038  0.00  0.00    +0.213 C 
ATOM     38  O   UNL     1      -0.959  -2.944  25.139  0.00  0.00    -0.218 OA
ATOM     39  C   UNL     1      -0.509  -1.549  25.033  0.00  0.00    +0.212 C 
ATOM     40  O   UNL     1       0.302  -1.667  25.130  0.00  0.00    -0.218 OA
ENDROOT
BRANCH  18  17
ATOM     17  C   UNL     1      -0.511  -0.087  24.874  0.00  0.00    +0.117 C 
BRANCH  17  15
ATOM      9  N   UNL     1      -1.213   2.803  24.860  0.00  0.00    -0.302 N 
ATOM     10  C   UNL     1      -1.003   2.268  25.453  0.00  0.00    +0.112 C 
ATOM     11  C   UNL     1      -0.839   1.483  25.260  0.00  0.00    +0.115 C 
ATOM     12  N   UNL     1      -0.885   1.233  24.474  0.00  0.00    -0.276 N 
ATOM     13  C   UNL     1      -1.094   1.768  23.883  0.00  0.00    +0.115 C 
ATOM     14  C   UNL     1      -1.258   2.554  24.076  0.00  0.00    +0.112 C 
ATOM     15  C   UNL     1      -0.721   0.449  24.281  0.00  0.00    +0.228 C 
ATOM     16  O   UNL     1      -0.766   0.198  23.497  0.00  0.00    -0.275 OA
BRANCH   9   8
ATOM      3  C   UNL     1      -0.914   4.196  24.742  0.00  0.00    +0.152 A 
ATOM      4  C   UNL     1      -1.078   4.981  24.935  0.00  0.00    +0.038 A 
ATOM      5  C   UNL     1      -1.705   5.159  25.439  0.00  0.00    +0.003 A 
ATOM      6  C   UNL     1      -2.169   4.552  25.752  0.00  0.00    +0.001 A 
ATOM      7  C   UNL     1      -2.005   3.767  25.559  0.00  0.00    +0.018 A 
ATOM      8  C   UNL     1      -1.377   3.589  25.054  0.00  0.00    +0.082 A 
BRANCH   3   2
ATOM      1  C   UNL     1       0.138   4.626  23.876  0.00  0.00    +0.253 C 
ATOM      2  O   UNL     1      -0.286   4.018  24.236  0.00  0.00    -0.470 OA
ENDBRANCH   3   2
ENDBRANCH   9   8
ENDBRANCH  17  15
ENDBRANCH  18  17
BRANCH  20  21
ATOM     21  C   UNL     1      -2.551  -2.153  24.889  0.00  0.00    +0.161 C 
BRANCH  21  22
ATOM     22  N   UNL     1      -3.213  -1.750  24.605  0.00  0.00    -0.228 N 
ATOM     23  C   UNL     1      -3.621  -1.151  25.000  0.00  0.00    +0.115 A 
ATOM     24  C   UNL     1      -4.243  -0.907  24.516  0.00  0.00    +0.117 A 
ATOM     35  N   UNL     1      -4.220  -1.354  23.823  0.00  0.00    -0.132 NA
ATOM     36  N   UNL     1      -3.582  -1.876  23.879  0.00  0.00    -0.064 NA
BRANCH  24  25
ATOM     25  C   UNL     1      -4.793  -0.318  24.693  0.00  0.00    +0.122 C 
BRANCH  25  26
ATOM     26  N   UNL     1      -4.590   0.477  24.603  0.00  0.00    -0.263 NA
ATOM     27  C   UNL     1      -4.451   0.784  23.850  0.00  0.00    +0.090 C 
BRANCH  26  28
ATOM     28  C   UNL     1      -4.527   0.964  25.266  0.00  0.00    +0.099 C 
BRANCH  28  29
ATOM     29  C   UNL     1      -5.018   1.623  25.342  0.00  0.00    -0.006 A 
ATOM     30  C   UNL     1      -4.848   2.315  24.926  0.00  0.00    -0.003 A 
ATOM     31  C   UNL     1      -5.339   2.973  25.002  0.00  0.00    -0.000 A 
ATOM     32  C   UNL     1      -6.000   2.940  25.493  0.00  0.00    -0.000 A 
ATOM     33  C   UNL     1      -6.171   2.248  25.909  0.00  0.00    -0.000 A 
ATOM     34  C   UNL     1      -5.680   1.589  25.833  0.00  0.00    -0.003 A 
ENDBRANCH  28  29
ENDBRANCH  26  28
ENDBRANCH  25  26
ENDBRANCH  24  25
ENDBRANCH  21  22
ENDBRANCH  20  21
TORSDOF 10
ENDMDL
MODEL 6
REMARK VINA RESULT:      -9.7      1.828      4.872
REMARK  Name = 
REMARK  10 active torsions:
REMARK  status: ('A' for Active; 'I' for Inactive)
REMARK    1  A    between atoms: O_2  and  C_3
REMARK    2  A    between atoms: C_8  and  N_9
REMARK    3  A    between atoms: C_15  and  C_17
REMARK    4  A    between atoms: C_17  and  C_18
REMARK    5  A    between atoms: C_20  and  C_21
REMARK    6  A    between atoms: C_21  and  N_22
REMARK    7  A    between atoms: C_24  and  C_25
REMARK    8  A    between atoms: C_25  and  N_26
REMARK    9  A    between atoms: N_26  and  C_28
REMARK   10  A    between atoms: C_28  and  C_29
REMARK                            x       y       z     vdW  Elec       q    Type
REMARK                         _______ _______ _______ _____ _____    ______ ____
ROOT
ATOM     18  C   UNL     1      -0.616   1.937  24.043  0.00  0.00    +0.157 C 
ATOM     19  O   UNL     1      -0.654   1.121  23.931  0.00  0.00    -0.351 OA
ATOM     20  C   UNL     1       0.118   0.839  23.851  0.00  0.00    +0.172 C 
ATOM     37  C   UNL     1       0.632   1.480  23.913  0.00  0.00    +0.213 C 
ATOM     38  O   UNL     1       1.455   1.449  23.865  0.00  0.00    -0.218 OA
ATOM     39  C   UNL     1       0.179   2.160  24.032  0.00  0.00    +0.212 C 
ATOM     40  O   UNL     1       0.470   2.927  24.124  0.00  0.00    -0.218 OA
ENDROOT
BRANCH  18  17
ATOM     17  C   UNL     1      -1.259   2.443  24.148  0.00  0.00    +0.117 C 
BRANCH  17  15
ATOM      9  N   UNL     1      -4.158   2.297  24.798  0.00  0.00    -0.302 N 
ATOM     10  C   UNL     1      -3.475   2.400  25.250  0.00  0.00    +0.112 C 
ATOM     11  C   UNL     1      -2.736   2.414  24.883  0.00  0.00    +0.115 C 
ATOM     12  N   UNL     1      -2.681   2.326  24.064  0.00  0.00    -0.276 N 
ATOM     13  C   UNL     1      -3.364   2.223  23.613  0.00  0.00    +0.115 C 
ATOM     14  C   UNL     1      -4.103   2.209  23.980  0.00  0.00    +0.112 C 
ATOM     15  C   UNL     1      -1.943   2.340  23.697  0.00  0.00    +0.228 C 
ATOM     16  O   UNL     1      -1.887   2.252  22.878  0.00  0.00    -0.275 OA
BRANCH   9   8
ATOM      3  C   UNL     1      -5.268   2.989  25.374  0.00  0.00    +0.152 A 
ATOM      4  C   UNL     1      -6.006   2.975  25.742  0.00  0.00    +0.038 A 
ATOM      5  C   UNL     1      -6.374   2.254  25.900  0.00  0.00    +0.003 A 
ATOM      6  C   UNL     1      -6.003   1.547  25.692  0.00  0.00    +0.001 A 
ATOM      7  C   UNL     1      -5.265   1.561  25.324  0.00  0.00    +0.018 A 
ATOM      8  C   UNL     1      -4.897   2.283  25.166  0.00  0.00    +0.082 A 
BRANCH   3   2
ATOM      1  C   UNL     1      -5.266   4.417  25.434  0.00  0.00    +0.253 C 
ATOM      2  O   UNL     1      -4.900   3.711  25.216  0.00  0.00    -0.470 OA
ENDBRANCH   3   2
ENDBRANCH   9   8
ENDBRANCH  17  15
ENDBRANCH  18  17
BRANCH  20  21
ATOM     21  C   UNL     1       0.335   0.052  23.729  0.00  0.00    +0.161 C 
BRANCH  21  22
ATOM     22  N   UNL     1      -0.017  -0.546  24.175  0.00  0.00    -0.228 N 
ATOM     23  C   UNL     1      -0.708  -0.952  23.981  0.00  0.00    +0.115 A 
ATOM     24  C   UNL     1      -0.858  -1.501  24.579  0.00  0.00    +0.117 A 
ATOM     35  N   UNL     1      -0.259  -1.434  25.143  0.00  0.00    -0.132 NA
ATOM     36  N   UNL     1       0.261  -0.843  24.892  0.00  0.00    -0.064 NA
BRANCH  24  25
ATOM     25  C   UNL     1      -1.494  -2.024  24.608  0.00  0.00    +0.122 C 
BRANCH  25  26
ATOM     26  N   UNL     1      -2.140  -1.862  25.095  0.00  0.00    -0.263 NA
ATOM     27  C   UNL     1      -2.150  -1.176  25.552  0.00  0.00    +0.090 C 
BRANCH  26  28
ATOM     28  C   UNL     1      -2.776  -2.387  25.125  0.00  0.00    +0.099 C 
BRANCH  28  29
ATOM     29  C   UNL     1      -3.422  -2.281  24.623  0.00  0.00    -0.006 A 
ATOM     30  C   UNL     1      -3.678  -2.900  24.142  0.00  0.00    -0.003 A 
ATOM     31  C   UNL     1      -4.325  -2.793  23.640  0.00  0.00    -0.000 A 
ATOM     32  C   UNL     1      -4.715  -2.067  23.621  0.00  0.00    -0.000 A 
ATOM     33  C   UNL     1      -4.460  -1.447  24.102  0.00  0.00    -0.000 A 
ATOM     34  C   UNL     1      -3.813  -1.554  24.603  0.00  0.00    -0.003 A 
ENDBRANCH  28  29
ENDBRANCH  26  28
ENDBRANCH  25  26
ENDBRANCH  24  25
ENDBRANCH  21  22
ENDBRANCH  20  21
TORSDOF 10
ENDMDL
