MODEL 1
REMARK VINA RESULT:     -10.5      0.000      0.000
REMARK  Name = 
REMARK  4 active torsions:
REMARK  status: ('A' for Active; 'I' for Inactive)
REMARK    1  A    between atoms: C_2  and  CA_3
REMARK    2  A    between atoms: C_9  and  C_10
REMARK    3  A    between atoms: C_13  and  N_14
REMARK    4  A    between atoms: C_15  and  C_17
REMARK                            x       y       z     vdW  Elec       q    Type
REMARK                         _______ _______ _______ _____ _____    ______ ____
ROOT
ATOM     10  C   UNL     1      -2.131   2.272  24.723  0.00  0.00    +0.006 A 
ATOM     11  C   UNL     1      -2.581   2.064  24.063  0.00  0.00    -0.001 A 
ATOM     12  C   UNL     1      -2.777   1.274  23.929  0.00  0.00    +0.016 A 
ATOM     13  C   UNL     1      -2.523   0.691  24.456  0.00  0.00    +0.073 A 
ATOM     23  C   UNL     1      -2.073   0.898  25.116  0.00  0.00    +0.016 A 
ATOM     24  C   UNL     1      -1.877   1.689  25.249  0.00  0.00    -0.001 A 
ENDROOT
BRANCH  10   9
ATOM      3  CA  UNL     1      -2.482   3.570  25.207  0.00  0.00    +0.159 C 
ATOM      4  N   UNL     1      -2.286   4.359  25.341  0.00  0.00    -0.199 NA
ATOM      5  C   UNL     1      -1.540   4.641  25.126  0.00  0.00    +0.272 C 
ATOM      6  O   UNL     1      -1.344   5.431  25.260  0.00  0.00    -0.271 OA
ATOM      7  C   UNL     1      -0.992   4.133  24.777  0.00  0.00    +0.229 C 
ATOM      8  O   UNL     1      -1.189   3.344  24.643  0.00  0.00    -0.341 OA
ATOM      9  C   UNL     1      -1.935   3.062  24.858  0.00  0.00    +0.160 C 
BRANCH   3   2
ATOM      1  O   UNL     1      -3.764   3.787  25.801  0.00  0.00    -0.218 OA
ATOM      2  C   UNL     1      -3.227   3.288  25.422  0.00  0.00    +0.206 C 
ENDBRANCH   3   2
ENDBRANCH  10   9
BRANCH  13  14
ATOM     14  N   UNL     1      -2.718  -0.099  24.322  0.00  0.00    -0.179 NA
ATOM     15  C   UNL     1      -3.379  -0.428  24.692  0.00  0.00    +0.245 C 
ATOM     16  O   UNL     1      -3.843   0.033  25.195  0.00  0.00    -0.273 OA
BRANCH  15  17
ATOM     17  C   UNL     1      -3.575  -1.218  24.559  0.00  0.00    +0.084 C 
ATOM     18  C   UNL     1      -3.260  -1.808  25.043  0.00  0.00    +0.041 C 
ATOM     19  C   UNL     1      -3.455  -2.598  24.910  0.00  0.00    +0.143 C 
ATOM     20  O   UNL     1      -3.965  -2.799  24.294  0.00  0.00    -0.354 OA
ATOM     21  C   UNL     1      -4.280  -2.210  23.810  0.00  0.00    +0.143 C 
ATOM     22  C   UNL     1      -4.084  -1.419  23.943  0.00  0.00    +0.041 C 
ENDBRANCH  15  17
ENDBRANCH  13  14
TORSDOF 4
ENDMDL
MODEL 2
REMARK VINA RESULT:      -9.9      1.093      5.300
REMARK  Name = 
REMARK  4 active torsions:
REMARK  status: ('A' for Active; 'I' for Inactive)
REMARK    1  A    between atoms: C_2  and  CA_3
REMARK    2  A    between atoms: C_9  and  C_10
REMARK    3  A    between atoms: C_13  and  N_14
REMARK    4  A    between atoms: C_15  and  C_17
REMARK                            x       y       z     vdW  Elec       q    Type
REMARK                         _______ _______ _______ _____ _____    ______ ____
ROOT
ATOM     10  C   UNL     1      -3.170   0.222  24.397  0.00  0.00    +0.006 A 
ATOM     11  C   UNL     1      -3.506   0.689  24.989  0.00  0.00    -0.001 A 
ATOM     12  C   UNL     1      -3.312   1.488  25.044  0.00  0.00    +0.016 A 
ATOM     13  C   UNL     1      -2.782   1.822  24.507  0.00  0.00    +0.073 A 
ATOM     23  C   UNL     1      -2.446   1.356  23.915  0.00  0.00    +0.016 A 
ATOM     24  C   UNL     1      -2.640   0.556  23.860  0.00  0.00    -0.001 A 
ENDROOT
BRANCH  10   9
ATOM      3  CA  UNL     1      -2.873  -1.147  24.680  0.00  0.00    +0.159 C 
ATOM      4  N   UNL     1      -3.067  -1.946  24.624  0.00  0.00    -0.199 NA
ATOM      5  C   UNL     1      -3.754  -2.177  24.229  0.00  0.00    +0.272 C 
ATOM      6  O   UNL     1      -3.948  -2.977  24.173  0.00  0.00    -0.271 OA
ATOM      7  C   UNL     1      -4.246  -1.609  23.890  0.00  0.00    +0.229 C 
ATOM      8  O   UNL     1      -4.052  -0.809  23.946  0.00  0.00    -0.341 OA
ATOM      9  C   UNL     1      -3.364  -0.578  24.341  0.00  0.00    +0.160 C 
BRANCH   3   2
ATOM      1  O   UNL     1      -1.668  -1.486  25.370  0.00  0.00    -0.218 OA
ATOM      2  C   UNL     1      -2.187  -0.916  25.075  0.00  0.00    +0.206 C 
ENDBRANCH   3   2
ENDBRANCH  10   9
BRANCH  13  14
ATOM     14  N   UNL     1      -2.587   2.621  24.562  0.00  0.00    -0.179 NA
ATOM     15  C   UNL     1      -1.962   2.861  25.045  0.00  0.00    +0.245 C 
ATOM     16  O   UNL     1      -1.532   2.301  25.472  0.00  0.00    -0.273 OA
BRANCH  15  17
ATOM     17  C   UNL     1      -1.767   3.661  25.099  0.00  0.00    +0.084 C 
ATOM     18  C   UNL     1      -1.017   3.919  24.869  0.00  0.00    +0.041 C 
ATOM     19  C   UNL     1      -0.822   4.719  24.923  0.00  0.00    +0.143 C 
ATOM     20  O   UNL     1      -1.375   5.260  25.208  0.00  0.00    -0.354 OA
ATOM     21  C   UNL     1      -2.124   5.002  25.438  0.00  0.00    +0.143 C 
ATOM     22  C   UNL     1      -2.320   4.202  25.383  0.00  0.00    +0.041 C 
ENDBRANCH  15  17
ENDBRANCH  13  14
TORSDOF 4
ENDMDL
MODEL 3
REMARK VINA RESULT:      -9.4      1.895      2.552
REMARK  Name = 
REMARK  4 active torsions:
REMARK  status: ('A' for Active; 'I' for Inactive)
REMARK    1  A    between atoms: C_2  and  CA_3
REMARK    2  A    between atoms: C_9  and  C_10
REMARK    3  A    between atoms: C_13  and  N_14
REMARK    4  A    between atoms: C_15  and  C_17
REMARK                            x       y       z     vdW  Elec       q    Type
REMARK                         _______ _______ _______ _____ _____    ______ ____
ROOT
ATOM     10  C   UNL     1      -4.418   1.640  24.978  0.00  0.00    +0.006 A 
ATOM     11  C   UNL     1      -3.629   1.500  25.175  0.00  0.00    -0.001 A 
ATOM     12  C   UNL     1      -3.274   0.783  24.977  0.00  0.00    +0.016 A 
ATOM     13  C   UNL     1      -3.709   0.203  24.582  0.00  0.00    +0.073 A 
ATOM     23  C   UNL     1      -4.498   0.341  24.385  0.00  0.00    +0.016 A 
ATOM     24  C   UNL     1      -4.853   1.060  24.583  0.00  0.00    -0.001 A 
ENDROOT
BRANCH  10   9
ATOM      3  CA  UNL     1      -4.592   3.039  24.749  0.00  0.00    +0.159 C 
ATOM      4  N   UNL     1      -4.947   3.756  24.947  0.00  0.00    -0.199 NA
ATOM      5  C   UNL     1      -5.484   3.792  25.573  0.00  0.00    +0.272 C 
ATOM      6  O   UNL     1      -5.840   4.510  25.771  0.00  0.00    -0.271 OA
ATOM      7  C   UNL     1      -5.666   3.110  26.000  0.00  0.00    +0.229 C 
ATOM      8  O   UNL     1      -5.311   2.393  25.802  0.00  0.00    -0.341 OA
ATOM      9  C   UNL     1      -4.773   2.358  25.176  0.00  0.00    +0.160 C 
BRANCH   3   2
ATOM      1  O   UNL     1      -3.894   3.679  23.679  0.00  0.00    -0.218 OA
ATOM      2  C   UNL     1      -4.055   3.004  24.124  0.00  0.00    +0.206 C 
ENDBRANCH   3   2
ENDBRANCH  10   9
BRANCH  13  14
ATOM     14  N   UNL     1      -3.355  -0.515  24.384  0.00  0.00    -0.179 NA
ATOM     15  C   UNL     1      -3.365  -1.142  24.922  0.00  0.00    +0.245 C 
ATOM     16  O   UNL     1      -3.728  -1.049  25.657  0.00  0.00    -0.273 OA
BRANCH  15  17
ATOM     17  C   UNL     1      -3.011  -1.860  24.724  0.00  0.00    +0.084 C 
ATOM     18  C   UNL     1      -3.479  -2.528  24.596  0.00  0.00    +0.041 C 
ATOM     19  C   UNL     1      -3.125  -3.247  24.398  0.00  0.00    +0.143 C 
ATOM     20  O   UNL     1      -2.306  -3.297  24.327  0.00  0.00    -0.354 OA
ATOM     21  C   UNL     1      -1.838  -2.630  24.454  0.00  0.00    +0.143 C 
ATOM     22  C   UNL     1      -2.192  -1.910  24.653  0.00  0.00    +0.041 C 
ENDBRANCH  15  17
ENDBRANCH  13  14
TORSDOF 4
ENDMDL
MODEL 4
REMARK VINA RESULT:      -9.1      2.186      5.134
REMARK  Name = 
REMARK  4 active torsions:
REMARK  status: ('A' for Active; 'I' for Inactive)
REMARK    1  A    between atoms: C_2  and  CA_3
REMARK    2  A    between atoms: C_9  and  C_10
REMARK    3  A    between atoms: C_13  and  N_14
REMARK    4  A    between atoms: C_15  and  C_17
REMARK                            x       y       z     vdW  Elec       q    Type
REMARK                         _______ _______ _______ _____ _____    ______ ____
ROOT
ATOM     10  C   UNL     1      -3.369  -0.581  24.654  0.00  0.00    +0.006 A 
ATOM     11  C   UNL     1      -3.441  -0.019  24.053  0.00  0.00    -0.001 A 
ATOM     12  C   UNL     1      -3.906   0.651  24.168  0.00  0.00    +0.016 A 
ATOM     13  C   UNL     1      -4.300   0.762  24.884  0.00  0.00    +0.073 A 
ATOM     23  C   UNL     1      -4.229   0.201  25.485  0.00  0.00    +0.016 A 
ATOM     24  C   UNL     1      -3.763  -0.470  25.370  0.00  0.00    -0.001 A 
ENDROOT
BRANCH  10   9
ATOM      3  CA  UNL     1      -3.244  -1.946  24.251  0.00  0.00    +0.159 C 
ATOM      4  N   UNL     1      -2.778  -2.617  24.136  0.00  0.00    -0.199 NA
ATOM      5  C   UNL     1      -1.971  -2.594  24.310  0.00  0.00    +0.272 C 
ATOM      6  O   UNL     1      -1.506  -3.266  24.195  0.00  0.00    -0.271 OA
ATOM      7  C   UNL     1      -1.631  -1.900  24.598  0.00  0.00    +0.229 C 
ATOM      8  O   UNL     1      -2.097  -1.230  24.713  0.00  0.00    -0.341 OA
ATOM      9  C   UNL     1      -2.904  -1.253  24.539  0.00  0.00    +0.160 C 
BRANCH   3   2
ATOM      1  O   UNL     1      -4.382  -2.648  23.746  0.00  0.00    -0.218 OA
ATOM      2  C   UNL     1      -4.050  -1.969  24.077  0.00  0.00    +0.206 C 
ENDBRANCH   3   2
ENDBRANCH  10   9
BRANCH  13  14
ATOM     14  N   UNL     1      -4.766   1.433  25.000  0.00  0.00    -0.179 NA
ATOM     15  C   UNL     1      -4.414   2.143  25.232  0.00  0.00    +0.245 C 
ATOM     16  O   UNL     1      -3.598   2.182  25.346  0.00  0.00    -0.273 OA
BRANCH  15  17
ATOM     17  C   UNL     1      -4.880   2.814  25.348  0.00  0.00    +0.084 C 
ATOM     18  C   UNL     1      -4.564   3.564  25.208  0.00  0.00    +0.041 C 
ATOM     19  C   UNL     1      -5.030   4.235  25.324  0.00  0.00    +0.143 C 
ATOM     20  O   UNL     1      -5.809   4.157  25.579  0.00  0.00    -0.354 OA
ATOM     21  C   UNL     1      -6.125   3.408  25.719  0.00  0.00    +0.143 C 
ATOM     22  C   UNL     1      -5.659   2.736  25.603  0.00  0.00    +0.041 C 
ENDBRANCH  15  17
ENDBRANCH  13  14
TORSDOF 4
ENDMDL
MODEL 5
REMARK VINA RESULT:      -8.9      2.418      4.163
REMARK  Name = 
REMARK  4 active torsions:
REMARK  status: ('A' for Active; 'I' for Inactive)
REMARK    1  A    between atoms: C_2  and  CA_3
REMARK    2  A    between atoms: C_9  and  C_10
REMARK    3  A    between atoms: C_13  and  N_14
REMARK    4  A    between atoms: C_15  and  C_17
REMARK                            x       y       z     vdW  Elec       q    Type
REMARK                         _______ _______ _______ _____ _____    ______ ____
ROOT
ATOM     10  C   UNL     1      -1.401   0.637  24.234  0.00  0.00    +0.006 A 
ATOM     11  C   UNL     1      -2.108   0.361  23.910  0.00  0.00    -0.001 A 
ATOM     12  C   UNL     1      -2.830   0.636  24.199  0.00  0.00    +0.016 A 
ATOM     13  C   UNL     1      -2.846   1.186  24.813  0.00  0.00    +0.073 A 
ATOM     23  C   UNL     1      -2.140   1.463  25.138  0.00  0.00    +0.016 A 
ATOM     24  C   UNL     1      -1.417   1.188  24.848  0.00  0.00    -0.001 A 
ENDROOT
BRANCH  10   9
ATOM      3  CA  UNL     1      -0.361  -0.343  24.230  0.00  0.00    +0.159 C 
ATOM      4  N   UNL     1       0.361  -0.616  23.941  0.00  0.00    -0.199 NA
ATOM      5  C   UNL     1       0.766  -0.183  23.366  0.00  0.00    +0.272 C 
ATOM      6  O   UNL     1       1.489  -0.457  23.077  0.00  0.00    -0.271 OA
ATOM      7  C   UNL     1       0.449   0.523  23.082  0.00  0.00    +0.229 C 
ATOM      8  O   UNL     1      -0.273   0.796  23.371  0.00  0.00    -0.341 OA
ATOM      9  C   UNL     1      -0.679   0.363  23.946  0.00  0.00    +0.160 C 
BRANCH   3   2
ATOM      1  O   UNL     1      -0.423  -1.450  25.131  0.00  0.00    -0.218 OA
ATOM      2  C   UNL     1      -0.767  -0.776  24.803  0.00  0.00    +0.206 C 
ENDBRANCH   3   2
ENDBRANCH  10   9
BRANCH  13  14
ATOM     14  N   UNL     1      -3.568   1.461  25.103  0.00  0.00    -0.179 NA
ATOM     15  C   UNL     1      -3.955   2.082  24.721  0.00  0.00    +0.245 C 
ATOM     16  O   UNL     1      -3.621   2.427  24.050  0.00  0.00    -0.273 OA
BRANCH  15  17
ATOM     17  C   UNL     1      -4.677   2.357  25.010  0.00  0.00    +0.084 C 
ATOM     18  C   UNL     1      -4.731   3.117  25.329  0.00  0.00    +0.041 C 
ATOM     19  C   UNL     1      -5.453   3.392  25.618  0.00  0.00    +0.143 C 
ATOM     20  O   UNL     1      -6.119   2.909  25.590  0.00  0.00    -0.354 OA
ATOM     21  C   UNL     1      -6.066   2.150  25.272  0.00  0.00    +0.143 C 
ATOM     22  C   UNL     1      -5.344   1.874  24.982  0.00  0.00    +0.041 C 
ENDBRANCH  15  17
ENDBRANCH  13  14
TORSDOF 4
ENDMDL
