MODEL 1
REMARK VINA RESULT:     -10.2      0.000      0.000
REMARK  Name = 
REMARK  7 active torsions:
REMARK  status: ('A' for Active; 'I' for Inactive)
REMARK    1  A    between atoms: O_2  and  C_3
REMARK    2  A    between atoms: C_6  and  N_7
REMARK    3  A    between atoms: C_8  and  O_10
REMARK    4  A    between atoms: O_10  and  C_11
REMARK    5  A    between atoms: C_15  and  N_19
REMARK    6  A    between atoms: N_22  and  C_23
REMARK    7  A    between atoms: C_25  and  C_29
REMARK                            x       y       z     vdW  Elec       q    Type
REMARK                         _______ _______ _______ _____ _____    ______ ____
ROOT
ATOM     11  C   UNL     1       0.131   0.202  23.455  0.00  0.00    +0.229 C 
ATOM     12  C   UNL     1       0.132  -0.299  24.110  0.00  0.00    +0.188 C 
ATOM     13  O   UNL     1      -0.524  -0.113  24.573  0.00  0.00    -0.348 OA
ATOM     14  C   UNL     1      -0.931   0.502  24.205  0.00  0.00    +0.168 C 
ATOM     15  C   UNL     1      -1.588   0.998  24.263  0.00  0.00    +0.156 C 
ATOM     16  C   UNL     1      -1.589   1.499  23.608  0.00  0.00    +0.166 C 
ATOM     17  O   UNL     1      -0.932   1.313  23.144  0.00  0.00    -0.348 OA
ATOM     18  C   UNL     1      -0.526   0.697  23.514  0.00  0.00    +0.186 C 
ENDROOT
BRANCH  15  19
ATOM     19  N   UNL     1      -2.146   0.994  24.871  0.00  0.00    -0.184 NA
ATOM     20  C   UNL     1      -2.911   1.271  24.731  0.00  0.00    +0.344 C 
ATOM     21  O   UNL     1      -3.117   1.552  23.983  0.00  0.00    -0.249 OA
ATOM     22  N   UNL     1      -3.469   1.266  25.338  0.00  0.00    -0.161 NA
BRANCH  22  23
ATOM     23  C   UNL     1      -4.233   1.543  25.198  0.00  0.00    +0.075 A 
ATOM     24  C   UNL     1      -4.440   2.312  25.414  0.00  0.00    +0.021 A 
ATOM     25  C   UNL     1      -5.204   2.588  25.275  0.00  0.00    +0.073 A 
ATOM     26  C   UNL     1      -5.762   2.096  24.918  0.00  0.00    +0.004 A 
ATOM     27  C   UNL     1      -5.556   1.327  24.701  0.00  0.00    +0.001 A 
ATOM     28  C   UNL     1      -4.791   1.051  24.842  0.00  0.00    +0.017 A 
BRANCH  25  29
ATOM     29  C   UNL     1      -5.410   3.358  25.491  0.00  0.00    +0.419 C 
ATOM     30  F   UNL     1      -5.617   4.126  25.708  0.00  0.00    -0.166 F 
ATOM     31  F   UNL     1      -5.754   3.070  26.185  0.00  0.00    -0.166 F 
ATOM     32  F   UNL     1      -5.068   3.645  24.799  0.00  0.00    -0.166 F 
ENDBRANCH  25  29
ENDBRANCH  22  23
ENDBRANCH  15  19
BRANCH  11  10
ATOM     10  O   UNL     1       0.690   0.206  22.847  0.00  0.00    -0.432 OA
BRANCH  10   8
ATOM      7  N   UNL     1       2.070  -0.016  22.553  0.00  0.00    -0.142 NA
ATOM      8  C   UNL     1       1.487   0.332  23.020  0.00  0.00    +0.425 C 
ATOM      9  O   UNL     1       1.699   0.807  23.661  0.00  0.00    -0.224 OA
BRANCH   7   6
ATOM      3  C   UNL     1       4.461   0.361  23.071  0.00  0.00    +0.139 A 
ATOM      4  C   UNL     1       4.101  -0.352  23.280  0.00  0.00    +0.038 A 
ATOM      5  C   UNL     1       3.304  -0.477  23.107  0.00  0.00    +0.020 A 
ATOM      6  C   UNL     1       2.867   0.110  22.726  0.00  0.00    +0.077 A 
ATOM     33  C   UNL     1       3.227   0.822  22.517  0.00  0.00    +0.020 A 
ATOM     34  C   UNL     1       4.024   0.947  22.690  0.00  0.00    +0.038 A 
BRANCH   3   2
ATOM      1  C   UNL     1       5.618   0.062  23.854  0.00  0.00    +0.252 C 
ATOM      2  O   UNL     1       5.258   0.486  23.244  0.00  0.00    -0.471 OA
ENDBRANCH   3   2
ENDBRANCH   7   6
ENDBRANCH  10   8
ENDBRANCH  11  10
TORSDOF 7
ENDMDL
MODEL 2
REMARK VINA RESULT:      -9.4      3.613      7.784
REMARK  Name = 
REMARK  7 active torsions:
REMARK  status: ('A' for Active; 'I' for Inactive)
REMARK    1  A    between atoms: O_2  and  C_3
REMARK    2  A    between atoms: C_6  and  N_7
REMARK    3  A    between atoms: C_8  and  O_10
REMARK    4  A    between atoms: O_10  and  C_11
REMARK    5  A    between atoms: C_15  and  N_19
REMARK    6  A    between atoms: N_22  and  C_23
REMARK    7  A    between atoms: C_25  and  C_29
REMARK                            x       y       z     vdW  Elec       q    Type
REMARK                         _______ _______ _______ _____ _____    ______ ____
ROOT
ATOM     11  C   UNL     1      -1.004   0.614  24.298  0.00  0.00    +0.229 C 
ATOM     12  C   UNL     1      -0.817   1.302  24.712  0.00  0.00    +0.188 C 
ATOM     13  O   UNL     1      -0.051   1.524  24.503  0.00  0.00    -0.348 OA
ATOM     14  C   UNL     1       0.236   0.973  23.961  0.00  0.00    +0.168 C 
ATOM     15  C   UNL     1       0.886   0.769  23.497  0.00  0.00    +0.156 C 
ATOM     16  C   UNL     1       0.699   0.080  23.083  0.00  0.00    +0.166 C 
ATOM     17  O   UNL     1      -0.067  -0.142  23.292  0.00  0.00    -0.348 OA
ATOM     18  C   UNL     1      -0.354   0.410  23.835  0.00  0.00    +0.186 C 
ENDROOT
BRANCH  15  19
ATOM     19  N   UNL     1       1.600   1.181  23.454  0.00  0.00    -0.184 NA
ATOM     20  C   UNL     1       2.297   0.782  23.267  0.00  0.00    +0.344 C 
ATOM     21  O   UNL     1       2.281  -0.030  23.123  0.00  0.00    -0.249 OA
ATOM     22  N   UNL     1       3.010   1.194  23.224  0.00  0.00    -0.161 NA
BRANCH  22  23
ATOM     23  C   UNL     1       3.707   0.795  23.037  0.00  0.00    +0.075 A 
ATOM     24  C   UNL     1       4.198   0.517  23.638  0.00  0.00    +0.021 A 
ATOM     25  C   UNL     1       4.895   0.118  23.452  0.00  0.00    +0.073 A 
ATOM     26  C   UNL     1       5.102  -0.003  22.662  0.00  0.00    +0.004 A 
ATOM     27  C   UNL     1       4.611   0.275  22.060  0.00  0.00    +0.001 A 
ATOM     28  C   UNL     1       3.914   0.674  22.247  0.00  0.00    +0.017 A 
BRANCH  25  29
ATOM     29  C   UNL     1       5.385  -0.160  24.054  0.00  0.00    +0.419 C 
ATOM     30  F   UNL     1       5.876  -0.438  24.656  0.00  0.00    -0.166 F 
ATOM     31  F   UNL     1       5.121  -0.929  23.915  0.00  0.00    -0.166 F 
ATOM     32  F   UNL     1       5.650   0.608  24.194  0.00  0.00    -0.166 F 
ENDBRANCH  25  29
ENDBRANCH  22  23
ENDBRANCH  15  19
BRANCH  11  10
ATOM     10  O   UNL     1      -1.718   0.201  24.342  0.00  0.00    -0.432 OA
BRANCH  10   8
ATOM      7  N   UNL     1      -3.061   0.624  24.102  0.00  0.00    -0.142 NA
ATOM      8  C   UNL     1      -2.402   0.585  24.596  0.00  0.00    +0.425 C 
ATOM      9  O   UNL     1      -2.427   0.931  25.345  0.00  0.00    -0.224 OA
BRANCH   7   6
ATOM      3  C   UNL     1      -5.115   1.777  24.863  0.00  0.00    +0.139 A 
ATOM      4  C   UNL     1      -4.559   2.182  24.408  0.00  0.00    +0.038 A 
ATOM      5  C   UNL     1      -3.875   1.797  24.154  0.00  0.00    +0.020 A 
ATOM      6  C   UNL     1      -3.746   1.008  24.356  0.00  0.00    +0.077 A 
ATOM     33  C   UNL     1      -4.302   0.603  24.811  0.00  0.00    +0.020 A 
ATOM     34  C   UNL     1      -4.986   0.987  25.065  0.00  0.00    +0.038 A 
BRANCH   3   2
ATOM      1  C   UNL     1      -5.747   2.776  25.666  0.00  0.00    +0.252 C 
ATOM      2  O   UNL     1      -5.799   2.162  25.117  0.00  0.00    -0.471 OA
ENDBRANCH   3   2
ENDBRANCH   7   6
ENDBRANCH  10   8
ENDBRANCH  11  10
TORSDOF 7
ENDMDL
MODEL 3
REMARK VINA RESULT:      -8.6      2.237      2.690
REMARK  Name = 
REMARK  7 active torsions:
REMARK  status: ('A' for Active; 'I' for Inactive)
REMARK    1  A    between atoms: O_2  and  C_3
REMARK    2  A    between atoms: C_6  and  N_7
REMARK    3  A    between atoms: C_8  and  O_10
REMARK    4  A    between atoms: O_10  and  C_11
REMARK    5  A    between atoms: C_15  and  N_19
REMARK    6  A    between atoms: N_22  and  C_23
REMARK    7  A    between atoms: C_25  and  C_29
REMARK                            x       y       z     vdW  Elec       q    Type
REMARK                         _______ _______ _______ _____ _____    ______ ____
ROOT
ATOM     11  C   UNL     1       1.031   0.221  23.213  0.00  0.00    +0.229 C 
ATOM     12  C   UNL     1       0.933  -0.582  23.369  0.00  0.00    +0.188 C 
ATOM     13  O   UNL     1       0.303  -0.665  23.894  0.00  0.00    -0.348 OA
ATOM     14  C   UNL     1       0.011   0.087  24.062  0.00  0.00    +0.168 C 
ATOM     15  C   UNL     1      -0.559   0.502  24.491  0.00  0.00    +0.156 C 
ATOM     16  C   UNL     1      -0.462   1.306  24.335  0.00  0.00    +0.166 C 
ATOM     17  O   UNL     1       0.169   1.389  23.810  0.00  0.00    -0.348 OA
ATOM     18  C   UNL     1       0.461   0.635  23.641  0.00  0.00    +0.186 C 
ENDROOT
BRANCH  15  19
ATOM     19  N   UNL     1      -1.128   0.170  24.989  0.00  0.00    -0.184 NA
ATOM     20  C   UNL     1      -1.892   0.032  24.709  0.00  0.00    +0.344 C 
ATOM     21  O   UNL     1      -2.087   0.225  23.931  0.00  0.00    -0.249 OA
ATOM     22  N   UNL     1      -2.460  -0.300  25.206  0.00  0.00    -0.161 NA
BRANCH  22  23
ATOM     23  C   UNL     1      -3.223  -0.438  24.926  0.00  0.00    +0.075 A 
ATOM     24  C   UNL     1      -3.406  -1.155  24.562  0.00  0.00    +0.021 A 
ATOM     25  C   UNL     1      -4.168  -1.294  24.282  0.00  0.00    +0.073 A 
ATOM     26  C   UNL     1      -4.751  -0.715  24.366  0.00  0.00    +0.004 A 
ATOM     27  C   UNL     1      -4.569   0.003  24.731  0.00  0.00    +0.001 A 
ATOM     28  C   UNL     1      -3.805   0.140  25.011  0.00  0.00    +0.017 A 
BRANCH  25  29
ATOM     29  C   UNL     1      -4.350  -2.012  23.917  0.00  0.00    +0.419 C 
ATOM     30  F   UNL     1      -4.532  -2.728  23.553  0.00  0.00    -0.166 F 
ATOM     31  F   UNL     1      -4.375  -1.633  23.184  0.00  0.00    -0.166 F 
ATOM     32  F   UNL     1      -4.326  -2.390  24.649  0.00  0.00    -0.166 F 
ENDBRANCH  25  29
ENDBRANCH  22  23
ENDBRANCH  15  19
BRANCH  11  10
ATOM     10  O   UNL     1       1.599   0.553  22.715  0.00  0.00    -0.432 OA
BRANCH  10   8
ATOM      7  N   UNL     1       2.974   0.895  22.901  0.00  0.00    -0.142 NA
ATOM      8  C   UNL     1       2.390   0.326  22.781  0.00  0.00    +0.425 C 
ATOM      9  O   UNL     1       2.595  -0.472  22.729  0.00  0.00    -0.224 OA
BRANCH   7   6
ATOM      3  C   UNL     1       5.345   0.214  23.100  0.00  0.00    +0.139 A 
ATOM      4  C   UNL     1       4.989   0.255  22.357  0.00  0.00    +0.038 A 
ATOM      5  C   UNL     1       4.198   0.482  22.291  0.00  0.00    +0.020 A 
ATOM      6  C   UNL     1       3.765   0.668  22.968  0.00  0.00    +0.077 A 
ATOM     33  C   UNL     1       4.121   0.628  23.710  0.00  0.00    +0.020 A 
ATOM     34  C   UNL     1       4.911   0.400  23.777  0.00  0.00    +0.038 A 
BRANCH   3   2
ATOM      1  C   UNL     1       6.357  -0.578  23.726  0.00  0.00    +0.252 C 
ATOM      2  O   UNL     1       6.136  -0.013  23.166  0.00  0.00    -0.471 OA
ENDBRANCH   3   2
ENDBRANCH   7   6
ENDBRANCH  10   8
ENDBRANCH  11  10
TORSDOF 7
ENDMDL
MODEL 4
REMARK VINA RESULT:      -6.9     15.592     17.168
REMARK  Name = 
REMARK  7 active torsions:
REMARK  status: ('A' for Active; 'I' for Inactive)
REMARK    1  A    between atoms: O_2  and  C_3
REMARK    2  A    between atoms: C_6  and  N_7
REMARK    3  A    between atoms: C_8  and  O_10
REMARK    4  A    between atoms: O_10  and  C_11
REMARK    5  A    between atoms: C_15  and  N_19
REMARK    6  A    between atoms: N_22  and  C_23
REMARK    7  A    between atoms: C_25  and  C_29
REMARK                            x       y       z     vdW  Elec       q    Type
REMARK                         _______ _______ _______ _____ _____    ______ ____
ROOT
ATOM     11  C   UNL     1      -6.457  -9.893  14.977  0.00  0.00    +0.229 C 
ATOM     12  C   UNL     1      -5.827 -10.338  15.268  0.00  0.00    +0.188 C 
ATOM     13  O   UNL     1      -5.388 -10.610  14.624  0.00  0.00    -0.348 OA
ATOM     14  C   UNL     1      -5.747 -10.334  13.936  0.00  0.00    +0.168 C 
ATOM     15  C   UNL     1      -5.699 -10.330  13.112  0.00  0.00    +0.156 C 
ATOM     16  C   UNL     1      -6.329  -9.885  12.821  0.00  0.00    +0.166 C 
ATOM     17  O   UNL     1      -6.767  -9.613  13.464  0.00  0.00    -0.348 OA
ATOM     18  C   UNL     1      -6.407  -9.890  14.154  0.00  0.00    +0.186 C 
ENDROOT
BRANCH  15  19
ATOM     19  N   UNL     1      -5.121 -10.707  12.659  0.00  0.00    -0.184 NA
ATOM     20  C   UNL     1      -4.714 -10.287  12.077  0.00  0.00    +0.344 C 
ATOM     21  O   UNL     1      -4.885  -9.491  11.947  0.00  0.00    -0.249 OA
ATOM     22  N   UNL     1      -4.137 -10.663  11.624  0.00  0.00    -0.161 NA
BRANCH  22  23
ATOM     23  C   UNL     1      -3.730 -10.243  11.042  0.00  0.00    +0.075 A 
ATOM     24  C   UNL     1      -2.985  -9.928  11.204  0.00  0.00    +0.021 A 
ATOM     25  C   UNL     1      -2.579  -9.509  10.622  0.00  0.00    +0.073 A 
ATOM     26  C   UNL     1      -2.917  -9.404   9.876  0.00  0.00    +0.004 A 
ATOM     27  C   UNL     1      -3.663  -9.719   9.714  0.00  0.00    +0.001 A 
ATOM     28  C   UNL     1      -4.069 -10.138  10.297  0.00  0.00    +0.017 A 
BRANCH  25  29
ATOM     29  C   UNL     1      -1.834  -9.194  10.784  0.00  0.00    +0.419 C 
ATOM     30  F   UNL     1      -1.089  -8.880  10.947  0.00  0.00    -0.166 F 
ATOM     31  F   UNL     1      -1.558  -9.947  10.979  0.00  0.00    -0.166 F 
ATOM     32  F   UNL     1      -2.109  -8.442  10.591  0.00  0.00    -0.166 F 
ENDBRANCH  25  29
ENDBRANCH  22  23
ENDBRANCH  15  19
BRANCH  11  10
ATOM     10  O   UNL     1      -7.035  -9.516  15.430  0.00  0.00    -0.432 OA
BRANCH  10   8
ATOM      7  N   UNL     1      -7.494  -9.392  16.777  0.00  0.00    -0.142 NA
ATOM      8  C   UNL     1      -7.303  -9.863  16.128  0.00  0.00    +0.425 C 
ATOM      9  O   UNL     1      -7.380 -10.684  16.177  0.00  0.00    -0.224 OA
BRANCH   7   6
ATOM      3  C   UNL     1      -8.299 -10.434  18.873  0.00  0.00    +0.139 A 
ATOM      4  C   UNL     1      -7.539 -10.116  18.836  0.00  0.00    +0.038 A 
ATOM      5  C   UNL     1      -7.271  -9.769  18.137  0.00  0.00    +0.020 A 
ATOM      6  C   UNL     1      -7.763  -9.739  17.475  0.00  0.00    +0.077 A 
ATOM     33  C   UNL     1      -8.523 -10.057  17.513  0.00  0.00    +0.020 A 
ATOM     34  C   UNL     1      -8.791 -10.405  18.211  0.00  0.00    +0.038 A 
BRANCH   3   2
ATOM      1  C   UNL     1      -9.371 -10.764  19.759  0.00  0.00    +0.252 C 
ATOM      2  O   UNL     1      -8.567 -10.781  19.571  0.00  0.00    -0.471 OA
ENDBRANCH   3   2
ENDBRANCH   7   6
ENDBRANCH  10   8
ENDBRANCH  11  10
TORSDOF 7
ENDMDL
MODEL 5
REMARK VINA RESULT:      -6.8     17.806     18.371
REMARK  Name = 
REMARK  7 active torsions:
REMARK  status: ('A' for Active; 'I' for Inactive)
REMARK    1  A    between atoms: O_2  and  C_3
REMARK    2  A    between atoms: C_6  and  N_7
REMARK    3  A    between atoms: C_8  and  O_10
REMARK    4  A    between atoms: O_10  and  C_11
REMARK    5  A    between atoms: C_15  and  N_19
REMARK    6  A    between atoms: N_22  and  C_23
REMARK    7  A    between atoms: C_25  and  C_29
REMARK                            x       y       z     vdW  Elec       q    Type
REMARK                         _______ _______ _______ _____ _____    ______ ____
ROOT
ATOM     11  C   UNL     1      -5.874  -9.730   9.096  0.00  0.00    +0.229 C 
ATOM     12  C   UNL     1      -5.559  -9.396   8.411  0.00  0.00    +0.188 C 
ATOM     13  O   UNL     1      -6.101  -8.845   8.124  0.00  0.00    -0.348 OA
ATOM     14  C   UNL     1      -6.751  -8.838   8.630  0.00  0.00    +0.168 C 
ATOM     15  C   UNL     1      -7.488  -8.494   8.767  0.00  0.00    +0.156 C 
ATOM     16  C   UNL     1      -7.804  -8.828   9.451  0.00  0.00    +0.166 C 
ATOM     17  O   UNL     1      -7.262  -9.379   9.739  0.00  0.00    -0.348 OA
ATOM     18  C   UNL     1      -6.611  -9.385   9.231  0.00  0.00    +0.186 C 
ENDROOT
BRANCH  15  19
ATOM     19  N   UNL     1      -7.847  -7.916   8.299  0.00  0.00    -0.184 NA
ATOM     20  C   UNL     1      -8.458  -7.455   8.608  0.00  0.00    +0.344 C 
ATOM     21  O   UNL     1      -8.710  -7.572   9.385  0.00  0.00    -0.249 OA
ATOM     22  N   UNL     1      -8.817  -6.878   8.141  0.00  0.00    -0.161 NA
BRANCH  22  23
ATOM     23  C   UNL     1      -9.427  -6.417   8.450  0.00  0.00    +0.075 A 
ATOM     24  C   UNL     1      -9.359  -5.596   8.462  0.00  0.00    +0.021 A 
ATOM     25  C   UNL     1      -9.969  -5.136   8.771  0.00  0.00    +0.073 A 
ATOM     26  C   UNL     1     -10.649  -5.497   9.069  0.00  0.00    +0.004 A 
ATOM     27  C   UNL     1     -10.718  -6.319   9.057  0.00  0.00    +0.001 A 
ATOM     28  C   UNL     1     -10.107  -6.779   8.748  0.00  0.00    +0.017 A 
BRANCH  25  29
ATOM     29  C   UNL     1      -9.901  -4.313   8.783  0.00  0.00    +0.419 C 
ATOM     30  F   UNL     1      -9.832  -3.492   8.795  0.00  0.00    -0.166 F 
ATOM     31  F   UNL     1      -9.112  -4.382   9.016  0.00  0.00    -0.166 F 
ATOM     32  F   UNL     1     -10.689  -4.244   8.551  0.00  0.00    -0.166 F 
ENDBRANCH  25  29
ENDBRANCH  22  23
ENDBRANCH  15  19
BRANCH  11  10
ATOM     10  O   UNL     1      -5.515 -10.307   9.563  0.00  0.00    -0.432 OA
BRANCH  10   8
ATOM      7  N   UNL     1      -4.492 -10.127  10.544  0.00  0.00    -0.142 NA
ATOM      8  C   UNL     1      -4.716 -10.242   9.759  0.00  0.00    +0.425 C 
ATOM      9  O   UNL     1      -4.142 -10.293   9.168  0.00  0.00    -0.224 OA
BRANCH   7   6
ATOM      3  C   UNL     1      -2.095  -9.933  11.132  0.00  0.00    +0.139 A 
ATOM      4  C   UNL     1      -2.527 -10.594  11.373  0.00  0.00    +0.038 A 
ATOM      5  C   UNL     1      -3.326 -10.658  11.177  0.00  0.00    +0.020 A 
ATOM      6  C   UNL     1      -3.693 -10.062  10.740  0.00  0.00    +0.077 A 
ATOM     33  C   UNL     1      -3.261  -9.403  10.499  0.00  0.00    +0.020 A 
ATOM     34  C   UNL     1      -2.462  -9.338  10.695  0.00  0.00    +0.038 A 
BRANCH   3   2
ATOM      1  C   UNL     1      -1.049  -9.296  11.869  0.00  0.00    +0.252 C 
ATOM      2  O   UNL     1      -1.296  -9.869  11.328  0.00  0.00    -0.471 OA
ENDBRANCH   3   2
ENDBRANCH   7   6
ENDBRANCH  10   8
ENDBRANCH  11  10
TORSDOF 7
ENDMDL
MODEL 6
REMARK VINA RESULT:      -6.3     15.919     17.495
REMARK  Name = 
REMARK  7 active torsions:
REMARK  status: ('A' for Active; 'I' for Inactive)
REMARK    1  A    between atoms: O_2  and  C_3
REMARK    2  A    between atoms: C_6  and  N_7
REMARK    3  A    between atoms: C_8  and  O_10
REMARK    4  A    between atoms: O_10  and  C_11
REMARK    5  A    between atoms: C_15  and  N_19
REMARK    6  A    between atoms: N_22  and  C_23
REMARK    7  A    between atoms: C_25  and  C_29
REMARK                            x       y       z     vdW  Elec       q    Type
REMARK                         _______ _______ _______ _____ _____    ______ ____
ROOT
ATOM     11  C   UNL     1      -6.140 -10.321  14.785  0.00  0.00    +0.229 C 
ATOM     12  C   UNL     1      -6.729 -10.619  14.290  0.00  0.00    +0.188 C 
ATOM     13  O   UNL     1      -6.388 -10.776  13.556  0.00  0.00    -0.348 OA
ATOM     14  C   UNL     1      -5.589 -10.576  13.596  0.00  0.00    +0.168 C 
ATOM     15  C   UNL     1      -4.884 -10.550  13.169  0.00  0.00    +0.156 C 
ATOM     16  C   UNL     1      -4.296 -10.252  13.664  0.00  0.00    +0.166 C 
ATOM     17  O   UNL     1      -4.637 -10.095  14.398  0.00  0.00    -0.348 OA
ATOM     18  C   UNL     1      -5.436 -10.295  14.357  0.00  0.00    +0.186 C 
ENDROOT
BRANCH  15  19
ATOM     19  N   UNL     1      -4.786 -10.780  12.382  0.00  0.00    -0.184 NA
ATOM     20  C   UNL     1      -4.625 -10.215  11.803  0.00  0.00    +0.344 C 
ATOM     21  O   UNL     1      -4.562  -9.419  12.010  0.00  0.00    -0.249 OA
ATOM     22  N   UNL     1      -4.526 -10.445  11.018  0.00  0.00    -0.161 NA
BRANCH  22  23
ATOM     23  C   UNL     1      -4.365  -9.880  10.439  0.00  0.00    +0.075 A 
ATOM     24  C   UNL     1      -4.960  -9.635   9.924  0.00  0.00    +0.021 A 
ATOM     25  C   UNL     1      -4.799  -9.070   9.345  0.00  0.00    +0.073 A 
ATOM     26  C   UNL     1      -4.041  -8.750   9.281  0.00  0.00    +0.004 A 
ATOM     27  C   UNL     1      -3.445  -8.995   9.796  0.00  0.00    +0.001 A 
ATOM     28  C   UNL     1      -3.607  -9.560  10.375  0.00  0.00    +0.017 A 
BRANCH  25  29
ATOM     29  C   UNL     1      -5.396  -8.825   8.830  0.00  0.00    +0.419 C 
ATOM     30  F   UNL     1      -5.991  -8.580   8.316  0.00  0.00    -0.166 F 
ATOM     31  F   UNL     1      -5.456  -8.111   9.239  0.00  0.00    -0.166 F 
ATOM     32  F   UNL     1      -5.336  -9.539   8.421  0.00  0.00    -0.166 F 
ENDBRANCH  25  29
ENDBRANCH  22  23
ENDBRANCH  15  19
BRANCH  11  10
ATOM     10  O   UNL     1      -6.239 -10.091  15.571  0.00  0.00    -0.432 OA
BRANCH  10   8
ATOM      7  N   UNL     1      -7.098  -9.797  16.675  0.00  0.00    -0.142 NA
ATOM      8  C   UNL     1      -6.997  -9.981  15.878  0.00  0.00    +0.425 C 
ATOM      9  O   UNL     1      -7.655 -10.057  15.385  0.00  0.00    -0.224 OA
BRANCH   7   6
ATOM      3  C   UNL     1      -9.372  -9.469  17.594  0.00  0.00    +0.139 A 
ATOM      4  C   UNL     1      -9.026 -10.218  17.606  0.00  0.00    +0.038 A 
ATOM      5  C   UNL     1      -8.268 -10.327  17.300  0.00  0.00    +0.020 A 
ATOM      6  C   UNL     1      -7.856  -9.687  16.981  0.00  0.00    +0.077 A 
ATOM     33  C   UNL     1      -8.202  -8.939  16.969  0.00  0.00    +0.020 A 
ATOM     34  C   UNL     1      -8.960  -8.829  17.275  0.00  0.00    +0.038 A 
BRANCH   3   2
ATOM      1  C   UNL     1     -10.349  -9.735  18.602  0.00  0.00    +0.252 C 
ATOM      2  O   UNL     1     -10.130  -9.360  17.900  0.00  0.00    -0.471 OA
ENDBRANCH   3   2
ENDBRANCH   7   6
ENDBRANCH  10   8
ENDBRANCH  11  10
TORSDOF 7
ENDMDL
