MODEL 1
REMARK VINA RESULT:      -9.8      0.000      0.000
REMARK  Name = 
REMARK  8 active torsions:
REMARK  status: ('A' for Active; 'I' for Inactive)
REMARK    1  A    between atoms: O_2  and  C_3
REMARK    2  A    between atoms: C_3  and  C_5
REMARK    3  A    between atoms: C_5  and  N_6
REMARK    4  A    between atoms: C_5  and  C_32
REMARK    5  A    between atoms: C_7  and  C_9
REMARK    6  A    between atoms: C_11  and  N_22
REMARK    7  A    between atoms: C_14  and  C_16
REMARK    8  A    between atoms: N_25  and  C_26
REMARK                            x       y       z     vdW  Elec       q    Type
REMARK                         _______ _______ _______ _____ _____    ______ ____
ROOT
ATOM      9  C   UNL     1      -2.660   2.068  24.912  0.00  0.00    +0.156 C 
ATOM     10  C   UNL     1      -2.628   1.394  24.439  0.00  0.00    +0.053 C 
ATOM     11  C   UNL     1      -3.402   1.180  24.249  0.00  0.00    +0.119 C 
ATOM     12  C   UNL     1      -3.912   1.723  24.605  0.00  0.00    +0.116 C 
ATOM     13  N   UNL     1      -3.452   2.272  25.015  0.00  0.00    -0.266 N 
ATOM     14  C   UNL     1      -3.736   2.912  25.451  0.00  0.00    +0.265 C 
ATOM     15  O   UNL     1      -3.207   3.417  25.834  0.00  0.00    -0.268 OA
ENDROOT
BRANCH  14  16
ATOM     16  C   UNL     1      -4.548   3.047  25.505  0.00  0.00    +0.114 A 
ATOM     17  C   UNL     1      -5.109   2.519  25.800  0.00  0.00    +0.023 A 
ATOM     18  C   UNL     1      -5.849   2.879  25.751  0.00  0.00    +0.020 A 
ATOM     19  C   UNL     1      -5.746   3.630  25.426  0.00  0.00    +0.076 A 
ATOM     20  N   UNL     1      -4.941   3.734  25.274  0.00  0.00    -0.320 N 
ATOM     21  C   UNL     1      -4.593   4.406  24.948  0.00  0.00    +0.131 C 
ENDBRANCH  14  16
BRANCH  11  22
ATOM     22  N   UNL     1      -3.627   0.537  23.783  0.00  0.00    -0.187 NA
ATOM     23  C   UNL     1      -3.552  -0.231  24.076  0.00  0.00    +0.339 C 
ATOM     24  O   UNL     1      -3.250  -0.355  24.834  0.00  0.00    -0.249 OA
ATOM     25  N   UNL     1      -3.777  -0.873  23.611  0.00  0.00    -0.189 NA
BRANCH  25  26
ATOM     26  C   UNL     1      -3.701  -1.641  23.904  0.00  0.00    +0.097 C 
ATOM     27  C   UNL     1      -2.976  -1.901  24.199  0.00  0.00    +0.022 C 
ATOM     28  C   UNL     1      -2.900  -2.669  24.492  0.00  0.00    +0.002 C 
ATOM     29  C   UNL     1      -3.550  -3.176  24.488  0.00  0.00    +0.000 C 
ATOM     30  C   UNL     1      -4.276  -2.917  24.193  0.00  0.00    +0.002 C 
ATOM     31  C   UNL     1      -4.351  -2.149  23.901  0.00  0.00    +0.022 C 
ENDBRANCH  25  26
ENDBRANCH  11  22
BRANCH   9   7
ATOM      6  N   UNL     1      -1.375   2.671  24.743  0.00  0.00    -0.194 NA
ATOM      7  C   UNL     1      -2.011   2.469  25.228  0.00  0.00    +0.260 C 
ATOM      8  O   UNL     1      -1.998   2.668  26.029  0.00  0.00    -0.272 OA
BRANCH   6   5
ATOM      5  C   UNL     1      -0.726   3.072  25.058  0.00  0.00    +0.193 C 
BRANCH   5  32
ATOM     32  C   UNL     1      -0.115   2.650  25.418  0.00  0.00    +0.031 C 
ATOM     33  C   UNL     1       0.352   2.137  24.971  0.00  0.00    +0.002 C 
ATOM     34  C   UNL     1       0.029   2.740  26.225  0.00  0.00    +0.002 C 
ENDBRANCH   5  32
BRANCH   5   3
ATOM      3  C   UNL     1      -0.689   3.895  25.014  0.00  0.00    +0.337 C 
ATOM      4  O   UNL     1      -0.684   4.346  25.704  0.00  0.00    -0.248 OA
BRANCH   3   2
ATOM      1  C   UNL     1      -0.626   5.090  24.233  0.00  0.00    +0.256 C 
ATOM      2  O   UNL     1      -0.657   4.267  24.277  0.00  0.00    -0.443 OA
ENDBRANCH   3   2
ENDBRANCH   5   3
ENDBRANCH   6   5
ENDBRANCH   9   7
TORSDOF 8
ENDMDL
MODEL 2
REMARK VINA RESULT:      -9.7      2.754      5.083
REMARK  Name = 
REMARK  8 active torsions:
REMARK  status: ('A' for Active; 'I' for Inactive)
REMARK    1  A    between atoms: O_2  and  C_3
REMARK    2  A    between atoms: C_3  and  C_5
REMARK    3  A    between atoms: C_5  and  N_6
REMARK    4  A    between atoms: C_5  and  C_32
REMARK    5  A    between atoms: C_7  and  C_9
REMARK    6  A    between atoms: C_11  and  N_22
REMARK    7  A    between atoms: C_14  and  C_16
REMARK    8  A    between atoms: N_25  and  C_26
REMARK                            x       y       z     vdW  Elec       q    Type
REMARK                         _______ _______ _______ _____ _____    ______ ____
ROOT
ATOM      9  C   UNL     1      -0.564   0.938  24.233  0.00  0.00    +0.156 C 
ATOM     10  C   UNL     1       0.047   1.023  23.686  0.00  0.00    +0.053 C 
ATOM     11  C   UNL     1       0.264   0.270  23.428  0.00  0.00    +0.119 C 
ATOM     12  C   UNL     1      -0.214  -0.280  23.814  0.00  0.00    +0.116 C 
ATOM     13  N   UNL     1      -0.726   0.133  24.312  0.00  0.00    -0.266 N 
ATOM     14  C   UNL     1      -1.299  -0.200  24.803  0.00  0.00    +0.265 C 
ATOM     15  O   UNL     1      -1.773   0.285  25.273  0.00  0.00    -0.268 OA
ENDROOT
BRANCH  14  16
ATOM     16  C   UNL     1      -1.398  -1.019  24.825  0.00  0.00    +0.114 A 
ATOM     17  C   UNL     1      -0.826  -1.571  25.047  0.00  0.00    +0.023 A 
ATOM     18  C   UNL     1      -1.160  -2.322  24.988  0.00  0.00    +0.020 A 
ATOM     19  C   UNL     1      -1.939  -2.236  24.730  0.00  0.00    +0.076 A 
ATOM     20  N   UNL     1      -2.086  -1.430  24.630  0.00  0.00    -0.320 N 
ATOM     21  C   UNL     1      -2.796  -1.094  24.378  0.00  0.00    +0.131 C 
ENDBRANCH  14  16
BRANCH  11  22
ATOM     22  N   UNL     1       0.855   0.097  22.878  0.00  0.00    -0.187 NA
ATOM     23  C   UNL     1       1.646   0.235  23.065  0.00  0.00    +0.339 C 
ATOM     24  O   UNL     1       1.847   0.546  23.803  0.00  0.00    -0.249 OA
ATOM     25  N   UNL     1       2.236   0.062  22.517  0.00  0.00    -0.189 NA
BRANCH  25  26
ATOM     26  C   UNL     1       3.028   0.200  22.704  0.00  0.00    +0.097 C 
ATOM     27  C   UNL     1       3.476  -0.391  23.066  0.00  0.00    +0.022 C 
ATOM     28  C   UNL     1       4.268  -0.252  23.254  0.00  0.00    +0.002 C 
ATOM     29  C   UNL     1       4.611   0.477  23.079  0.00  0.00    +0.000 C 
ATOM     30  C   UNL     1       4.163   1.068  22.716  0.00  0.00    +0.002 C 
ATOM     31  C   UNL     1       3.372   0.929  22.529  0.00  0.00    +0.022 C 
ENDBRANCH  25  26
ENDBRANCH  11  22
BRANCH   9   7
ATOM      6  N   UNL     1      -1.263   2.184  24.206  0.00  0.00    -0.194 NA
ATOM      7  C   UNL     1      -0.948   1.551  24.631  0.00  0.00    +0.260 C 
ATOM      8  O   UNL     1      -1.015   1.532  25.453  0.00  0.00    -0.272 OA
BRANCH   6   5
ATOM      5  C   UNL     1      -1.646   2.798  24.603  0.00  0.00    +0.193 C 
BRANCH   5  32
ATOM     32  C   UNL     1      -1.206   3.364  25.010  0.00  0.00    +0.031 C 
ATOM     33  C   UNL     1      -0.702   3.871  24.596  0.00  0.00    +0.002 C 
ATOM     34  C   UNL     1      -1.268   3.426  25.830  0.00  0.00    +0.002 C 
ENDBRANCH   5  32
BRANCH   5   3
ATOM      3  C   UNL     1      -2.470   2.843  24.594  0.00  0.00    +0.337 C 
ATOM      4  O   UNL     1      -2.888   2.901  25.303  0.00  0.00    -0.248 OA
BRANCH   3   2
ATOM      1  C   UNL     1      -3.697   2.897  23.865  0.00  0.00    +0.256 C 
ATOM      2  O   UNL     1      -2.875   2.831  23.875  0.00  0.00    -0.443 OA
ENDBRANCH   3   2
ENDBRANCH   5   3
ENDBRANCH   6   5
ENDBRANCH   9   7
TORSDOF 8
ENDMDL
MODEL 3
REMARK VINA RESULT:      -9.0      1.368      3.374
REMARK  Name = 
REMARK  8 active torsions:
REMARK  status: ('A' for Active; 'I' for Inactive)
REMARK    1  A    between atoms: O_2  and  C_3
REMARK    2  A    between atoms: C_3  and  C_5
REMARK    3  A    between atoms: C_5  and  N_6
REMARK    4  A    between atoms: C_5  and  C_32
REMARK    5  A    between atoms: C_7  and  C_9
REMARK    6  A    between atoms: C_11  and  N_22
REMARK    7  A    between atoms: C_14  and  C_16
REMARK    8  A    between atoms: N_25  and  C_26
REMARK                            x       y       z     vdW  Elec       q    Type
REMARK                         _______ _______ _______ _____ _____    ______ ____
ROOT
ATOM      9  C   UNL     1      -2.382   1.721  24.919  0.00  0.00    +0.156 C 
ATOM     10  C   UNL     1      -2.795   1.092  25.257  0.00  0.00    +0.053 C 
ATOM     11  C   UNL     1      -2.320   0.420  25.208  0.00  0.00    +0.119 C 
ATOM     12  C   UNL     1      -1.613   0.633  24.839  0.00  0.00    +0.116 C 
ATOM     13  N   UNL     1      -1.652   1.438  24.661  0.00  0.00    -0.266 N 
ATOM     14  C   UNL     1      -1.064   1.882  24.289  0.00  0.00    +0.265 C 
ATOM     15  O   UNL     1      -1.182   2.686  24.147  0.00  0.00    -0.268 OA
ENDROOT
BRANCH  14  16
ATOM     16  C   UNL     1      -0.358   1.521  24.060  0.00  0.00    +0.114 A 
ATOM     17  C   UNL     1      -0.281   0.912  23.509  0.00  0.00    +0.023 A 
ATOM     18  C   UNL     1       0.519   0.721  23.450  0.00  0.00    +0.020 A 
ATOM     19  C   UNL     1       0.937   1.212  23.964  0.00  0.00    +0.076 A 
ATOM     20  N   UNL     1       0.395   1.707  24.342  0.00  0.00    -0.320 N 
ATOM     21  C   UNL     1       0.574   2.284  24.902  0.00  0.00    +0.131 C 
ENDBRANCH  14  16
BRANCH  11  22
ATOM     22  N   UNL     1      -2.516  -0.334  25.479  0.00  0.00    -0.187 NA
ATOM     23  C   UNL     1      -2.885  -0.872  24.974  0.00  0.00    +0.339 C 
ATOM     24  O   UNL     1      -3.058  -0.655  24.197  0.00  0.00    -0.249 OA
ATOM     25  N   UNL     1      -3.081  -1.625  25.245  0.00  0.00    -0.189 NA
BRANCH  25  26
ATOM     26  C   UNL     1      -3.450  -2.163  24.740  0.00  0.00    +0.097 C 
ATOM     27  C   UNL     1      -3.119  -2.908  24.616  0.00  0.00    +0.022 C 
ATOM     28  C   UNL     1      -3.489  -3.446  24.110  0.00  0.00    +0.002 C 
ATOM     29  C   UNL     1      -4.190  -3.237  23.729  0.00  0.00    +0.000 C 
ATOM     30  C   UNL     1      -4.522  -2.492  23.853  0.00  0.00    +0.002 C 
ATOM     31  C   UNL     1      -4.152  -1.955  24.358  0.00  0.00    +0.022 C 
ENDBRANCH  25  26
ENDBRANCH  11  22
BRANCH   9   7
ATOM      6  N   UNL     1      -2.952   2.889  25.514  0.00  0.00    -0.194 NA
ATOM      7  C   UNL     1      -2.653   2.498  24.852  0.00  0.00    +0.260 C 
ATOM      8  O   UNL     1      -2.624   2.883  24.123  0.00  0.00    -0.272 OA
BRANCH   6   5
ATOM      5  C   UNL     1      -3.222   3.666  25.447  0.00  0.00    +0.193 C 
BRANCH   5  32
ATOM     32  C   UNL     1      -2.736   4.294  25.670  0.00  0.00    +0.031 C 
ATOM     33  C   UNL     1      -2.491   4.368  26.455  0.00  0.00    +0.002 C 
ATOM     34  C   UNL     1      -2.492   4.847  25.109  0.00  0.00    +0.002 C 
ENDBRANCH   5  32
BRANCH   5   3
ATOM      3  C   UNL     1      -3.980   3.814  25.156  0.00  0.00    +0.337 C 
ATOM      4  O   UNL     1      -4.077   4.154  24.411  0.00  0.00    -0.248 OA
BRANCH   3   2
ATOM      1  C   UNL     1      -5.397   3.812  25.342  0.00  0.00    +0.256 C 
ATOM      2  O   UNL     1      -4.641   3.623  25.612  0.00  0.00    -0.443 OA
ENDBRANCH   3   2
ENDBRANCH   5   3
ENDBRANCH   6   5
ENDBRANCH   9   7
TORSDOF 8
ENDMDL
MODEL 4
REMARK VINA RESULT:      -8.8      2.054      4.303
REMARK  Name = 
REMARK  8 active torsions:
REMARK  status: ('A' for Active; 'I' for Inactive)
REMARK    1  A    between atoms: O_2  and  C_3
REMARK    2  A    between atoms: C_3  and  C_5
REMARK    3  A    between atoms: C_5  and  N_6
REMARK    4  A    between atoms: C_5  and  C_32
REMARK    5  A    between atoms: C_7  and  C_9
REMARK    6  A    between atoms: C_11  and  N_22
REMARK    7  A    between atoms: C_14  and  C_16
REMARK    8  A    between atoms: N_25  and  C_26
REMARK                            x       y       z     vdW  Elec       q    Type
REMARK                         _______ _______ _______ _____ _____    ______ ____
ROOT
ATOM      9  C   UNL     1      -2.478   0.707  24.927  0.00  0.00    +0.156 C 
ATOM     10  C   UNL     1      -1.658   0.787  24.917  0.00  0.00    +0.053 C 
ATOM     11  C   UNL     1      -1.330   0.032  24.855  0.00  0.00    +0.119 C 
ATOM     12  C   UNL     1      -1.948  -0.514  24.826  0.00  0.00    +0.116 C 
ATOM     13  N   UNL     1      -2.658  -0.096  24.870  0.00  0.00    -0.266 N 
ATOM     14  C   UNL     1      -3.414  -0.424  24.860  0.00  0.00    +0.265 C 
ATOM     15  O   UNL     1      -4.077   0.065  24.908  0.00  0.00    -0.268 OA
ENDROOT
BRANCH  14  16
ATOM     16  C   UNL     1      -3.509  -1.241  24.801  0.00  0.00    +0.114 A 
ATOM     17  C   UNL     1      -3.274  -1.799  25.363  0.00  0.00    +0.023 A 
ATOM     18  C   UNL     1      -3.475  -2.547  25.080  0.00  0.00    +0.020 A 
ATOM     19  C   UNL     1      -3.834  -2.453  24.343  0.00  0.00    +0.076 A 
ATOM     20  N   UNL     1      -3.855  -1.646  24.171  0.00  0.00    -0.320 N 
ATOM     21  C   UNL     1      -4.167  -1.304  23.488  0.00  0.00    +0.131 C 
ENDBRANCH  14  16
BRANCH  11  22
ATOM     22  N   UNL     1      -0.524  -0.146  24.827  0.00  0.00    -0.187 NA
ATOM     23  C   UNL     1      -0.104  -0.051  24.124  0.00  0.00    +0.339 C 
ATOM     24  O   UNL     1      -0.490   0.222  23.447  0.00  0.00    -0.249 OA
ATOM     25  N   UNL     1       0.700  -0.229  24.096  0.00  0.00    -0.189 NA
BRANCH  25  26
ATOM     26  C   UNL     1       1.120  -0.135  23.392  0.00  0.00    +0.097 C 
ATOM     27  C   UNL     1       0.923  -0.586  22.730  0.00  0.00    +0.022 C 
ATOM     28  C   UNL     1       1.343  -0.491  22.026  0.00  0.00    +0.002 C 
ATOM     29  C   UNL     1       1.960   0.055  21.984  0.00  0.00    +0.000 C 
ATOM     30  C   UNL     1       2.157   0.507  22.647  0.00  0.00    +0.002 C 
ATOM     31  C   UNL     1       1.737   0.411  23.350  0.00  0.00    +0.022 C 
ENDBRANCH  25  26
ENDBRANCH  11  22
BRANCH   9   7
ATOM      6  N   UNL     1      -2.884   2.035  24.589  0.00  0.00    -0.194 NA
ATOM      7  C   UNL     1      -3.025   1.324  24.982  0.00  0.00    +0.260 C 
ATOM      8  O   UNL     1      -3.710   1.228  25.431  0.00  0.00    -0.272 OA
BRANCH   6   5
ATOM      5  C   UNL     1      -3.430   2.652  24.645  0.00  0.00    +0.193 C 
BRANCH   5  32
ATOM     32  C   UNL     1      -3.994   2.758  24.053  0.00  0.00    +0.031 C 
ATOM     33  C   UNL     1      -4.798   2.742  24.241  0.00  0.00    +0.002 C 
ATOM     34  C   UNL     1      -3.756   2.880  23.273  0.00  0.00    +0.002 C 
ENDBRANCH   5  32
BRANCH   5   3
ATOM      3  C   UNL     1      -3.411   3.161  25.293  0.00  0.00    +0.337 C 
ATOM      4  O   UNL     1      -4.059   3.209  25.801  0.00  0.00    -0.248 OA
BRANCH   3   2
ATOM      1  C   UNL     1      -2.750   4.189  26.035  0.00  0.00    +0.256 C 
ATOM      2  O   UNL     1      -2.741   3.624  25.434  0.00  0.00    -0.443 OA
ENDBRANCH   3   2
ENDBRANCH   5   3
ENDBRANCH   6   5
ENDBRANCH   9   7
TORSDOF 8
ENDMDL
MODEL 5
REMARK VINA RESULT:      -8.7      1.791      4.443
REMARK  Name = 
REMARK  8 active torsions:
REMARK  status: ('A' for Active; 'I' for Inactive)
REMARK    1  A    between atoms: O_2  and  C_3
REMARK    2  A    between atoms: C_3  and  C_5
REMARK    3  A    between atoms: C_5  and  N_6
REMARK    4  A    between atoms: C_5  and  C_32
REMARK    5  A    between atoms: C_7  and  C_9
REMARK    6  A    between atoms: C_11  and  N_22
REMARK    7  A    between atoms: C_14  and  C_16
REMARK    8  A    between atoms: N_25  and  C_26
REMARK                            x       y       z     vdW  Elec       q    Type
REMARK                         _______ _______ _______ _____ _____    ______ ____
ROOT
ATOM      9  C   UNL     1      -1.992   0.338  24.378  0.00  0.00    +0.156 C 
ATOM     10  C   UNL     1      -2.552   0.910  24.180  0.00  0.00    +0.053 C 
ATOM     11  C   UNL     1      -3.296   0.553  24.197  0.00  0.00    +0.119 C 
ATOM     12  C   UNL     1      -3.195  -0.239  24.405  0.00  0.00    +0.116 C 
ATOM     13  N   UNL     1      -2.388  -0.371  24.517  0.00  0.00    -0.266 N 
ATOM     14  C   UNL     1      -2.040  -1.088  24.730  0.00  0.00    +0.265 C 
ATOM     15  O   UNL     1      -1.221  -1.137  24.823  0.00  0.00    -0.268 OA
ENDROOT
BRANCH  14  16
ATOM     16  C   UNL     1      -2.509  -1.756  24.851  0.00  0.00    +0.114 A 
ATOM     17  C   UNL     1      -3.156  -1.808  25.361  0.00  0.00    +0.023 A 
ATOM     18  C   UNL     1      -3.461  -2.572  25.309  0.00  0.00    +0.020 A 
ATOM     19  C   UNL     1      -3.003  -2.993  24.767  0.00  0.00    +0.076 A 
ATOM     20  N   UNL     1      -2.415  -2.488  24.484  0.00  0.00    -0.320 N 
ATOM     21  C   UNL     1      -1.834  -2.682  23.931  0.00  0.00    +0.131 C 
ENDBRANCH  14  16
BRANCH  11  22
ATOM     22  N   UNL     1      -4.015   0.923  24.033  0.00  0.00    -0.187 NA
ATOM     23  C   UNL     1      -4.325   1.474  24.562  0.00  0.00    +0.339 C 
ATOM     24  O   UNL     1      -3.915   1.657  25.255  0.00  0.00    -0.249 OA
ATOM     25  N   UNL     1      -5.044   1.844  24.399  0.00  0.00    -0.189 NA
BRANCH  25  26
ATOM     26  C   UNL     1      -5.354   2.396  24.928  0.00  0.00    +0.097 C 
ATOM     27  C   UNL     1      -5.903   2.159  25.497  0.00  0.00    +0.022 C 
ATOM     28  C   UNL     1      -6.213   2.712  26.027  0.00  0.00    +0.002 C 
ATOM     29  C   UNL     1      -5.974   3.500  25.986  0.00  0.00    +0.000 C 
ATOM     30  C   UNL     1      -5.425   3.737  25.417  0.00  0.00    +0.002 C 
ATOM     31  C   UNL     1      -5.116   3.185  24.889  0.00  0.00    +0.022 C 
ENDBRANCH  25  26
ENDBRANCH  11  22
BRANCH   9   7
ATOM      6  N   UNL     1      -0.772   0.813  23.804  0.00  0.00    -0.194 NA
ATOM      7  C   UNL     1      -1.176   0.456  24.429  0.00  0.00    +0.260 C 
ATOM      8  O   UNL     1      -0.766   0.218  25.104  0.00  0.00    -0.272 OA
BRANCH   6   5
ATOM      5  C   UNL     1       0.043   0.931  23.855  0.00  0.00    +0.193 C 
BRANCH   5  32
ATOM     32  C   UNL     1       0.341   1.602  24.233  0.00  0.00    +0.031 C 
ATOM     33  C   UNL     1       0.281   2.341  23.870  0.00  0.00    +0.002 C 
ATOM     34  C   UNL     1       0.697   1.534  24.974  0.00  0.00    +0.002 C 
ENDBRANCH   5  32
BRANCH   5   3
ATOM      3  C   UNL     1       0.561   0.378  23.527  0.00  0.00    +0.337 C 
ATOM      4  O   UNL     1       1.096  -0.023  24.010  0.00  0.00    -0.248 OA
BRANCH   3   2
ATOM      1  C   UNL     1       1.118  -0.254  22.373  0.00  0.00    +0.256 C 
ATOM      2  O   UNL     1       0.542   0.227  22.716  0.00  0.00    -0.443 OA
ENDBRANCH   3   2
ENDBRANCH   5   3
ENDBRANCH   6   5
ENDBRANCH   9   7
TORSDOF 8
ENDMDL
MODEL 6
REMARK VINA RESULT:      -8.6      1.928      4.113
REMARK  Name = 
REMARK  8 active torsions:
REMARK  status: ('A' for Active; 'I' for Inactive)
REMARK    1  A    between atoms: O_2  and  C_3
REMARK    2  A    between atoms: C_3  and  C_5
REMARK    3  A    between atoms: C_5  and  N_6
REMARK    4  A    between atoms: C_5  and  C_32
REMARK    5  A    between atoms: C_7  and  C_9
REMARK    6  A    between atoms: C_11  and  N_22
REMARK    7  A    between atoms: C_14  and  C_16
REMARK    8  A    between atoms: N_25  and  C_26
REMARK                            x       y       z     vdW  Elec       q    Type
REMARK                         _______ _______ _______ _____ _____    ______ ____
ROOT
ATOM      9  C   UNL     1      -1.648   1.206  24.465  0.00  0.00    +0.156 C 
ATOM     10  C   UNL     1      -2.436   1.115  24.237  0.00  0.00    +0.053 C 
ATOM     11  C   UNL     1      -2.777   1.866  24.198  0.00  0.00    +0.119 C 
ATOM     12  C   UNL     1      -2.200   2.419  24.402  0.00  0.00    +0.116 C 
ATOM     13  N   UNL     1      -1.502   2.011  24.567  0.00  0.00    -0.266 N 
ATOM     14  C   UNL     1      -0.785   2.349  24.793  0.00  0.00    +0.265 C 
ATOM     15  O   UNL     1      -0.130   1.868  24.941  0.00  0.00    -0.268 OA
ENDROOT
BRANCH  14  16
ATOM     16  C   UNL     1      -0.721   3.167  24.873  0.00  0.00    +0.114 A 
ATOM     17  C   UNL     1      -1.093   3.629  25.448  0.00  0.00    +0.023 A 
ATOM     18  C   UNL     1      -0.876   4.415  25.323  0.00  0.00    +0.020 A 
ATOM     19  C   UNL     1      -0.370   4.440  24.672  0.00  0.00    +0.076 A 
ATOM     20  N   UNL     1      -0.274   3.668  24.394  0.00  0.00    -0.320 N 
ATOM     21  C   UNL     1       0.187   3.439  23.750  0.00  0.00    +0.131 C 
ENDBRANCH  14  16
BRANCH  11  22
ATOM     22  N   UNL     1      -3.558   2.033  23.992  0.00  0.00    -0.187 NA
ATOM     23  C   UNL     1      -4.145   2.046  24.571  0.00  0.00    +0.339 C 
ATOM     24  O   UNL     1      -3.950   1.891  25.358  0.00  0.00    -0.249 OA
ATOM     25  N   UNL     1      -4.925   2.214  24.365  0.00  0.00    -0.189 NA
BRANCH  25  26
ATOM     26  C   UNL     1      -5.512   2.227  24.945  0.00  0.00    +0.097 C 
ATOM     27  C   UNL     1      -5.605   2.893  25.424  0.00  0.00    +0.022 C 
ATOM     28  C   UNL     1      -6.192   2.905  26.004  0.00  0.00    +0.002 C 
ATOM     29  C   UNL     1      -6.685   2.252  26.104  0.00  0.00    +0.000 C 
ATOM     30  C   UNL     1      -6.593   1.586  25.626  0.00  0.00    +0.002 C 
ATOM     31  C   UNL     1      -6.006   1.574  25.047  0.00  0.00    +0.022 C 
ENDBRANCH  25  26
ENDBRANCH  11  22
BRANCH   9   7
ATOM      6  N   UNL     1      -1.007   0.021  23.988  0.00  0.00    -0.194 NA
ATOM      7  C   UNL     1      -1.102   0.596  24.572  0.00  0.00    +0.260 C 
ATOM      8  O   UNL     1      -0.651   0.562  25.262  0.00  0.00    -0.272 OA
BRANCH   6   5
ATOM      5  C   UNL     1      -0.460  -0.589  24.095  0.00  0.00    +0.193 C 
BRANCH   5  32
ATOM     32  C   UNL     1      -0.667  -1.255  24.536  0.00  0.00    +0.031 C 
ATOM     33  C   UNL     1      -1.242  -1.775  24.253  0.00  0.00    +0.002 C 
ATOM     34  C   UNL     1      -0.298  -1.402  25.259  0.00  0.00    +0.002 C 
ENDBRANCH   5  32
BRANCH   5   3
ATOM      3  C   UNL     1       0.291  -0.531  23.761  0.00  0.00    +0.337 C 
ATOM      4  O   UNL     1       0.960  -0.693  24.217  0.00  0.00    -0.248 OA
BRANCH   3   2
ATOM      1  C   UNL     1       1.126  -0.263  22.632  0.00  0.00    +0.256 C 
ATOM      2  O   UNL     1       0.375  -0.311  22.969  0.00  0.00    -0.443 OA
ENDBRANCH   3   2
ENDBRANCH   5   3
ENDBRANCH   6   5
ENDBRANCH   9   7
TORSDOF 8
ENDMDL
MODEL 7
REMARK VINA RESULT:      -8.3      2.658      5.380
REMARK  Name = 
REMARK  8 active torsions:
REMARK  status: ('A' for Active; 'I' for Inactive)
REMARK    1  A    between atoms: O_2  and  C_3
REMARK    2  A    between atoms: C_3  and  C_5
REMARK    3  A    between atoms: C_5  and  N_6
REMARK    4  A    between atoms: C_5  and  C_32
REMARK    5  A    between atoms: C_7  and  C_9
REMARK    6  A    between atoms: C_11  and  N_22
REMARK    7  A    between atoms: C_14  and  C_16
REMARK    8  A    between atoms: N_25  and  C_26
REMARK                            x       y       z     vdW  Elec       q    Type
REMARK                         _______ _______ _______ _____ _____    ______ ____
ROOT
ATOM      9  C   UNL     1      -0.831   0.096  24.281  0.00  0.00    +0.156 C 
ATOM     10  C   UNL     1      -0.333  -0.262  23.730  0.00  0.00    +0.053 C 
ATOM     11  C   UNL     1       0.171   0.317  23.429  0.00  0.00    +0.119 C 
ATOM     12  C   UNL     1      -0.016   1.033  23.794  0.00  0.00    +0.116 C 
ATOM     13  N   UNL     1      -0.636   0.896  24.321  0.00  0.00    -0.266 N 
ATOM     14  C   UNL     1      -0.996   1.460  24.803  0.00  0.00    +0.265 C 
ATOM     15  O   UNL     1      -1.613   1.240  25.305  0.00  0.00    -0.268 OA
ENDROOT
BRANCH  14  16
ATOM     16  C   UNL     1      -0.740   2.244  24.783  0.00  0.00    +0.114 A 
ATOM     17  C   UNL     1      -0.802   2.758  24.140  0.00  0.00    +0.023 A 
ATOM     18  C   UNL     1      -0.478   3.483  24.362  0.00  0.00    +0.020 A 
ATOM     19  C   UNL     1      -0.215   3.418  25.141  0.00  0.00    +0.076 A 
ATOM     20  N   UNL     1      -0.377   2.652  25.402  0.00  0.00    -0.320 N 
ATOM     21  C   UNL     1      -0.207   2.347  26.149  0.00  0.00    +0.131 C 
ENDBRANCH  14  16
BRANCH  11  22
ATOM     22  N   UNL     1       0.759   0.201  22.861  0.00  0.00    -0.187 NA
ATOM     23  C   UNL     1       1.554   0.271  23.070  0.00  0.00    +0.339 C 
ATOM     24  O   UNL     1       1.761   0.457  23.848  0.00  0.00    -0.249 OA
ATOM     25  N   UNL     1       2.141   0.156  22.504  0.00  0.00    -0.189 NA
BRANCH  25  26
ATOM     26  C   UNL     1       2.936   0.226  22.713  0.00  0.00    +0.097 C 
ATOM     27  C   UNL     1       3.339  -0.422  23.027  0.00  0.00    +0.022 C 
ATOM     28  C   UNL     1       4.135  -0.351  23.236  0.00  0.00    +0.002 C 
ATOM     29  C   UNL     1       4.526   0.367  23.131  0.00  0.00    +0.000 C 
ATOM     30  C   UNL     1       4.124   1.015  22.817  0.00  0.00    +0.002 C 
ATOM     31  C   UNL     1       3.329   0.944  22.608  0.00  0.00    +0.022 C 
ENDBRANCH  25  26
ENDBRANCH  11  22
BRANCH   9   7
ATOM      6  N   UNL     1      -2.045  -0.657  24.327  0.00  0.00    -0.194 NA
ATOM      7  C   UNL     1      -1.423  -0.281  24.717  0.00  0.00    +0.260 C 
ATOM      8  O   UNL     1      -1.391  -0.282  25.541  0.00  0.00    -0.272 OA
BRANCH   6   5
ATOM      5  C   UNL     1      -2.636  -1.034  24.763  0.00  0.00    +0.193 C 
BRANCH   5  32
ATOM     32  C   UNL     1      -2.499  -1.782  25.084  0.00  0.00    +0.031 C 
ATOM     33  C   UNL     1      -2.319  -2.417  24.588  0.00  0.00    +0.002 C 
ATOM     34  C   UNL     1      -2.542  -1.896  25.900  0.00  0.00    +0.002 C 
ENDBRANCH   5  32
BRANCH   5   3
ATOM      3  C   UNL     1      -3.364  -0.663  24.877  0.00  0.00    +0.337 C 
ATOM      4  O   UNL     1      -3.654  -0.548  25.641  0.00  0.00    -0.248 OA
BRANCH   3   2
ATOM      1  C   UNL     1      -4.533  -0.040  24.340  0.00  0.00    +0.256 C 
ATOM      2  O   UNL     1      -3.802  -0.406  24.226  0.00  0.00    -0.443 OA
ENDBRANCH   3   2
ENDBRANCH   5   3
ENDBRANCH   6   5
ENDBRANCH   9   7
TORSDOF 8
ENDMDL
