MODEL 1
REMARK VINA RESULT:      -9.2      0.000      0.000
REMARK  Name = 
REMARK  10 active torsions:
REMARK  status: ('A' for Active; 'I' for Inactive)
REMARK    1  A    between atoms: C_2  and  C_4
REMARK    2  A    between atoms: C_6  and  C_7
REMARK    3  A    between atoms: C_7  and  C_8
REMARK    4  A    between atoms: N_10  and  C_11
REMARK    5  A    between atoms: C_11  and  C_12
REMARK    6  A    between atoms: C_12  and  N_13
REMARK    7  A    between atoms: C_22  and  C_23
REMARK    8  A    between atoms: C_23  and  N_24
REMARK    9  A    between atoms: C_25  and  C_27
REMARK   10  A    between atoms: C_30  and  C_33
REMARK                            x       y       z     vdW  Elec       q    Type
REMARK                         _______ _______ _______ _____ _____    ______ ____
ROOT
ATOM      4  C   UNL     1      -2.987  -1.070  24.668  0.00  0.00    +0.006 C 
ATOM      5  C   UNL     1      -2.197  -1.307  24.708  0.00  0.00    +0.005 C 
ATOM      6  C   UNL     1      -1.641  -0.827  25.082  0.00  0.00    +0.027 C 
ATOM     19  C   UNL     1      -1.874  -0.109  25.417  0.00  0.00    -0.048 C 
ATOM     20  C   UNL     1      -1.317   0.371  25.791  0.00  0.00    +0.026 C 
ATOM     21  C   UNL     1      -2.663   0.128  25.377  0.00  0.00    -0.033 C 
ATOM     22  C   UNL     1      -3.220  -0.353  25.002  0.00  0.00    +0.043 C 
ENDROOT
BRANCH   4   2
ATOM      1  C   UNL     1      -3.858  -2.202  24.689  0.00  0.00    +0.000 C 
ATOM      2  C   UNL     1      -3.543  -1.550  24.294  0.00  0.00    +0.000 C 
ATOM      3  C   UNL     1      -3.785  -1.378  23.524  0.00  0.00    +0.000 C 
ENDBRANCH   4   2
BRANCH   6   7
ATOM      7  C   UNL     1      -0.852  -1.064  25.123  0.00  0.00    +0.091 C 
BRANCH   7   8
ATOM      8  C   UNL     1      -0.404  -1.128  24.434  0.00  0.00    +0.242 C 
ATOM      9  O   UNL     1      -0.443  -1.814  23.979  0.00  0.00    -0.273 OA
ATOM     10  N   UNL     1       0.084  -0.505  24.199  0.00  0.00    -0.204 NA
BRANCH  10  11
ATOM     11  C   UNL     1       0.532  -0.569  23.510  0.00  0.00    +0.132 C 
BRANCH  11  12
ATOM     12  C   UNL     1       0.799   0.111  23.125  0.00  0.00    +0.096 C 
BRANCH  12  13
ATOM     13  N   UNL     1       1.533   0.112  22.750  0.00  0.00    -0.267 NA
ATOM     14  C   UNL     1       1.627  -0.269  22.025  0.00  0.00    +0.105 C 
ATOM     15  C   UNL     1       2.361  -0.268  21.650  0.00  0.00    +0.159 C 
ATOM     16  O   UNL     1       3.002   0.115  22.000  0.00  0.00    -0.351 OA
ATOM     17  C   UNL     1       2.909   0.497  22.725  0.00  0.00    +0.159 C 
ATOM     18  C   UNL     1       2.174   0.495  23.101  0.00  0.00    +0.105 C 
ENDBRANCH  12  13
ENDBRANCH  11  12
ENDBRANCH  10  11
ENDBRANCH   7   8
ENDBRANCH   6   7
BRANCH  22  23
ATOM     23  C   UNL     1      -4.009  -0.115  24.962  0.00  0.00    +0.120 C 
BRANCH  23  24
ATOM     24  N   UNL     1      -4.209   0.672  25.108  0.00  0.00    -0.201 NA
ATOM     25  C   UNL     1      -4.993   0.918  25.031  0.00  0.00    +0.265 C 
ATOM     26  O   UNL     1      -5.576   0.378  24.808  0.00  0.00    -0.268 OA
BRANCH  25  27
ATOM     27  C   UNL     1      -5.194   1.706  25.177  0.00  0.00    +0.055 A 
ATOM     28  C   UNL     1      -5.716   1.891  25.788  0.00  0.00    +0.005 A 
ATOM     29  C   UNL     1      -5.917   2.677  25.934  0.00  0.00    +0.010 A 
ATOM     30  C   UNL     1      -5.596   3.278  25.468  0.00  0.00    +0.068 A 
ATOM     31  C   UNL     1      -5.074   3.093  24.858  0.00  0.00    +0.010 A 
ATOM     32  C   UNL     1      -4.873   2.307  24.712  0.00  0.00    +0.005 A 
BRANCH  30  33
ATOM     33  C   UNL     1      -5.797   4.065  25.615  0.00  0.00    +0.100 C 
ATOM     34  N   UNL     1      -5.999   4.851  25.763  0.00  0.00    -0.191 NA
ENDBRANCH  30  33
ENDBRANCH  25  27
ENDBRANCH  23  24
ENDBRANCH  22  23
TORSDOF 10
ENDMDL
MODEL 2
REMARK VINA RESULT:      -8.2      1.785      7.192
REMARK  Name = 
REMARK  10 active torsions:
REMARK  status: ('A' for Active; 'I' for Inactive)
REMARK    1  A    between atoms: C_2  and  C_4
REMARK    2  A    between atoms: C_6  and  C_7
REMARK    3  A    between atoms: C_7  and  C_8
REMARK    4  A    between atoms: N_10  and  C_11
REMARK    5  A    between atoms: C_11  and  C_12
REMARK    6  A    between atoms: C_12  and  N_13
REMARK    7  A    between atoms: C_22  and  C_23
REMARK    8  A    between atoms: C_23  and  N_24
REMARK    9  A    between atoms: C_25  and  C_27
REMARK   10  A    between atoms: C_30  and  C_33
REMARK                            x       y       z     vdW  Elec       q    Type
REMARK                         _______ _______ _______ _____ _____    ______ ____
ROOT
ATOM      4  C   UNL     1      -0.311   0.365  24.146  0.00  0.00    +0.006 C 
ATOM      5  C   UNL     1      -0.805   0.816  24.629  0.00  0.00    +0.005 C 
ATOM      6  C   UNL     1      -0.658   1.621  24.731  0.00  0.00    +0.027 C 
ATOM     19  C   UNL     1      -0.018   1.975  24.351  0.00  0.00    -0.048 C 
ATOM     20  C   UNL     1       0.129   2.782  24.453  0.00  0.00    +0.026 C 
ATOM     21  C   UNL     1       0.476   1.525  23.868  0.00  0.00    -0.033 C 
ATOM     22  C   UNL     1       0.330   0.719  23.765  0.00  0.00    +0.043 C 
ENDROOT
BRANCH   4   2
ATOM      1  C   UNL     1      -0.879  -0.702  23.385  0.00  0.00    +0.000 C 
ATOM      2  C   UNL     1      -0.457  -0.440  24.043  0.00  0.00    +0.000 C 
ATOM      3  C   UNL     1      -0.181  -0.983  24.599  0.00  0.00    +0.000 C 
ENDBRANCH   4   2
BRANCH   6   7
ATOM      7  C   UNL     1      -1.152   2.073  25.214  0.00  0.00    +0.091 C 
BRANCH   7   8
ATOM      8  C   UNL     1      -1.950   1.880  25.284  0.00  0.00    +0.242 C 
ATOM      9  O   UNL     1      -2.179   1.226  25.732  0.00  0.00    -0.273 OA
ATOM     10  N   UNL     1      -2.521   2.341  24.907  0.00  0.00    -0.204 NA
BRANCH  10  11
ATOM     11  C   UNL     1      -3.320   2.148  24.976  0.00  0.00    +0.132 C 
BRANCH  11  12
ATOM     12  C   UNL     1      -3.895   2.651  24.665  0.00  0.00    +0.096 C 
BRANCH  12  13
ATOM     13  N   UNL     1      -4.674   2.603  24.932  0.00  0.00    -0.267 NA
ATOM     14  C   UNL     1      -4.977   3.187  25.430  0.00  0.00    +0.105 C 
ATOM     15  C   UNL     1      -5.756   3.138  25.697  0.00  0.00    +0.159 C 
ATOM     16  O   UNL     1      -6.232   2.506  25.465  0.00  0.00    -0.351 OA
ATOM     17  C   UNL     1      -5.930   1.922  24.967  0.00  0.00    +0.159 C 
ATOM     18  C   UNL     1      -5.150   1.971  24.700  0.00  0.00    +0.105 C 
ENDBRANCH  12  13
ENDBRANCH  11  12
ENDBRANCH  10  11
ENDBRANCH   7   8
ENDBRANCH   6   7
BRANCH  22  23
ATOM     23  C   UNL     1       0.824   0.269  23.282  0.00  0.00    +0.120 C 
BRANCH  23  24
ATOM     24  N   UNL     1       1.640   0.285  23.400  0.00  0.00    -0.201 NA
ATOM     25  C   UNL     1       2.150   0.092  22.780  0.00  0.00    +0.265 C 
ATOM     26  O   UNL     1       1.843  -0.117  22.043  0.00  0.00    -0.268 OA
BRANCH  25  27
ATOM     27  C   UNL     1       2.967   0.107  22.897  0.00  0.00    +0.055 A 
ATOM     28  C   UNL     1       3.349  -0.547  23.222  0.00  0.00    +0.005 A 
ATOM     29  C   UNL     1       4.165  -0.531  23.340  0.00  0.00    +0.010 A 
ATOM     30  C   UNL     1       4.599   0.139  23.132  0.00  0.00    +0.068 A 
ATOM     31  C   UNL     1       4.217   0.793  22.806  0.00  0.00    +0.010 A 
ATOM     32  C   UNL     1       3.401   0.778  22.689  0.00  0.00    +0.005 A 
BRANCH  30  33
ATOM     33  C   UNL     1       5.416   0.154  23.249  0.00  0.00    +0.100 C 
ATOM     34  N   UNL     1       6.232   0.168  23.367  0.00  0.00    -0.191 NA
ENDBRANCH  30  33
ENDBRANCH  25  27
ENDBRANCH  23  24
ENDBRANCH  22  23
TORSDOF 10
ENDMDL
MODEL 3
REMARK VINA RESULT:      -8.1      1.786      2.823
REMARK  Name = 
REMARK  10 active torsions:
REMARK  status: ('A' for Active; 'I' for Inactive)
REMARK    1  A    between atoms: C_2  and  C_4
REMARK    2  A    between atoms: C_6  and  C_7
REMARK    3  A    between atoms: C_7  and  C_8
REMARK    4  A    between atoms: N_10  and  C_11
REMARK    5  A    between atoms: C_11  and  C_12
REMARK    6  A    between atoms: C_12  and  N_13
REMARK    7  A    between atoms: C_22  and  C_23
REMARK    8  A    between atoms: C_23  and  N_24
REMARK    9  A    between atoms: C_25  and  C_27
REMARK   10  A    between atoms: C_30  and  C_33
REMARK                            x       y       z     vdW  Elec       q    Type
REMARK                         _______ _______ _______ _____ _____    ______ ____
ROOT
ATOM      4  C   UNL     1      -0.427   1.519  24.524  0.00  0.00    +0.006 C 
ATOM      5  C   UNL     1       0.093   0.952  24.227  0.00  0.00    +0.005 C 
ATOM      6  C   UNL     1      -0.186   0.204  24.021  0.00  0.00    +0.027 C 
ATOM     19  C   UNL     1      -0.986   0.023  24.111  0.00  0.00    -0.048 C 
ATOM     20  C   UNL     1      -1.265  -0.726  23.905  0.00  0.00    +0.026 C 
ATOM     21  C   UNL     1      -1.506   0.589  24.409  0.00  0.00    -0.033 C 
ATOM     22  C   UNL     1      -1.227   1.338  24.615  0.00  0.00    +0.043 C 
ENDROOT
BRANCH   4   2
ATOM      1  C   UNL     1      -0.167   2.881  24.180  0.00  0.00    +0.000 C 
ATOM      2  C   UNL     1      -0.148   2.267  24.731  0.00  0.00    +0.000 C 
ATOM      3  C   UNL     1       0.149   2.402  25.488  0.00  0.00    +0.000 C 
ENDBRANCH   4   2
BRANCH   6   7
ATOM      7  C   UNL     1       0.334  -0.364  23.723  0.00  0.00    +0.091 C 
BRANCH   7   8
ATOM      8  C   UNL     1       0.916  -0.147  23.182  0.00  0.00    +0.242 C 
ATOM      9  O   UNL     1       0.702   0.146  22.441  0.00  0.00    -0.273 OA
ATOM     10  N   UNL     1       1.714  -0.222  23.380  0.00  0.00    -0.204 NA
BRANCH  10  11
ATOM     11  C   UNL     1       2.296  -0.005  22.838  0.00  0.00    +0.132 C 
BRANCH  11  12
ATOM     12  C   UNL     1       3.003  -0.428  22.799  0.00  0.00    +0.096 C 
BRANCH  12  13
ATOM     13  N   UNL     1       3.721  -0.047  22.938  0.00  0.00    -0.267 NA
ATOM     14  C   UNL     1       4.314  -0.426  23.369  0.00  0.00    +0.105 C 
ATOM     15  C   UNL     1       5.032  -0.045  23.507  0.00  0.00    +0.159 C 
ATOM     16  O   UNL     1       5.157   0.716  23.215  0.00  0.00    -0.351 OA
ATOM     17  C   UNL     1       4.565   1.096  22.784  0.00  0.00    +0.159 C 
ATOM     18  C   UNL     1       3.847   0.714  22.646  0.00  0.00    +0.105 C 
ENDBRANCH  12  13
ENDBRANCH  11  12
ENDBRANCH  10  11
ENDBRANCH   7   8
ENDBRANCH   6   7
BRANCH  22  23
ATOM     23  C   UNL     1      -1.748   1.904  24.912  0.00  0.00    +0.120 C 
BRANCH  23  24
ATOM     24  N   UNL     1      -2.561   1.799  24.829  0.00  0.00    -0.201 NA
ATOM     25  C   UNL     1      -3.084   2.337  25.174  0.00  0.00    +0.265 C 
ATOM     26  O   UNL     1      -2.793   2.979  25.602  0.00  0.00    -0.268 OA
BRANCH  25  27
ATOM     27  C   UNL     1      -3.899   2.231  25.091  0.00  0.00    +0.055 A 
ATOM     28  C   UNL     1      -4.248   1.521  25.324  0.00  0.00    +0.005 A 
ATOM     29  C   UNL     1      -5.062   1.417  25.241  0.00  0.00    +0.010 A 
ATOM     30  C   UNL     1      -5.526   2.021  24.925  0.00  0.00    +0.068 A 
ATOM     31  C   UNL     1      -5.176   2.730  24.692  0.00  0.00    +0.010 A 
ATOM     32  C   UNL     1      -4.363   2.835  24.775  0.00  0.00    +0.005 A 
BRANCH  30  33
ATOM     33  C   UNL     1      -6.340   1.915  24.842  0.00  0.00    +0.100 C 
ATOM     34  N   UNL     1      -7.154   1.807  24.760  0.00  0.00    -0.191 NA
ENDBRANCH  30  33
ENDBRANCH  25  27
ENDBRANCH  23  24
ENDBRANCH  22  23
TORSDOF 10
ENDMDL
MODEL 4
REMARK VINA RESULT:      -8.1      1.463      2.307
REMARK  Name = 
REMARK  10 active torsions:
REMARK  status: ('A' for Active; 'I' for Inactive)
REMARK    1  A    between atoms: C_2  and  C_4
REMARK    2  A    between atoms: C_6  and  C_7
REMARK    3  A    between atoms: C_7  and  C_8
REMARK    4  A    between atoms: N_10  and  C_11
REMARK    5  A    between atoms: C_11  and  C_12
REMARK    6  A    between atoms: C_12  and  N_13
REMARK    7  A    between atoms: C_22  and  C_23
REMARK    8  A    between atoms: C_23  and  N_24
REMARK    9  A    between atoms: C_25  and  C_27
REMARK   10  A    between atoms: C_30  and  C_33
REMARK                            x       y       z     vdW  Elec       q    Type
REMARK                         _______ _______ _______ _____ _____    ______ ____
ROOT
ATOM      4  C   UNL     1      -1.022  -0.356  24.381  0.00  0.00    +0.006 C 
ATOM      5  C   UNL     1      -0.362  -0.295  23.890  0.00  0.00    +0.005 C 
ATOM      6  C   UNL     1      -0.285   0.346  23.378  0.00  0.00    +0.027 C 
ATOM     19  C   UNL     1      -0.869   0.929  23.357  0.00  0.00    -0.048 C 
ATOM     20  C   UNL     1      -0.792   1.572  22.845  0.00  0.00    +0.026 C 
ATOM     21  C   UNL     1      -1.529   0.870  23.848  0.00  0.00    -0.033 C 
ATOM     22  C   UNL     1      -1.606   0.227  24.360  0.00  0.00    +0.043 C 
ENDROOT
BRANCH   4   2
ATOM      1  C   UNL     1      -1.415  -1.708  24.619  0.00  0.00    +0.000 C 
ATOM      2  C   UNL     1      -1.098  -0.998  24.893  0.00  0.00    +0.000 C 
ATOM      3  C   UNL     1      -0.858  -0.929  25.679  0.00  0.00    +0.000 C 
ENDBRANCH   4   2
BRANCH   6   7
ATOM      7  C   UNL     1       0.375   0.407  22.887  0.00  0.00    +0.091 C 
BRANCH   7   8
ATOM      8  C   UNL     1       1.128   0.481  23.214  0.00  0.00    +0.242 C 
ATOM      9  O   UNL     1       1.239   0.933  23.895  0.00  0.00    -0.273 OA
ATOM     10  N   UNL     1       1.771   0.104  22.860  0.00  0.00    -0.204 NA
BRANCH  10  11
ATOM     11  C   UNL     1       2.524   0.179  23.188  0.00  0.00    +0.132 C 
BRANCH  11  12
ATOM     12  C   UNL     1       3.190  -0.015  22.741  0.00  0.00    +0.096 C 
BRANCH  12  13
ATOM     13  N   UNL     1       3.931  -0.060  23.100  0.00  0.00    -0.267 NA
ATOM     14  C   UNL     1       4.443   0.586  23.073  0.00  0.00    +0.105 C 
ATOM     15  C   UNL     1       5.184   0.541  23.433  0.00  0.00    +0.159 C 
ATOM     16  O   UNL     1       5.412  -0.150  23.821  0.00  0.00    -0.351 OA
ATOM     17  C   UNL     1       4.901  -0.796  23.849  0.00  0.00    +0.159 C 
ATOM     18  C   UNL     1       4.159  -0.751  23.489  0.00  0.00    +0.105 C 
ENDBRANCH  12  13
ENDBRANCH  11  12
ENDBRANCH  10  11
ENDBRANCH   7   8
ENDBRANCH   6   7
BRANCH  22  23
ATOM     23  C   UNL     1      -2.266   0.168  24.851  0.00  0.00    +0.120 C 
BRANCH  23  24
ATOM     24  N   UNL     1      -2.770   0.814  24.942  0.00  0.00    -0.201 NA
ATOM     25  C   UNL     1      -3.554   0.696  25.171  0.00  0.00    +0.265 C 
ATOM     26  O   UNL     1      -3.833  -0.068  25.310  0.00  0.00    -0.268 OA
BRANCH  25  27
ATOM     27  C   UNL     1      -4.060   1.343  25.262  0.00  0.00    +0.055 A 
ATOM     28  C   UNL     1      -3.748   2.090  25.420  0.00  0.00    +0.005 A 
ATOM     29  C   UNL     1      -4.253   2.736  25.511  0.00  0.00    +0.010 A 
ATOM     30  C   UNL     1      -5.069   2.634  25.444  0.00  0.00    +0.068 A 
ATOM     31  C   UNL     1      -5.380   1.887  25.286  0.00  0.00    +0.010 A 
ATOM     32  C   UNL     1      -4.876   1.242  25.195  0.00  0.00    +0.005 A 
BRANCH  30  33
ATOM     33  C   UNL     1      -5.573   3.281  25.535  0.00  0.00    +0.100 C 
ATOM     34  N   UNL     1      -6.076   3.929  25.625  0.00  0.00    -0.191 NA
ENDBRANCH  30  33
ENDBRANCH  25  27
ENDBRANCH  23  24
ENDBRANCH  22  23
TORSDOF 10
ENDMDL
MODEL 5
REMARK VINA RESULT:      -7.1     13.841     16.333
REMARK  Name = 
REMARK  10 active torsions:
REMARK  status: ('A' for Active; 'I' for Inactive)
REMARK    1  A    between atoms: C_2  and  C_4
REMARK    2  A    between atoms: C_6  and  C_7
REMARK    3  A    between atoms: C_7  and  C_8
REMARK    4  A    between atoms: N_10  and  C_11
REMARK    5  A    between atoms: C_11  and  C_12
REMARK    6  A    between atoms: C_12  and  N_13
REMARK    7  A    between atoms: C_22  and  C_23
REMARK    8  A    between atoms: C_23  and  N_24
REMARK    9  A    between atoms: C_25  and  C_27
REMARK   10  A    between atoms: C_30  and  C_33
REMARK                            x       y       z     vdW  Elec       q    Type
REMARK                         _______ _______ _______ _____ _____    ______ ____
ROOT
ATOM      4  C   UNL     1      -6.013 -10.129  13.509  0.00  0.00    +0.006 C 
ATOM      5  C   UNL     1      -6.293 -10.105  14.285  0.00  0.00    +0.005 C 
ATOM      6  C   UNL     1      -5.784 -10.266  14.913  0.00  0.00    +0.027 C 
ATOM     19  C   UNL     1      -4.994 -10.451  14.766  0.00  0.00    -0.048 C 
ATOM     20  C   UNL     1      -4.484 -10.612  15.395  0.00  0.00    +0.026 C 
ATOM     21  C   UNL     1      -4.712 -10.474  13.991  0.00  0.00    -0.033 C 
ATOM     22  C   UNL     1      -5.222 -10.313  13.362  0.00  0.00    +0.043 C 
ENDROOT
BRANCH   4   2
ATOM      1  C   UNL     1      -6.935 -10.581  12.517  0.00  0.00    +0.000 C 
ATOM      2  C   UNL     1      -6.522  -9.968  12.881  0.00  0.00    +0.000 C 
ATOM      3  C   UNL     1      -6.618  -9.192  12.616  0.00  0.00    +0.000 C 
ENDBRANCH   4   2
BRANCH   6   7
ATOM      7  C   UNL     1      -6.065 -10.243  15.689  0.00  0.00    +0.091 C 
BRANCH   7   8
ATOM      8  C   UNL     1      -6.873 -10.173  15.833  0.00  0.00    +0.242 C 
ATOM      9  O   UNL     1      -7.388 -10.774  15.600  0.00  0.00    -0.273 OA
ATOM     10  N   UNL     1      -7.169  -9.502  16.212  0.00  0.00    -0.204 NA
BRANCH  10  11
ATOM     11  C   UNL     1      -7.977  -9.431  16.357  0.00  0.00    +0.132 C 
BRANCH  11  12
ATOM     12  C   UNL     1      -8.251  -8.896  16.922  0.00  0.00    +0.096 C 
BRANCH  12  13
ATOM     13  N   UNL     1      -9.060  -8.766  17.010  0.00  0.00    -0.267 NA
ATOM     14  C   UNL     1      -9.486  -9.179  17.584  0.00  0.00    +0.105 C 
ATOM     15  C   UNL     1     -10.295  -9.049  17.672  0.00  0.00    +0.159 C 
ATOM     16  O   UNL     1     -10.680  -8.506  17.185  0.00  0.00    -0.351 OA
ATOM     17  C   UNL     1     -10.256  -8.092  16.611  0.00  0.00    +0.159 C 
ATOM     18  C   UNL     1      -9.446  -8.222  16.524  0.00  0.00    +0.105 C 
ENDBRANCH  12  13
ENDBRANCH  11  12
ENDBRANCH  10  11
ENDBRANCH   7   8
ENDBRANCH   6   7
BRANCH  22  23
ATOM     23  C   UNL     1      -4.941 -10.337  12.587  0.00  0.00    +0.120 C 
BRANCH  23  24
ATOM     24  N   UNL     1      -4.181 -10.063  12.417  0.00  0.00    -0.201 NA
ATOM     25  C   UNL     1      -3.812 -10.284  11.713  0.00  0.00    +0.265 C 
ATOM     26  O   UNL     1      -4.201 -10.779  11.180  0.00  0.00    -0.268 OA
BRANCH  25  27
ATOM     27  C   UNL     1      -3.052 -10.010  11.542  0.00  0.00    +0.055 A 
ATOM     28  C   UNL     1      -2.408 -10.281  11.981  0.00  0.00    +0.005 A 
ATOM     29  C   UNL     1      -1.649 -10.007  11.810  0.00  0.00    +0.010 A 
ATOM     30  C   UNL     1      -1.534  -9.463  11.201  0.00  0.00    +0.068 A 
ATOM     31  C   UNL     1      -2.178  -9.193  10.763  0.00  0.00    +0.010 A 
ATOM     32  C   UNL     1      -2.936  -9.466  10.933  0.00  0.00    +0.005 A 
BRANCH  30  33
ATOM     33  C   UNL     1      -0.774  -9.190  11.031  0.00  0.00    +0.100 C 
ATOM     34  N   UNL     1      -0.014  -8.916  10.862  0.00  0.00    -0.191 NA
ENDBRANCH  30  33
ENDBRANCH  25  27
ENDBRANCH  23  24
ENDBRANCH  22  23
TORSDOF 10
ENDMDL
