REMARK  Name = 
REMARK  10 active torsions:
REMARK  status: ('A' for Active; 'I' for Inactive)
REMARK    1  A    between atoms: O_2  and  C_3
REMARK    2  A    between atoms: C_5  and  N_6
REMARK    3  A    between atoms: N_9  and  C_10
REMARK    4  A    between atoms: C_14  and  C_15
REMARK    5  A    between atoms: N_17  and  C_18
REMARK    6  A    between atoms: C_18  and  C_19
REMARK    7  A    between atoms: C_18  and  C_26
REMARK    8  A    between atoms: C_19  and  C_20
REMARK    9  A    between atoms: C_29  and  C_31
REMARK   10  A    between atoms: C_31  and  S_32
REMARK                            x       y       z     vdW  Elec       q    Type
REMARK                         _______ _______ _______ _____ _____    ______ ____
ROOT
ATOM     10  C   UNL     1       0.628  -4.533   0.000  0.00  0.00    +0.126 C 
ATOM     11  C   UNL     1      -0.179  -4.705   0.000  0.00  0.00    +0.045 C 
ATOM     12  C   UNL     1      -0.591  -3.990   0.000  0.00  0.00    +0.096 C 
ATOM     13  N   UNL     1      -0.039  -3.377   0.000  0.00  0.00    -0.271 N 
ATOM     14  C   UNL     1       0.715  -3.712   0.000  0.00  0.00    +0.174 C 
ATOM     29  C   UNL     1      -0.211  -2.570   0.000  0.00  0.00    +0.237 C 
ATOM     30  O   UNL     1       0.402  -2.018   0.000  0.00  0.00    -0.274 OA
ENDROOT
BRANCH  10   9
ATOM      6  N   UNL     1       1.683  -6.444   0.000  0.00  0.00    -0.161 NA
ATOM      7  C   UNL     1       1.070  -5.892   0.000  0.00  0.00    +0.344 C 
ATOM      8  O   UNL     1       0.285  -6.147   0.000  0.00  0.00    -0.249 OA
ATOM      9  N   UNL     1       1.241  -5.085   0.000  0.00  0.00    -0.186 NA
BRANCH   6   5
ATOM      3  C   UNL     1       0.555  -8.313   0.000  0.00  0.00    +0.140 A 
ATOM      4  C   UNL     1       0.727  -7.506   0.000  0.00  0.00    +0.054 A 
ATOM      5  C   UNL     1       1.511  -7.251   0.000  0.00  0.00    +0.078 A 
ATOM     34  C   UNL     1       2.124  -7.803   0.000  0.00  0.00    +0.017 A 
ATOM     35  C   UNL     1       1.953  -8.610   0.000  0.00  0.00    +0.004 A 
ATOM     36  C   UNL     1       1.168  -8.865   0.000  0.00  0.00    +0.037 A 
BRANCH   3   2
ATOM      1  C   UNL     1      -0.401  -9.375   0.000  0.00  0.00    +0.252 C 
ATOM      2  O   UNL     1      -0.229  -8.568   0.000  0.00  0.00    -0.471 OA
ENDBRANCH   3   2
ENDBRANCH   6   5
ENDBRANCH  10   9
BRANCH  14  15
ATOM     15  C   UNL     1       1.429  -3.300   0.000  0.00  0.00    +0.262 C 
ATOM     16  O   UNL     1       2.143  -3.712   0.000  0.00  0.00    -0.271 OA
ATOM     17  N   UNL     1       1.429  -2.475   0.000  0.00  0.00    -0.196 NA
BRANCH  17  18
ATOM     18  C   UNL     1       2.143  -2.062   0.000  0.00  0.00    +0.179 C 
BRANCH  18  26
ATOM     26  C   UNL     1       2.858  -2.475   0.000  0.00  0.00    +0.281 C 
ATOM     27  N   UNL     1       3.572  -2.062   0.000  0.00  0.00    -0.086 NA
ATOM     28  O   UNL     1       2.858  -3.300   0.000  0.00  0.00    -0.270 OA
ENDBRANCH  18  26
BRANCH  18  19
ATOM     19  C   UNL     1       2.143  -1.238   0.000  0.00  0.00    +0.057 C 
BRANCH  19  20
ATOM     20  C   UNL     1       2.858  -0.825   0.000  0.00  0.00    -0.020 A 
ATOM     21  C   UNL     1       2.858   0.000   0.000  0.00  0.00    -0.004 A 
ATOM     22  C   UNL     1       3.572   0.412   0.000  0.00  0.00    -0.000 A 
ATOM     23  C   UNL     1       4.287   0.000   0.000  0.00  0.00    -0.000 A 
ATOM     24  C   UNL     1       4.287  -0.825   0.000  0.00  0.00    -0.000 A 
ATOM     25  C   UNL     1       3.572  -1.238   0.000  0.00  0.00    -0.004 A 
ENDBRANCH  19  20
ENDBRANCH  18  19
ENDBRANCH  17  18
ENDBRANCH  14  15
BRANCH  29  31
ATOM     31  C   UNL     1      -0.995  -2.315   0.000  0.00  0.00    +0.143 C 
BRANCH  31  32
ATOM     32  S   UNL     1      -1.608  -2.867   0.000  0.00  0.00    -0.130 S 
ATOM     33  C   UNL     1      -2.393  -2.612   0.000  0.00  0.00    +0.070 C 
ENDBRANCH  31  32
ENDBRANCH  29  31
TORSDOF 10
