MODEL 1
REMARK VINA RESULT:      -8.9      0.000      0.000
REMARK  Name = 
REMARK  9 active torsions:
REMARK  status: ('A' for Active; 'I' for Inactive)
REMARK    1  A    between atoms: O_2  and  C_3
REMARK    2  A    between atoms: C_3  and  C_4
REMARK    3  A    between atoms: C_4  and  O_5
REMARK    4  A    between atoms: O_5  and  C_6
REMARK    5  A    between atoms: C_9  and  C_12
REMARK    6  A    between atoms: C_15  and  C_17
REMARK    7  A    between atoms: N_21  and  C_22
REMARK    8  A    between atoms: C_22  and  C_23
REMARK    9  A    between atoms: C_26  and  C_29
REMARK                            x       y       z     vdW  Elec       q    Type
REMARK                         _______ _______ _______ _____ _____    ______ ____
ROOT
ATOM     12  C   UNL     1      -0.943   0.029  24.537  0.00  0.00    +0.205 A 
ATOM     13  N   UNL     1      -0.959   0.040  25.362  0.00  0.00    -0.056 NA
ATOM     14  O   UNL     1      -1.747  -0.005  25.602  0.00  0.00    -0.336 OA
ATOM     15  C   UNL     1      -2.218  -0.046  24.926  0.00  0.00    +0.251 A 
ATOM     16  N   UNL     1      -1.721  -0.024  24.268  0.00  0.00    -0.190 NA
ENDROOT
BRANCH  12   9
ATOM      6  C   UNL     1       1.083   0.134  23.120  0.00  0.00    +0.225 A 
ATOM      7  C   UNL     1       0.722   0.831  23.377  0.00  0.00    +0.058 A 
ATOM      8  C   UNL     1       0.047   0.796  23.849  0.00  0.00    +0.010 A 
ATOM      9  C   UNL     1      -0.268   0.064  24.065  0.00  0.00    +0.058 A 
ATOM     10  C   UNL     1       0.093  -0.632  23.809  0.00  0.00    +0.105 A 
ATOM     11  N   UNL     1       0.768  -0.597  23.336  0.00  0.00    -0.210 NA
BRANCH   6   5
ATOM      5  O   UNL     1       1.759   0.169  22.648  0.00  0.00    -0.457 OA
BRANCH   5   4
ATOM      4  C   UNL     1       2.467   0.453  22.961  0.00  0.00    +0.239 C 
BRANCH   4   3
ATOM      3  C   UNL     1       3.171   0.357  22.543  0.00  0.00    +0.189 C 
BRANCH   3   2
ATOM      1  C   UNL     1       4.557   0.449  22.880  0.00  0.00    +0.174 C 
ATOM      2  O   UNL     1       3.831   0.813  22.735  0.00  0.00    -0.347 OA
ENDBRANCH   3   2
ENDBRANCH   4   3
ENDBRANCH   5   4
ENDBRANCH   6   5
ENDBRANCH  12   9
BRANCH  15  17
ATOM     17  C   UNL     1      -3.041  -0.098  24.910  0.00  0.00    +0.138 C 
ATOM     18  C   UNL     1      -3.486  -0.785  25.016  0.00  0.00    +0.027 C 
ATOM     19  C   UNL     1      -4.284  -0.584  24.957  0.00  0.00    +0.019 C 
ATOM     20  C   UNL     1      -4.333   0.227  24.815  0.00  0.00    +0.073 C 
ATOM     21  N   UNL     1      -3.565   0.528  24.786  0.00  0.00    -0.263 NA
BRANCH  21  22
ATOM     22  C   UNL     1      -3.357   1.316  24.657  0.00  0.00    +0.099 C 
BRANCH  22  23
ATOM     23  C   UNL     1      -3.882   1.919  24.857  0.00  0.00    -0.006 A 
ATOM     24  C   UNL     1      -3.768   2.351  25.551  0.00  0.00    -0.002 A 
ATOM     25  C   UNL     1      -4.293   2.955  25.752  0.00  0.00    +0.010 A 
ATOM     26  C   UNL     1      -4.932   3.127  25.260  0.00  0.00    +0.068 A 
ATOM     27  C   UNL     1      -5.046   2.695  24.566  0.00  0.00    +0.010 A 
ATOM     28  C   UNL     1      -4.521   2.091  24.365  0.00  0.00    -0.002 A 
BRANCH  26  29
ATOM     29  C   UNL     1      -5.457   3.731  25.460  0.00  0.00    +0.100 C 
ATOM     30  N   UNL     1      -5.982   4.334  25.661  0.00  0.00    -0.191 NA
ENDBRANCH  26  29
ENDBRANCH  22  23
ENDBRANCH  21  22
ENDBRANCH  15  17
TORSDOF 9
ENDMDL
MODEL 2
REMARK VINA RESULT:      -8.2      2.301      3.856
REMARK  Name = 
REMARK  9 active torsions:
REMARK  status: ('A' for Active; 'I' for Inactive)
REMARK    1  A    between atoms: O_2  and  C_3
REMARK    2  A    between atoms: C_3  and  C_4
REMARK    3  A    between atoms: C_4  and  O_5
REMARK    4  A    between atoms: O_5  and  C_6
REMARK    5  A    between atoms: C_9  and  C_12
REMARK    6  A    between atoms: C_15  and  C_17
REMARK    7  A    between atoms: N_21  and  C_22
REMARK    8  A    between atoms: C_22  and  C_23
REMARK    9  A    between atoms: C_26  and  C_29
REMARK                            x       y       z     vdW  Elec       q    Type
REMARK                         _______ _______ _______ _____ _____    ______ ____
ROOT
ATOM     12  C   UNL     1      -0.345   1.603  25.077  0.00  0.00    +0.205 A 
ATOM     13  N   UNL     1       0.362   1.915  25.366  0.00  0.00    -0.056 NA
ATOM     14  O   UNL     1       0.281   2.736  25.404  0.00  0.00    -0.336 OA
ATOM     15  C   UNL     1      -0.475   2.930  25.139  0.00  0.00    +0.251 A 
ATOM     16  N   UNL     1      -0.862   2.230  24.936  0.00  0.00    -0.190 NA
ENDROOT
BRANCH  12   9
ATOM      6  C   UNL     1      -0.828  -0.795  24.697  0.00  0.00    +0.225 A 
ATOM      7  C   UNL     1      -0.981  -0.454  25.434  0.00  0.00    +0.058 A 
ATOM      8  C   UNL     1      -0.820   0.345  25.560  0.00  0.00    +0.010 A 
ATOM      9  C   UNL     1      -0.506   0.804  24.950  0.00  0.00    +0.058 A 
ATOM     10  C   UNL     1      -0.354   0.464  24.215  0.00  0.00    +0.105 A 
ATOM     11  N   UNL     1      -0.515  -0.335  24.088  0.00  0.00    -0.210 NA
BRANCH   6   5
ATOM      5  O   UNL     1      -0.989  -1.594  24.571  0.00  0.00    -0.457 OA
BRANCH   5   4
ATOM      4  C   UNL     1      -1.729  -1.901  24.766  0.00  0.00    +0.239 C 
BRANCH   4   3
ATOM      3  C   UNL     1      -2.026  -2.553  24.356  0.00  0.00    +0.189 C 
BRANCH   3   2
ATOM      1  C   UNL     1      -3.416  -2.879  24.277  0.00  0.00    +0.174 C 
ATOM      2  O   UNL     1      -2.683  -2.959  24.648  0.00  0.00    -0.347 OA
ENDBRANCH   3   2
ENDBRANCH   4   3
ENDBRANCH   5   4
ENDBRANCH   6   5
ENDBRANCH  12   9
BRANCH  15  17
ATOM     17  C   UNL     1      -0.790   3.691  25.085  0.00  0.00    +0.138 C 
ATOM     18  C   UNL     1      -0.440   4.334  24.704  0.00  0.00    +0.027 C 
ATOM     19  C   UNL     1      -0.944   4.983  24.786  0.00  0.00    +0.019 C 
ATOM     20  C   UNL     1      -1.604   4.741  25.217  0.00  0.00    +0.073 C 
ATOM     21  N   UNL     1      -1.509   3.942  25.402  0.00  0.00    -0.263 NA
BRANCH  21  22
ATOM     22  C   UNL     1      -2.040   3.477  25.828  0.00  0.00    +0.099 C 
BRANCH  22  23
ATOM     23  C   UNL     1      -2.850   3.623  25.777  0.00  0.00    -0.006 A 
ATOM     24  C   UNL     1      -3.224   4.080  26.353  0.00  0.00    -0.002 A 
ATOM     25  C   UNL     1      -4.034   4.226  26.302  0.00  0.00    +0.010 A 
ATOM     26  C   UNL     1      -4.471   3.915  25.675  0.00  0.00    +0.068 A 
ATOM     27  C   UNL     1      -4.097   3.457  25.099  0.00  0.00    +0.010 A 
ATOM     28  C   UNL     1      -3.286   3.311  25.150  0.00  0.00    -0.002 A 
BRANCH  26  29
ATOM     29  C   UNL     1      -5.282   4.061  25.624  0.00  0.00    +0.100 C 
ATOM     30  N   UNL     1      -6.091   4.207  25.572  0.00  0.00    -0.191 NA
ENDBRANCH  26  29
ENDBRANCH  22  23
ENDBRANCH  21  22
ENDBRANCH  15  17
TORSDOF 9
ENDMDL
MODEL 3
REMARK VINA RESULT:      -7.8      1.377      2.028
REMARK  Name = 
REMARK  9 active torsions:
REMARK  status: ('A' for Active; 'I' for Inactive)
REMARK    1  A    between atoms: O_2  and  C_3
REMARK    2  A    between atoms: C_3  and  C_4
REMARK    3  A    between atoms: C_4  and  O_5
REMARK    4  A    between atoms: O_5  and  C_6
REMARK    5  A    between atoms: C_9  and  C_12
REMARK    6  A    between atoms: C_15  and  C_17
REMARK    7  A    between atoms: N_21  and  C_22
REMARK    8  A    between atoms: C_22  and  C_23
REMARK    9  A    between atoms: C_26  and  C_29
REMARK                            x       y       z     vdW  Elec       q    Type
REMARK                         _______ _______ _______ _____ _____    ______ ____
ROOT
ATOM     12  C   UNL     1      -0.193   1.192  24.530  0.00  0.00    +0.205 A 
ATOM     13  N   UNL     1      -0.577   0.713  25.082  0.00  0.00    -0.056 NA
ATOM     14  O   UNL     1      -1.179   1.158  25.430  0.00  0.00    -0.336 OA
ATOM     15  C   UNL     1      -1.167   1.911  25.093  0.00  0.00    +0.251 A 
ATOM     16  N   UNL     1      -0.557   1.932  24.537  0.00  0.00    -0.190 NA
ENDROOT
BRANCH  12   9
ATOM      6  C   UNL     1       1.717   0.523  23.106  0.00  0.00    +0.225 A 
ATOM      7  C   UNL     1       1.052   0.037  23.160  0.00  0.00    +0.058 A 
ATOM      8  C   UNL     1       0.415   0.260  23.635  0.00  0.00    +0.010 A 
ATOM      9  C   UNL     1       0.444   0.969  24.056  0.00  0.00    +0.058 A 
ATOM     10  C   UNL     1       1.108   1.454  24.002  0.00  0.00    +0.105 A 
ATOM     11  N   UNL     1       1.744   1.232  23.527  0.00  0.00    -0.210 NA
BRANCH   6   5
ATOM      5  O   UNL     1       2.354   0.300  22.631  0.00  0.00    -0.457 OA
BRANCH   5   4
ATOM      4  C   UNL     1       3.096   0.639  22.751  0.00  0.00    +0.239 C 
BRANCH   4   3
ATOM      3  C   UNL     1       3.778   0.204  22.591  0.00  0.00    +0.189 C 
BRANCH   3   2
ATOM      1  C   UNL     1       5.113   0.143  23.100  0.00  0.00    +0.174 C 
ATOM      2  O   UNL     1       4.522   0.549  22.693  0.00  0.00    -0.347 OA
ENDBRANCH   3   2
ENDBRANCH   4   3
ENDBRANCH   5   4
ENDBRANCH   6   5
ENDBRANCH  12   9
BRANCH  15  17
ATOM     17  C   UNL     1      -1.675   2.534  25.279  0.00  0.00    +0.138 C 
ATOM     18  C   UNL     1      -1.482   3.198  25.730  0.00  0.00    +0.027 C 
ATOM     19  C   UNL     1      -2.153   3.677  25.777  0.00  0.00    +0.019 C 
ATOM     20  C   UNL     1      -2.759   3.310  25.354  0.00  0.00    +0.073 C 
ATOM     21  N   UNL     1      -2.463   2.603  25.047  0.00  0.00    -0.263 NA
BRANCH  21  22
ATOM     22  C   UNL     1      -2.883   2.062  24.588  0.00  0.00    +0.099 C 
BRANCH  22  23
ATOM     23  C   UNL     1      -3.702   2.007  24.660  0.00  0.00    -0.006 A 
ATOM     24  C   UNL     1      -4.188   2.544  24.265  0.00  0.00    -0.002 A 
ATOM     25  C   UNL     1      -5.008   2.489  24.337  0.00  0.00    +0.010 A 
ATOM     26  C   UNL     1      -5.342   1.898  24.805  0.00  0.00    +0.068 A 
ATOM     27  C   UNL     1      -4.857   1.360  25.200  0.00  0.00    +0.010 A 
ATOM     28  C   UNL     1      -4.037   1.415  25.127  0.00  0.00    -0.002 A 
BRANCH  26  29
ATOM     29  C   UNL     1      -6.163   1.843  24.877  0.00  0.00    +0.100 C 
ATOM     30  N   UNL     1      -6.982   1.788  24.950  0.00  0.00    -0.191 NA
ENDBRANCH  26  29
ENDBRANCH  22  23
ENDBRANCH  21  22
ENDBRANCH  15  17
TORSDOF 9
ENDMDL
MODEL 4
REMARK VINA RESULT:      -7.6      2.925      4.285
REMARK  Name = 
REMARK  9 active torsions:
REMARK  status: ('A' for Active; 'I' for Inactive)
REMARK    1  A    between atoms: O_2  and  C_3
REMARK    2  A    between atoms: C_3  and  C_4
REMARK    3  A    between atoms: C_4  and  O_5
REMARK    4  A    between atoms: O_5  and  C_6
REMARK    5  A    between atoms: C_9  and  C_12
REMARK    6  A    between atoms: C_15  and  C_17
REMARK    7  A    between atoms: N_21  and  C_22
REMARK    8  A    between atoms: C_22  and  C_23
REMARK    9  A    between atoms: C_26  and  C_29
REMARK                            x       y       z     vdW  Elec       q    Type
REMARK                         _______ _______ _______ _____ _____    ______ ____
ROOT
ATOM     12  C   UNL     1      -2.035   2.475  25.119  0.00  0.00    +0.205 A 
ATOM     13  N   UNL     1      -2.250   2.879  24.431  0.00  0.00    -0.056 NA
ATOM     14  O   UNL     1      -3.011   2.639  24.222  0.00  0.00    -0.336 OA
ATOM     15  C   UNL     1      -3.267   2.088  24.779  0.00  0.00    +0.251 A 
ATOM     16  N   UNL     1      -2.664   1.986  25.333  0.00  0.00    -0.190 NA
ENDROOT
BRANCH  12   9
ATOM      6  C   UNL     1       0.116   2.693  26.322  0.00  0.00    +0.225 A 
ATOM      7  C   UNL     1      -0.138   1.952  26.062  0.00  0.00    +0.058 A 
ATOM      8  C   UNL     1      -0.855   1.880  25.661  0.00  0.00    +0.010 A 
ATOM      9  C   UNL     1      -1.318   2.548  25.520  0.00  0.00    +0.058 A 
ATOM     10  C   UNL     1      -1.065   3.288  25.779  0.00  0.00    +0.105 A 
ATOM     11  N   UNL     1      -0.347   3.361  26.181  0.00  0.00    -0.210 NA
BRANCH   6   5
ATOM      5  O   UNL     1       0.833   2.766  26.723  0.00  0.00    -0.457 OA
BRANCH   5   4
ATOM      4  C   UNL     1       0.865   2.641  27.537  0.00  0.00    +0.239 C 
BRANCH   4   3
ATOM      3  C   UNL     1       1.582   2.715  27.939  0.00  0.00    +0.189 C 
BRANCH   3   2
ATOM      1  C   UNL     1       2.328   2.650  29.157  0.00  0.00    +0.174 C 
ATOM      2  O   UNL     1       1.604   2.643  28.761  0.00  0.00    -0.347 OA
ENDBRANCH   3   2
ENDBRANCH   4   3
ENDBRANCH   5   4
ENDBRANCH   6   5
ENDBRANCH  12   9
BRANCH  15  17
ATOM     17  C   UNL     1      -3.997   1.705  24.783  0.00  0.00    +0.138 C 
ATOM     18  C   UNL     1      -4.698   1.999  25.105  0.00  0.00    +0.027 C 
ATOM     19  C   UNL     1      -5.290   1.436  24.986  0.00  0.00    +0.019 C 
ATOM     20  C   UNL     1      -4.955   0.794  24.590  0.00  0.00    +0.073 C 
ATOM     21  N   UNL     1      -4.156   0.960  24.465  0.00  0.00    -0.263 NA
BRANCH  21  22
ATOM     22  C   UNL     1      -3.613   0.468  24.087  0.00  0.00    +0.099 C 
BRANCH  22  23
ATOM     23  C   UNL     1      -3.660  -0.350  24.184  0.00  0.00    -0.006 A 
ATOM     24  C   UNL     1      -4.090  -0.805  23.646  0.00  0.00    -0.002 A 
ATOM     25  C   UNL     1      -4.137  -1.622  23.743  0.00  0.00    +0.010 A 
ATOM     26  C   UNL     1      -3.754  -1.986  24.377  0.00  0.00    +0.068 A 
ATOM     27  C   UNL     1      -3.324  -1.531  24.915  0.00  0.00    +0.010 A 
ATOM     28  C   UNL     1      -3.277  -0.713  24.818  0.00  0.00    -0.002 A 
BRANCH  26  29
ATOM     29  C   UNL     1      -3.801  -2.804  24.474  0.00  0.00    +0.100 C 
ATOM     30  N   UNL     1      -3.847  -3.622  24.571  0.00  0.00    -0.191 NA
ENDBRANCH  26  29
ENDBRANCH  22  23
ENDBRANCH  21  22
ENDBRANCH  15  17
TORSDOF 9
ENDMDL
MODEL 5
REMARK VINA RESULT:      -7.4      2.933      4.318
REMARK  Name = 
REMARK  9 active torsions:
REMARK  status: ('A' for Active; 'I' for Inactive)
REMARK    1  A    between atoms: O_2  and  C_3
REMARK    2  A    between atoms: C_3  and  C_4
REMARK    3  A    between atoms: C_4  and  O_5
REMARK    4  A    between atoms: O_5  and  C_6
REMARK    5  A    between atoms: C_9  and  C_12
REMARK    6  A    between atoms: C_15  and  C_17
REMARK    7  A    between atoms: N_21  and  C_22
REMARK    8  A    between atoms: C_22  and  C_23
REMARK    9  A    between atoms: C_26  and  C_29
REMARK                            x       y       z     vdW  Elec       q    Type
REMARK                         _______ _______ _______ _____ _____    ______ ____
ROOT
ATOM     12  C   UNL     1      -4.771   0.522  24.918  0.00  0.00    +0.205 A 
ATOM     13  N   UNL     1      -5.527   0.637  24.608  0.00  0.00    -0.056 NA
ATOM     14  O   UNL     1      -5.740   1.423  24.739  0.00  0.00    -0.336 OA
ATOM     15  C   UNL     1      -5.115   1.795  25.129  0.00  0.00    +0.251 A 
ATOM     16  N   UNL     1      -4.516   1.237  25.240  0.00  0.00    -0.190 NA
ENDROOT
BRANCH  12   9
ATOM      6  C   UNL     1      -3.492  -1.597  24.886  0.00  0.00    +0.225 A 
ATOM      7  C   UNL     1      -3.826  -1.306  24.190  0.00  0.00    +0.058 A 
ATOM      8  C   UNL     1      -4.253  -0.600  24.200  0.00  0.00    +0.010 A 
ATOM      9  C   UNL     1      -4.344  -0.184  24.907  0.00  0.00    +0.058 A 
ATOM     10  C   UNL     1      -4.010  -0.474  25.603  0.00  0.00    +0.105 A 
ATOM     11  N   UNL     1      -3.584  -1.181  25.592  0.00  0.00    -0.210 NA
BRANCH   6   5
ATOM      5  O   UNL     1      -3.065  -2.303  24.876  0.00  0.00    -0.457 OA
BRANCH   5   4
ATOM      4  C   UNL     1      -2.308  -2.322  24.550  0.00  0.00    +0.239 C 
BRANCH   4   3
ATOM      3  C   UNL     1      -1.675  -2.605  24.997  0.00  0.00    +0.189 C 
BRANCH   3   2
ATOM      1  C   UNL     1      -0.303  -2.243  25.173  0.00  0.00    +0.174 C 
ATOM      2  O   UNL     1      -0.905  -2.552  24.702  0.00  0.00    -0.347 OA
ENDBRANCH   3   2
ENDBRANCH   4   3
ENDBRANCH   5   4
ENDBRANCH   6   5
ENDBRANCH  12   9
BRANCH  15  17
ATOM     17  C   UNL     1      -5.092   2.584  25.367  0.00  0.00    +0.138 C 
ATOM     18  C   UNL     1      -5.724   3.015  25.677  0.00  0.00    +0.027 C 
ATOM     19  C   UNL     1      -5.456   3.779  25.839  0.00  0.00    +0.019 C 
ATOM     20  C   UNL     1      -4.660   3.820  25.629  0.00  0.00    +0.073 C 
ATOM     21  N   UNL     1      -4.434   3.081  25.338  0.00  0.00    -0.263 NA
BRANCH  21  22
ATOM     22  C   UNL     1      -3.683   2.876  25.065  0.00  0.00    +0.099 C 
BRANCH  22  23
ATOM     23  C   UNL     1      -3.081   3.438  25.055  0.00  0.00    -0.006 A 
ATOM     24  C   UNL     1      -2.591   3.532  25.713  0.00  0.00    -0.002 A 
ATOM     25  C   UNL     1      -1.989   4.094  25.702  0.00  0.00    +0.010 A 
ATOM     26  C   UNL     1      -1.874   4.564  25.034  0.00  0.00    +0.068 A 
ATOM     27  C   UNL     1      -2.362   4.471  24.376  0.00  0.00    +0.010 A 
ATOM     28  C   UNL     1      -2.966   3.908  24.386  0.00  0.00    -0.002 A 
BRANCH  26  29
ATOM     29  C   UNL     1      -1.270   5.127  25.023  0.00  0.00    +0.100 C 
ATOM     30  N   UNL     1      -0.668   5.689  25.012  0.00  0.00    -0.191 NA
ENDBRANCH  26  29
ENDBRANCH  22  23
ENDBRANCH  21  22
ENDBRANCH  15  17
TORSDOF 9
ENDMDL
MODEL 6
REMARK VINA RESULT:      -7.3      1.529      2.912
REMARK  Name = 
REMARK  9 active torsions:
REMARK  status: ('A' for Active; 'I' for Inactive)
REMARK    1  A    between atoms: O_2  and  C_3
REMARK    2  A    between atoms: C_3  and  C_4
REMARK    3  A    between atoms: C_4  and  O_5
REMARK    4  A    between atoms: O_5  and  C_6
REMARK    5  A    between atoms: C_9  and  C_12
REMARK    6  A    between atoms: C_15  and  C_17
REMARK    7  A    between atoms: N_21  and  C_22
REMARK    8  A    between atoms: C_22  and  C_23
REMARK    9  A    between atoms: C_26  and  C_29
REMARK                            x       y       z     vdW  Elec       q    Type
REMARK                         _______ _______ _______ _____ _____    ______ ____
ROOT
ATOM     12  C   UNL     1      -0.289   1.230  24.184  0.00  0.00    +0.205 A 
ATOM     13  N   UNL     1      -0.379   1.468  24.969  0.00  0.00    -0.056 NA
ATOM     14  O   UNL     1      -1.180   1.618  25.100  0.00  0.00    -0.336 OA
ATOM     15  C   UNL     1      -1.585   1.473  24.396  0.00  0.00    +0.251 A 
ATOM     16  N   UNL     1      -1.034   1.233  23.830  0.00  0.00    -0.190 NA
ENDROOT
BRANCH  12   9
ATOM      6  C   UNL     1       1.841   0.614  23.085  0.00  0.00    +0.225 A 
ATOM      7  C   UNL     1       1.203   0.090  23.072  0.00  0.00    +0.058 A 
ATOM      8  C   UNL     1       0.493   0.295  23.439  0.00  0.00    +0.010 A 
ATOM      9  C   UNL     1       0.421   1.024  23.818  0.00  0.00    +0.058 A 
ATOM     10  C   UNL     1       1.058   1.548  23.831  0.00  0.00    +0.105 A 
ATOM     11  N   UNL     1       1.768   1.343  23.465  0.00  0.00    -0.210 NA
BRANCH   6   5
ATOM      5  O   UNL     1       2.552   0.409  22.719  0.00  0.00    -0.457 OA
BRANCH   5   4
ATOM      4  C   UNL     1       3.264   0.713  23.002  0.00  0.00    +0.239 C 
BRANCH   4   3
ATOM      3  C   UNL     1       3.979   0.384  22.757  0.00  0.00    +0.189 C 
BRANCH   3   2
ATOM      1  C   UNL     1       5.289   0.119  23.265  0.00  0.00    +0.174 C 
ATOM      2  O   UNL     1       4.690   0.655  23.077  0.00  0.00    -0.347 OA
ENDBRANCH   3   2
ENDBRANCH   4   3
ENDBRANCH   5   4
ENDBRANCH   6   5
ENDBRANCH  12   9
BRANCH  15  17
ATOM     17  C   UNL     1      -2.397   1.553  24.279  0.00  0.00    +0.138 C 
ATOM     18  C   UNL     1      -2.771   2.178  23.890  0.00  0.00    +0.027 C 
ATOM     19  C   UNL     1      -3.584   2.035  23.900  0.00  0.00    +0.019 C 
ATOM     20  C   UNL     1      -3.712   1.321  24.294  0.00  0.00    +0.073 C 
ATOM     21  N   UNL     1      -2.978   1.024  24.528  0.00  0.00    -0.263 NA
BRANCH  21  22
ATOM     22  C   UNL     1      -2.850   0.320  24.939  0.00  0.00    +0.099 C 
BRANCH  22  23
ATOM     23  C   UNL     1      -3.208  -0.377  24.685  0.00  0.00    -0.006 A 
ATOM     24  C   UNL     1      -2.747  -1.043  24.523  0.00  0.00    -0.002 A 
ATOM     25  C   UNL     1      -3.105  -1.741  24.270  0.00  0.00    +0.010 A 
ATOM     26  C   UNL     1      -3.924  -1.774  24.177  0.00  0.00    +0.068 A 
ATOM     27  C   UNL     1      -4.386  -1.110  24.338  0.00  0.00    +0.010 A 
ATOM     28  C   UNL     1      -4.027  -0.411  24.592  0.00  0.00    -0.002 A 
BRANCH  26  29
ATOM     29  C   UNL     1      -4.283  -2.473  23.923  0.00  0.00    +0.100 C 
ATOM     30  N   UNL     1      -4.641  -3.171  23.669  0.00  0.00    -0.191 NA
ENDBRANCH  26  29
ENDBRANCH  22  23
ENDBRANCH  21  22
ENDBRANCH  15  17
TORSDOF 9
ENDMDL
MODEL 7
REMARK VINA RESULT:      -7.2      1.816      2.188
REMARK  Name = 
REMARK  9 active torsions:
REMARK  status: ('A' for Active; 'I' for Inactive)
REMARK    1  A    between atoms: O_2  and  C_3
REMARK    2  A    between atoms: C_3  and  C_4
REMARK    3  A    between atoms: C_4  and  O_5
REMARK    4  A    between atoms: O_5  and  C_6
REMARK    5  A    between atoms: C_9  and  C_12
REMARK    6  A    between atoms: C_15  and  C_17
REMARK    7  A    between atoms: N_21  and  C_22
REMARK    8  A    between atoms: C_22  and  C_23
REMARK    9  A    between atoms: C_26  and  C_29
REMARK                            x       y       z     vdW  Elec       q    Type
REMARK                         _______ _______ _______ _____ _____    ______ ____
ROOT
ATOM     12  C   UNL     1      -0.215   0.306  23.868  0.00  0.00    +0.205 A 
ATOM     13  N   UNL     1      -0.492  -0.216  24.445  0.00  0.00    -0.056 NA
ATOM     14  O   UNL     1      -1.264   0.005  24.638  0.00  0.00    -0.336 OA
ATOM     15  C   UNL     1      -1.464   0.661  24.181  0.00  0.00    +0.251 A 
ATOM     16  N   UNL     1      -0.815   0.847  23.705  0.00  0.00    -0.190 NA
ENDROOT
BRANCH  12   9
ATOM      6  C   UNL     1       2.023   0.251  22.813  0.00  0.00    +0.225 A 
ATOM      7  C   UNL     1       1.469  -0.335  22.637  0.00  0.00    +0.058 A 
ATOM      8  C   UNL     1       0.723  -0.317  22.989  0.00  0.00    +0.010 A 
ATOM      9  C   UNL     1       0.531   0.288  23.516  0.00  0.00    +0.058 A 
ATOM     10  C   UNL     1       1.084   0.873  23.692  0.00  0.00    +0.105 A 
ATOM     11  N   UNL     1       1.830   0.855  23.341  0.00  0.00    -0.210 NA
BRANCH   6   5
ATOM      5  O   UNL     1       2.769   0.233  22.461  0.00  0.00    -0.457 OA
BRANCH   5   4
ATOM      4  C   UNL     1       3.428   0.503  22.878  0.00  0.00    +0.239 C 
BRANCH   4   3
ATOM      3  C   UNL     1       4.187   0.333  22.604  0.00  0.00    +0.189 C 
BRANCH   3   2
ATOM      1  C   UNL     1       5.385   0.104  23.350  0.00  0.00    +0.174 C 
ATOM      2  O   UNL     1       4.846   0.625  23.006  0.00  0.00    -0.347 OA
ENDBRANCH   3   2
ENDBRANCH   4   3
ENDBRANCH   5   4
ENDBRANCH   6   5
ENDBRANCH  12   9
BRANCH  15  17
ATOM     17  C   UNL     1      -2.184   1.062  24.196  0.00  0.00    +0.138 C 
ATOM     18  C   UNL     1      -2.861   0.860  23.769  0.00  0.00    +0.027 C 
ATOM     19  C   UNL     1      -3.450   1.409  23.950  0.00  0.00    +0.019 C 
ATOM     20  C   UNL     1      -3.138   1.949  24.489  0.00  0.00    +0.073 C 
ATOM     21  N   UNL     1      -2.356   1.735  24.641  0.00  0.00    -0.263 NA
BRANCH  21  22
ATOM     22  C   UNL     1      -1.837   2.126  25.149  0.00  0.00    +0.099 C 
BRANCH  22  23
ATOM     23  C   UNL     1      -1.816   2.950  25.164  0.00  0.00    -0.006 A 
ATOM     24  C   UNL     1      -1.246   3.357  24.727  0.00  0.00    -0.002 A 
ATOM     25  C   UNL     1      -1.225   4.181  24.742  0.00  0.00    +0.010 A 
ATOM     26  C   UNL     1      -1.774   4.599  25.194  0.00  0.00    +0.068 A 
ATOM     27  C   UNL     1      -2.344   4.194  25.631  0.00  0.00    +0.010 A 
ATOM     28  C   UNL     1      -2.364   3.368  25.616  0.00  0.00    -0.002 A 
BRANCH  26  29
ATOM     29  C   UNL     1      -1.753   5.424  25.209  0.00  0.00    +0.100 C 
ATOM     30  N   UNL     1      -1.732   6.248  25.224  0.00  0.00    -0.191 NA
ENDBRANCH  26  29
ENDBRANCH  22  23
ENDBRANCH  21  22
ENDBRANCH  15  17
TORSDOF 9
ENDMDL
MODEL 8
REMARK VINA RESULT:      -7.2      2.186      5.697
REMARK  Name = 
REMARK  9 active torsions:
REMARK  status: ('A' for Active; 'I' for Inactive)
REMARK    1  A    between atoms: O_2  and  C_3
REMARK    2  A    between atoms: C_3  and  C_4
REMARK    3  A    between atoms: C_4  and  O_5
REMARK    4  A    between atoms: O_5  and  C_6
REMARK    5  A    between atoms: C_9  and  C_12
REMARK    6  A    between atoms: C_15  and  C_17
REMARK    7  A    between atoms: N_21  and  C_22
REMARK    8  A    between atoms: C_22  and  C_23
REMARK    9  A    between atoms: C_26  and  C_29
REMARK                            x       y       z     vdW  Elec       q    Type
REMARK                         _______ _______ _______ _____ _____    ______ ____
ROOT
ATOM     12  C   UNL     1      -1.007   2.299  24.793  0.00  0.00    +0.205 A 
ATOM     13  N   UNL     1      -0.232   2.445  25.039  0.00  0.00    -0.056 NA
ATOM     14  O   UNL     1       0.239   1.819  24.780  0.00  0.00    -0.336 OA
ATOM     15  C   UNL     1      -0.244   1.287  24.374  0.00  0.00    +0.251 A 
ATOM     16  N   UNL     1      -1.014   1.584  24.383  0.00  0.00    -0.190 NA
ENDROOT
BRANCH  12   9
ATOM      6  C   UNL     1      -2.964   3.755  25.215  0.00  0.00    +0.225 A 
ATOM      7  C   UNL     1      -2.409   3.625  25.813  0.00  0.00    +0.058 A 
ATOM      8  C   UNL     1      -1.757   3.140  25.672  0.00  0.00    +0.010 A 
ATOM      9  C   UNL     1      -1.659   2.784  24.934  0.00  0.00    +0.058 A 
ATOM     10  C   UNL     1      -2.213   2.913  24.337  0.00  0.00    +0.105 A 
ATOM     11  N   UNL     1      -2.865   3.399  24.478  0.00  0.00    -0.210 NA
BRANCH   6   5
ATOM      5  O   UNL     1      -3.616   4.240  25.356  0.00  0.00    -0.457 OA
BRANCH   5   4
ATOM      4  C   UNL     1      -4.301   3.923  25.689  0.00  0.00    +0.239 C 
BRANCH   4   3
ATOM      3  C   UNL     1      -5.041   4.177  25.428  0.00  0.00    +0.189 C 
BRANCH   3   2
ATOM      1  C   UNL     1      -6.057   3.207  25.697  0.00  0.00    +0.174 C 
ATOM      2  O   UNL     1      -5.723   3.949  25.835  0.00  0.00    -0.347 OA
ENDBRANCH   3   2
ENDBRANCH   4   3
ENDBRANCH   5   4
ENDBRANCH   6   5
ENDBRANCH  12   9
BRANCH  15  17
ATOM     17  C   UNL     1      -0.001   0.582  24.022  0.00  0.00    +0.138 C 
ATOM     18  C   UNL     1       0.506   0.513  23.374  0.00  0.00    +0.027 C 
ATOM     19  C   UNL     1       0.599  -0.290  23.207  0.00  0.00    +0.019 C 
ATOM     20  C   UNL     1       0.150  -0.717  23.752  0.00  0.00    +0.073 C 
ATOM     21  N   UNL     1      -0.221  -0.178  24.255  0.00  0.00    -0.263 NA
BRANCH  21  22
ATOM     22  C   UNL     1      -0.723  -0.367  24.882  0.00  0.00    +0.099 C 
BRANCH  22  23
ATOM     23  C   UNL     1      -1.280  -0.969  24.797  0.00  0.00    -0.006 A 
ATOM     24  C   UNL     1      -2.067  -0.783  24.630  0.00  0.00    -0.002 A 
ATOM     25  C   UNL     1      -2.624  -1.384  24.546  0.00  0.00    +0.010 A 
ATOM     26  C   UNL     1      -2.396  -2.173  24.627  0.00  0.00    +0.068 A 
ATOM     27  C   UNL     1      -1.610  -2.360  24.793  0.00  0.00    +0.010 A 
ATOM     28  C   UNL     1      -1.052  -1.757  24.878  0.00  0.00    -0.002 A 
BRANCH  26  29
ATOM     29  C   UNL     1      -2.954  -2.775  24.542  0.00  0.00    +0.100 C 
ATOM     30  N   UNL     1      -3.511  -3.377  24.457  0.00  0.00    -0.191 NA
ENDBRANCH  26  29
ENDBRANCH  22  23
ENDBRANCH  21  22
ENDBRANCH  15  17
TORSDOF 9
ENDMDL
MODEL 9
REMARK VINA RESULT:      -6.0     16.664     17.657
REMARK  Name = 
REMARK  9 active torsions:
REMARK  status: ('A' for Active; 'I' for Inactive)
REMARK    1  A    between atoms: O_2  and  C_3
REMARK    2  A    between atoms: C_3  and  C_4
REMARK    3  A    between atoms: C_4  and  O_5
REMARK    4  A    between atoms: O_5  and  C_6
REMARK    5  A    between atoms: C_9  and  C_12
REMARK    6  A    between atoms: C_15  and  C_17
REMARK    7  A    between atoms: N_21  and  C_22
REMARK    8  A    between atoms: C_22  and  C_23
REMARK    9  A    between atoms: C_26  and  C_29
REMARK                            x       y       z     vdW  Elec       q    Type
REMARK                         _______ _______ _______ _____ _____    ______ ____
ROOT
ATOM     12  C   UNL     1      -3.514  -9.682  10.800  0.00  0.00    +0.205 A 
ATOM     13  N   UNL     1      -3.453  -8.931  10.462  0.00  0.00    -0.056 NA
ATOM     14  O   UNL     1      -3.967  -8.899   9.817  0.00  0.00    -0.336 OA
ATOM     15  C   UNL     1      -4.345  -9.630   9.756  0.00  0.00    +0.251 A 
ATOM     16  N   UNL     1      -4.065 -10.113  10.363  0.00  0.00    -0.190 NA
ENDROOT
BRANCH  12   9
ATOM      6  C   UNL     1      -2.264 -10.495  12.775  0.00  0.00    +0.225 A 
ATOM      7  C   UNL     1      -3.078 -10.368  12.825  0.00  0.00    +0.058 A 
ATOM      8  C   UNL     1      -3.495 -10.096  12.167  0.00  0.00    +0.010 A 
ATOM      9  C   UNL     1      -3.098  -9.953  11.458  0.00  0.00    +0.058 A 
ATOM     10  C   UNL     1      -2.285 -10.081  11.407  0.00  0.00    +0.105 A 
ATOM     11  N   UNL     1      -1.868 -10.352  12.066  0.00  0.00    -0.210 NA
BRANCH   6   5
ATOM      5  O   UNL     1      -1.847 -10.766  13.433  0.00  0.00    -0.457 OA
BRANCH   5   4
ATOM      4  C   UNL     1      -1.766 -10.284  14.096  0.00  0.00    +0.239 C 
BRANCH   4   3
ATOM      3  C   UNL     1      -1.445 -10.590  14.792  0.00  0.00    +0.189 C 
BRANCH   3   2
ATOM      1  C   UNL     1      -1.110 -10.386  16.167  0.00  0.00    +0.174 C 
ATOM      2  O   UNL     1      -1.577 -10.206  15.511  0.00  0.00    -0.347 OA
ENDBRANCH   3   2
ENDBRANCH   4   3
ENDBRANCH   5   4
ENDBRANCH   6   5
ENDBRANCH  12   9
BRANCH  15  17
ATOM     17  C   UNL     1      -4.904  -9.840   9.187  0.00  0.00    +0.138 C 
ATOM     18  C   UNL     1      -4.781 -10.352   8.552  0.00  0.00    +0.027 C 
ATOM     19  C   UNL     1      -5.486 -10.404   8.126  0.00  0.00    +0.019 C 
ATOM     20  C   UNL     1      -6.045  -9.925   8.498  0.00  0.00    +0.073 C 
ATOM     21  N   UNL     1      -5.685  -9.576   9.154  0.00  0.00    -0.263 NA
BRANCH  21  22
ATOM     22  C   UNL     1      -6.044  -9.055   9.683  0.00  0.00    +0.099 C 
BRANCH  22  23
ATOM     23  C   UNL     1      -6.792  -8.749   9.518  0.00  0.00    -0.006 A 
ATOM     24  C   UNL     1      -7.448  -9.009   9.947  0.00  0.00    -0.002 A 
ATOM     25  C   UNL     1      -8.195  -8.703   9.782  0.00  0.00    +0.010 A 
ATOM     26  C   UNL     1      -8.289  -8.138   9.189  0.00  0.00    +0.068 A 
ATOM     27  C   UNL     1      -7.634  -7.878   8.760  0.00  0.00    +0.010 A 
ATOM     28  C   UNL     1      -6.885  -8.184   8.925  0.00  0.00    -0.002 A 
BRANCH  26  29
ATOM     29  C   UNL     1      -9.037  -7.832   9.024  0.00  0.00    +0.100 C 
ATOM     30  N   UNL     1      -9.785  -7.526   8.859  0.00  0.00    -0.191 NA
ENDBRANCH  26  29
ENDBRANCH  22  23
ENDBRANCH  21  22
ENDBRANCH  15  17
TORSDOF 9
ENDMDL
MODEL 10
REMARK VINA RESULT:      -5.8     17.800     19.326
REMARK  Name = 
REMARK  9 active torsions:
REMARK  status: ('A' for Active; 'I' for Inactive)
REMARK    1  A    between atoms: O_2  and  C_3
REMARK    2  A    between atoms: C_3  and  C_4
REMARK    3  A    between atoms: C_4  and  O_5
REMARK    4  A    between atoms: O_5  and  C_6
REMARK    5  A    between atoms: C_9  and  C_12
REMARK    6  A    between atoms: C_15  and  C_17
REMARK    7  A    between atoms: N_21  and  C_22
REMARK    8  A    between atoms: C_22  and  C_23
REMARK    9  A    between atoms: C_26  and  C_29
REMARK                            x       y       z     vdW  Elec       q    Type
REMARK                         _______ _______ _______ _____ _____    ______ ____
ROOT
ATOM     12  C   UNL     1      -7.460  -9.118   9.124  0.00  0.00    +0.205 A 
ATOM     13  N   UNL     1      -7.543  -9.739   9.661  0.00  0.00    -0.056 NA
ATOM     14  O   UNL     1      -6.868 -10.211   9.612  0.00  0.00    -0.336 OA
ATOM     15  C   UNL     1      -6.368  -9.882   9.044  0.00  0.00    +0.251 A 
ATOM     16  N   UNL     1      -6.734  -9.206   8.743  0.00  0.00    -0.190 NA
ENDROOT
BRANCH  12   9
ATOM      6  C   UNL     1      -9.102  -7.309   8.728  0.00  0.00    +0.225 A 
ATOM      7  C   UNL     1      -9.283  -7.924   9.249  0.00  0.00    +0.058 A 
ATOM      8  C   UNL     1      -8.735  -8.527   9.381  0.00  0.00    +0.010 A 
ATOM      9  C   UNL     1      -8.008  -8.515   8.992  0.00  0.00    +0.058 A 
ATOM     10  C   UNL     1      -7.827  -7.902   8.472  0.00  0.00    +0.105 A 
ATOM     11  N   UNL     1      -8.375  -7.299   8.340  0.00  0.00    -0.210 NA
BRANCH   6   5
ATOM      5  O   UNL     1      -9.650  -6.706   8.596  0.00  0.00    -0.457 OA
BRANCH   5   4
ATOM      4  C   UNL     1      -9.429  -5.919   8.701  0.00  0.00    +0.239 C 
BRANCH   4   3
ATOM      3  C   UNL     1     -10.005  -5.328   8.723  0.00  0.00    +0.189 C 
BRANCH   3   2
ATOM      1  C   UNL     1     -10.345  -3.953   8.910  0.00  0.00    +0.174 C 
ATOM      2  O   UNL     1      -9.781  -4.534   8.757  0.00  0.00    -0.347 OA
ENDBRANCH   3   2
ENDBRANCH   4   3
ENDBRANCH   5   4
ENDBRANCH   6   5
ENDBRANCH  12   9
BRANCH  15  17
ATOM     17  C   UNL     1      -5.631 -10.175   8.817  0.00  0.00    +0.138 C 
ATOM     18  C   UNL     1      -5.469 -10.597   8.127  0.00  0.00    +0.027 C 
ATOM     19  C   UNL     1      -4.665 -10.781   8.124  0.00  0.00    +0.019 C 
ATOM     20  C   UNL     1      -4.330 -10.474   8.812  0.00  0.00    +0.073 C 
ATOM     21  N   UNL     1      -4.927 -10.099   9.241  0.00  0.00    -0.263 NA
BRANCH  21  22
ATOM     22  C   UNL     1      -4.836  -9.717   9.966  0.00  0.00    +0.099 C 
BRANCH  22  23
ATOM     23  C   UNL     1      -4.129  -9.787  10.384  0.00  0.00    -0.006 A 
ATOM     24  C   UNL     1      -3.487  -9.304  10.193  0.00  0.00    -0.002 A 
ATOM     25  C   UNL     1      -2.780  -9.374  10.611  0.00  0.00    +0.010 A 
ATOM     26  C   UNL     1      -2.713  -9.927  11.219  0.00  0.00    +0.068 A 
ATOM     27  C   UNL     1      -3.354 -10.411  11.410  0.00  0.00    +0.010 A 
ATOM     28  C   UNL     1      -4.062 -10.340  10.992  0.00  0.00    -0.002 A 
BRANCH  26  29
ATOM     29  C   UNL     1      -2.005  -9.998  11.638  0.00  0.00    +0.100 C 
ATOM     30  N   UNL     1      -1.298 -10.068  12.056  0.00  0.00    -0.191 NA
ENDBRANCH  26  29
ENDBRANCH  22  23
ENDBRANCH  21  22
ENDBRANCH  15  17
TORSDOF 9
ENDMDL
