REMARK  Name = 
REMARK  6 active torsions:
REMARK  status: ('A' for Active; 'I' for Inactive)
REMARK    1  A    between atoms: C_2  and  N_3
REMARK    2  A    between atoms: C_2  and  C_28
REMARK    3  A    between atoms: C_4  and  C_6
REMARK    4  A    between atoms: C_8  and  N_19
REMARK    5  A    between atoms: C_12  and  C_14
REMARK    6  A    between atoms: C_20  and  C_22
REMARK                            x       y       z     vdW  Elec       q    Type
REMARK                         _______ _______ _______ _____ _____    ______ ____
ROOT
ATOM      6  C   UNL     1      -1.429  -4.950   0.000  0.00  0.00    +0.155 C 
ATOM      7  C   UNL     1      -0.715  -5.362   0.000  0.00  0.00    +0.051 C 
ATOM      8  C   UNL     1      -0.715  -6.188   0.000  0.00  0.00    +0.100 C 
ATOM      9  C   UNL     1      -1.429  -6.600   0.000  0.00  0.00    +0.043 C 
ATOM     10  C   UNL     1      -2.143  -6.188   0.000  0.00  0.00    +0.096 C 
ATOM     11  N   UNL     1      -2.143  -5.362   0.000  0.00  0.00    -0.267 N 
ATOM     12  C   UNL     1      -2.858  -4.950   0.000  0.00  0.00    +0.284 C 
ATOM     13  O   UNL     1      -2.858  -4.125   0.000  0.00  0.00    -0.267 OA
ENDROOT
BRANCH  12  14
ATOM     14  C   UNL     1      -3.572  -5.362   0.000  0.00  0.00    +0.199 A 
ATOM     15  C   UNL     1      -3.659  -6.183   0.000  0.00  0.00    +0.045 A 
ATOM     16  C   UNL     1      -4.466  -6.354   0.000  0.00  0.00    +0.044 A 
ATOM     17  C   UNL     1      -4.878  -5.640   0.000  0.00  0.00    +0.180 A 
ATOM     18  O   UNL     1      -4.326  -5.027   0.000  0.00  0.00    -0.446 OA
ENDBRANCH  12  14
BRANCH   6   4
ATOM      3  N   UNL     1      -0.715  -3.712   0.000  0.00  0.00    -0.196 NA
ATOM      4  C   UNL     1      -1.429  -4.125   0.000  0.00  0.00    +0.260 C 
ATOM      5  O   UNL     1      -2.143  -3.712   0.000  0.00  0.00    -0.272 OA
BRANCH   3   2
ATOM      1  C   UNL     1       0.000  -4.950   0.000  0.00  0.00    +0.033 C 
ATOM      2  C   UNL     1       0.000  -4.125   0.000  0.00  0.00    +0.174 C 
BRANCH   2  28
ATOM     28  C   UNL     1       0.715  -3.712   0.000  0.00  0.00    +0.281 C 
ATOM     29  N   UNL     1       0.715  -2.888   0.000  0.00  0.00    -0.086 NA
ATOM     30  O   UNL     1       1.429  -4.125   0.000  0.00  0.00    -0.270 OA
ENDBRANCH   2  28
ENDBRANCH   3   2
ENDBRANCH   6   4
BRANCH   8  19
ATOM     19  N   UNL     1       0.000  -6.600   0.000  0.00  0.00    -0.202 NA
ATOM     20  C   UNL     1       0.715  -6.188   0.000  0.00  0.00    +0.284 C 
ATOM     21  O   UNL     1       0.715  -5.362   0.000  0.00  0.00    -0.267 OA
BRANCH  20  22
ATOM     22  C   UNL     1       1.429  -6.600   0.000  0.00  0.00    +0.155 A 
ATOM     23  C   UNL     1       2.143  -6.188   0.000  0.00  0.00    +0.123 A 
ATOM     24  N   UNL     1       2.858  -6.600   0.000  0.00  0.00    -0.239 NA
ATOM     25  C   UNL     1       2.858  -7.425   0.000  0.00  0.00    +0.120 A 
ATOM     26  C   UNL     1       2.143  -7.838   0.000  0.00  0.00    +0.120 A 
ATOM     27  N   UNL     1       1.429  -7.425   0.000  0.00  0.00    -0.236 NA
ENDBRANCH  20  22
ENDBRANCH   8  19
TORSDOF 6
