MODEL 1
REMARK VINA RESULT:      -9.3      0.000      0.000
REMARK  Name = 
REMARK  3 active torsions:
REMARK  status: ('A' for Active; 'I' for Inactive)
REMARK    1  A    between atoms: S_2  and  N_5
REMARK    2  A    between atoms: N_11  and  C_12
REMARK    3  A    between atoms: C_12  and  C_13
REMARK                            x       y       z     vdW  Elec       q    Type
REMARK                         _______ _______ _______ _____ _____    ______ ____
ROOT
ATOM      5  N   UNL     1      -3.055   3.420  25.239  0.00  0.00    -0.156 NA
ATOM      6  C   UNL     1      -3.813   3.667  25.451  0.00  0.00    +0.117 C 
ATOM      7  C   UNL     1      -4.446   3.140  25.407  0.00  0.00    +0.114 C 
ATOM      8  N   UNL     1      -4.321   2.366  25.149  0.00  0.00    -0.261 N 
ATOM      9  C   UNL     1      -3.563   2.120  24.936  0.00  0.00    +0.114 C 
ATOM     10  C   UNL     1      -3.608   1.330  24.704  0.00  0.00    +0.117 C 
ATOM     11  N   UNL     1      -4.394   1.088  24.774  0.00  0.00    -0.258 N 
ATOM     19  C   UNL     1      -4.834   1.729  25.048  0.00  0.00    +0.308 C 
ATOM     20  O   UNL     1      -5.646   1.731  25.197  0.00  0.00    -0.252 OA
ATOM     21  C   UNL     1      -2.930   2.647  24.981  0.00  0.00    +0.117 C 
ENDROOT
BRANCH   5   2
ATOM      1  C   UNL     1      -1.788   4.474  25.328  0.00  0.00    +0.196 C 
ATOM      2  S   UNL     1      -2.421   3.948  25.283  0.00  0.00    +0.046 S 
ATOM      3  O   UNL     1      -2.287   3.719  26.064  0.00  0.00    -0.157 OA
ATOM      4  O   UNL     1      -2.557   4.176  24.502  0.00  0.00    -0.157 OA
ENDBRANCH   5   2
BRANCH  11  12
ATOM     12  C   UNL     1      -4.687   0.337  24.599  0.00  0.00    +0.123 C 
BRANCH  12  13
ATOM     13  C   UNL     1      -4.213  -0.329  24.712  0.00  0.00    +0.017 A 
ATOM     14  C   UNL     1      -3.914  -0.738  24.062  0.00  0.00    +0.001 A 
ATOM     15  C   UNL     1      -3.440  -1.404  24.176  0.00  0.00    +0.020 A 
ATOM     16  C   UNL     1      -3.265  -1.660  24.940  0.00  0.00    +0.099 A 
ATOM     17  N   UNL     1      -3.564  -1.250  25.591  0.00  0.00    -0.243 NA
ATOM     18  C   UNL     1      -4.038  -0.584  25.478  0.00  0.00    +0.096 A 
ENDBRANCH  12  13
ENDBRANCH  11  12
TORSDOF 3
ENDMDL
MODEL 2
REMARK VINA RESULT:      -9.3      1.105      1.202
REMARK  Name = 
REMARK  3 active torsions:
REMARK  status: ('A' for Active; 'I' for Inactive)
REMARK    1  A    between atoms: S_2  and  N_5
REMARK    2  A    between atoms: N_11  and  C_12
REMARK    3  A    between atoms: C_12  and  C_13
REMARK                            x       y       z     vdW  Elec       q    Type
REMARK                         _______ _______ _______ _____ _____    ______ ____
ROOT
ATOM      5  N   UNL     1      -2.054   2.550  24.570  0.00  0.00    -0.156 NA
ATOM      6  C   UNL     1      -2.736   2.980  24.393  0.00  0.00    +0.117 C 
ATOM      7  C   UNL     1      -3.474   2.614  24.431  0.00  0.00    +0.114 C 
ATOM      8  N   UNL     1      -3.532   1.820  24.646  0.00  0.00    -0.261 N 
ATOM      9  C   UNL     1      -2.850   1.390  24.823  0.00  0.00    +0.114 C 
ATOM     10  C   UNL     1      -3.075   0.621  25.016  0.00  0.00    +0.117 C 
ATOM     11  N   UNL     1      -3.897   0.575  24.959  0.00  0.00    -0.258 N 
ATOM     19  C   UNL     1      -4.178   1.316  24.730  0.00  0.00    +0.308 C 
ATOM     20  O   UNL     1      -4.969   1.517  24.607  0.00  0.00    -0.252 OA
ATOM     21  C   UNL     1      -2.110   1.756  24.785  0.00  0.00    +0.117 C 
ENDROOT
BRANCH   5   2
ATOM      1  C   UNL     1      -0.576   3.281  24.494  0.00  0.00    +0.196 C 
ATOM      2  S   UNL     1      -1.315   2.916  24.533  0.00  0.00    +0.046 S 
ATOM      3  O   UNL     1      -1.401   3.171  25.312  0.00  0.00    -0.157 OA
ATOM      4  O   UNL     1      -1.229   2.660  23.753  0.00  0.00    -0.157 OA
ENDBRANCH   5   2
BRANCH  11  12
ATOM     12  C   UNL     1      -4.356  -0.095  25.105  0.00  0.00    +0.123 C 
BRANCH  12  13
ATOM     13  C   UNL     1      -4.070  -0.843  24.906  0.00  0.00    +0.017 A 
ATOM     14  C   UNL     1      -4.209  -1.151  24.154  0.00  0.00    +0.001 A 
ATOM     15  C   UNL     1      -3.922  -1.900  23.956  0.00  0.00    +0.020 A 
ATOM     16  C   UNL     1      -3.499  -2.339  24.511  0.00  0.00    +0.099 A 
ATOM     17  N   UNL     1      -3.360  -2.030  25.263  0.00  0.00    -0.243 NA
ATOM     18  C   UNL     1      -3.646  -1.282  25.461  0.00  0.00    +0.096 A 
ENDBRANCH  12  13
ENDBRANCH  11  12
TORSDOF 3
ENDMDL
MODEL 3
REMARK VINA RESULT:      -9.0      2.421      3.818
REMARK  Name = 
REMARK  3 active torsions:
REMARK  status: ('A' for Active; 'I' for Inactive)
REMARK    1  A    between atoms: S_2  and  N_5
REMARK    2  A    between atoms: N_11  and  C_12
REMARK    3  A    between atoms: C_12  and  C_13
REMARK                            x       y       z     vdW  Elec       q    Type
REMARK                         _______ _______ _______ _____ _____    ______ ____
ROOT
ATOM      5  N   UNL     1      -1.382  -0.058  24.734  0.00  0.00    -0.156 NA
ATOM      6  C   UNL     1      -0.905   0.487  24.338  0.00  0.00    +0.117 C 
ATOM      7  C   UNL     1      -1.235   1.177  24.030  0.00  0.00    +0.114 C 
ATOM      8  N   UNL     1      -2.043   1.323  24.117  0.00  0.00    -0.261 N 
ATOM      9  C   UNL     1      -2.520   0.778  24.512  0.00  0.00    +0.114 C 
ATOM     10  C   UNL     1      -3.292   1.068  24.513  0.00  0.00    +0.117 C 
ATOM     11  N   UNL     1      -3.292   1.792  24.118  0.00  0.00    -0.258 N 
ATOM     19  C   UNL     1      -2.521   1.949  23.874  0.00  0.00    +0.308 C 
ATOM     20  O   UNL     1      -2.270   2.616  23.458  0.00  0.00    -0.252 OA
ATOM     21  C   UNL     1      -2.189   0.087  24.821  0.00  0.00    +0.117 C 
ENDROOT
BRANCH   5   2
ATOM      1  C   UNL     1      -0.721  -1.438  25.351  0.00  0.00    +0.196 C 
ATOM      2  S   UNL     1      -1.051  -0.748  25.042  0.00  0.00    +0.046 S 
ATOM      3  O   UNL     1      -1.054  -1.085  24.290  0.00  0.00    -0.157 OA
ATOM      4  O   UNL     1      -1.049  -0.410  25.795  0.00  0.00    -0.157 OA
ENDBRANCH   5   2
BRANCH  11  12
ATOM     12  C   UNL     1      -3.949   2.274  23.990  0.00  0.00    +0.123 C 
BRANCH  12  13
ATOM     13  C   UNL     1      -4.474   2.429  24.608  0.00  0.00    +0.017 A 
ATOM     14  C   UNL     1      -5.162   1.981  24.688  0.00  0.00    +0.001 A 
ATOM     15  C   UNL     1      -5.686   2.138  25.305  0.00  0.00    +0.020 A 
ATOM     16  C   UNL     1      -5.523   2.741  25.843  0.00  0.00    +0.099 A 
ATOM     17  N   UNL     1      -4.835   3.189  25.763  0.00  0.00    -0.243 NA
ATOM     18  C   UNL     1      -4.310   3.034  25.145  0.00  0.00    +0.096 A 
ENDBRANCH  12  13
ENDBRANCH  11  12
TORSDOF 3
ENDMDL
MODEL 4
REMARK VINA RESULT:      -8.9      1.522      2.168
REMARK  Name = 
REMARK  3 active torsions:
REMARK  status: ('A' for Active; 'I' for Inactive)
REMARK    1  A    between atoms: S_2  and  N_5
REMARK    2  A    between atoms: N_11  and  C_12
REMARK    3  A    between atoms: C_12  and  C_13
REMARK                            x       y       z     vdW  Elec       q    Type
REMARK                         _______ _______ _______ _____ _____    ______ ____
ROOT
ATOM      5  N   UNL     1      -4.668   2.475  24.956  0.00  0.00    -0.156 NA
ATOM      6  C   UNL     1      -4.237   2.789  24.326  0.00  0.00    +0.117 C 
ATOM      7  C   UNL     1      -3.668   2.329  23.946  0.00  0.00    +0.114 C 
ATOM      8  N   UNL     1      -3.530   1.554  24.195  0.00  0.00    -0.261 N 
ATOM      9  C   UNL     1      -3.961   1.240  24.824  0.00  0.00    +0.114 C 
ATOM     10  C   UNL     1      -3.706   0.465  24.946  0.00  0.00    +0.117 C 
ATOM     11  N   UNL     1      -3.118   0.300  24.393  0.00  0.00    -0.258 N 
ATOM     19  C   UNL     1      -3.009   0.973  23.929  0.00  0.00    +0.308 C 
ATOM     20  O   UNL     1      -2.473   1.052  23.306  0.00  0.00    -0.252 OA
ATOM     21  C   UNL     1      -4.531   1.700  25.205  0.00  0.00    +0.117 C 
ENDROOT
BRANCH   5   2
ATOM      1  C   UNL     1      -5.807   3.395  25.717  0.00  0.00    +0.196 C 
ATOM      2  S   UNL     1      -5.238   2.935  25.337  0.00  0.00    +0.046 S 
ATOM      3  O   UNL     1      -5.834   2.481  24.992  0.00  0.00    -0.157 OA
ATOM      4  O   UNL     1      -4.640   3.389  25.680  0.00  0.00    -0.157 OA
ENDBRANCH   5   2
BRANCH  11  12
ATOM     12  C   UNL     1      -2.709  -0.412  24.316  0.00  0.00    +0.123 C 
BRANCH  12  13
ATOM     13  C   UNL     1      -3.095  -1.127  24.461  0.00  0.00    +0.017 A 
ATOM     14  C   UNL     1      -3.585  -1.456  23.884  0.00  0.00    +0.001 A 
ATOM     15  C   UNL     1      -3.970  -2.171  24.030  0.00  0.00    +0.020 A 
ATOM     16  C   UNL     1      -3.867  -2.556  24.751  0.00  0.00    +0.099 A 
ATOM     17  N   UNL     1      -3.378  -2.227  25.328  0.00  0.00    -0.243 NA
ATOM     18  C   UNL     1      -2.992  -1.512  25.184  0.00  0.00    +0.096 A 
ENDBRANCH  12  13
ENDBRANCH  11  12
TORSDOF 3
ENDMDL
MODEL 5
REMARK VINA RESULT:      -8.6      1.842      4.091
REMARK  Name = 
REMARK  3 active torsions:
REMARK  status: ('A' for Active; 'I' for Inactive)
REMARK    1  A    between atoms: S_2  and  N_5
REMARK    2  A    between atoms: N_11  and  C_12
REMARK    3  A    between atoms: C_12  and  C_13
REMARK                            x       y       z     vdW  Elec       q    Type
REMARK                         _______ _______ _______ _____ _____    ______ ____
ROOT
ATOM      5  N   UNL     1      -3.515  -0.484  24.873  0.00  0.00    -0.156 NA
ATOM      6  C   UNL     1      -4.338  -0.430  24.892  0.00  0.00    +0.117 C 
ATOM      7  C   UNL     1      -4.704   0.304  24.815  0.00  0.00    +0.114 C 
ATOM      8  N   UNL     1      -4.249   0.986  24.719  0.00  0.00    -0.261 N 
ATOM      9  C   UNL     1      -3.426   0.932  24.699  0.00  0.00    +0.114 C 
ATOM     10  C   UNL     1      -3.123   1.692  24.598  0.00  0.00    +0.117 C 
ATOM     11  N   UNL     1      -3.758   2.216  24.555  0.00  0.00    -0.258 N 
ATOM     19  C   UNL     1      -4.454   1.779  24.629  0.00  0.00    +0.308 C 
ATOM     20  O   UNL     1      -5.221   2.083  24.617  0.00  0.00    -0.252 OA
ATOM     21  C   UNL     1      -3.058   0.196  24.776  0.00  0.00    +0.117 C 
ENDROOT
BRANCH   5   2
ATOM      1  C   UNL     1      -2.780  -1.953  25.027  0.00  0.00    +0.196 C 
ATOM      2  S   UNL     1      -3.147  -1.219  24.950  0.00  0.00    +0.046 S 
ATOM      3  O   UNL     1      -3.059  -1.090  25.760  0.00  0.00    -0.157 OA
ATOM      4  O   UNL     1      -3.236  -1.348  24.140  0.00  0.00    -0.157 OA
ENDBRANCH   5   2
BRANCH  11  12
ATOM     12  C   UNL     1      -3.707   3.033  24.455  0.00  0.00    +0.123 C 
BRANCH  12  13
ATOM     13  C   UNL     1      -3.142   3.466  24.872  0.00  0.00    +0.017 A 
ATOM     14  C   UNL     1      -3.313   3.746  25.629  0.00  0.00    +0.001 A 
ATOM     15  C   UNL     1      -2.747   4.178  26.045  0.00  0.00    +0.020 A 
ATOM     16  C   UNL     1      -2.011   4.331  25.705  0.00  0.00    +0.099 A 
ATOM     17  N   UNL     1      -1.841   4.051  24.948  0.00  0.00    -0.243 NA
ATOM     18  C   UNL     1      -2.406   3.619  24.531  0.00  0.00    +0.096 A 
ENDBRANCH  12  13
ENDBRANCH  11  12
TORSDOF 3
ENDMDL
