REMARK  Name = 
REMARK  6 active torsions:
REMARK  status: ('A' for Active; 'I' for Inactive)
REMARK    1  A    between atoms: C_2  and  C_5
REMARK    2  A    between atoms: C_5  and  N_6
REMARK    3  A    between atoms: N_6  and  C_7
REMARK    4  A    between atoms: C_7  and  C_8
REMARK    5  A    between atoms: C_8  and  C_9
REMARK    6  A    between atoms: C_12  and  C_14
REMARK                            x       y       z     vdW  Elec       q    Type
REMARK                         _______ _______ _______ _____ _____    ______ ____
ROOT
ATOM      7  C   UNL     1      -0.095  -1.100   0.000  0.00  0.00    +0.119 C 
ATOM     18  C   UNL     1       0.488  -1.683   0.000  0.00  0.00    +0.161 C 
ATOM     19  O   UNL     1      -0.095  -2.267   0.000  0.00  0.00    -0.351 OA
ATOM     20  C   UNL     1      -0.678  -1.683   0.000  0.00  0.00    +0.161 C 
ENDROOT
BRANCH   7   6
ATOM      6  N   UNL     1       0.488  -0.516   0.000  0.00  0.00    -0.215 NA
BRANCH   6   5
ATOM      5  C   UNL     1       0.275   0.280   0.000  0.00  0.00    +0.089 C 
BRANCH   5   2
ATOM      1  C   UNL     1       1.442   1.447   0.000  0.00  0.00    +0.001 C 
ATOM      2  C   UNL     1       0.858   0.864   0.000  0.00  0.00    +0.016 C 
ATOM      3  C   UNL     1       0.275   1.447   0.000  0.00  0.00    +0.001 C 
ATOM      4  C   UNL     1       1.442   0.280   0.000  0.00  0.00    +0.001 C 
ENDBRANCH   5   2
ENDBRANCH   6   5
ENDBRANCH   7   6
BRANCH   7   8
ATOM      8  C   UNL     1      -0.678  -0.516   0.000  0.00  0.00    +0.070 C 
BRANCH   8   9
ATOM      9  C   UNL     1      -1.475  -0.730   0.000  0.00  0.00    +0.102 A 
ATOM     10  N   UNL     1      -1.771  -1.500   0.000  0.00  0.00    -0.082 NA
ATOM     11  O   UNL     1      -2.595  -1.457   0.000  0.00  0.00    -0.356 OA
ATOM     12  C   UNL     1      -2.808  -0.660   0.000  0.00  0.00    +0.181 A 
ATOM     13  C   UNL     1      -2.116  -0.211   0.000  0.00  0.00    +0.056 A 
BRANCH  12  14
ATOM     14  C   UNL     1      -3.579  -0.364   0.000  0.00  0.00    +0.180 C 
ATOM     15  C   UNL     1      -4.349  -0.069   0.000  0.00  0.00    +0.041 C 
ATOM     16  C   UNL     1      -3.283   0.406   0.000  0.00  0.00    +0.041 C 
ATOM     17  O   UNL     1      -3.874  -1.135   0.000  0.00  0.00    -0.218 OA
ENDBRANCH  12  14
ENDBRANCH   8   9
ENDBRANCH   7   8
TORSDOF 6
