MODEL 1
REMARK VINA RESULT:      -9.9      0.000      0.000
REMARK  Name = 
REMARK  6 active torsions:
REMARK  status: ('A' for Active; 'I' for Inactive)
REMARK    1  A    between atoms: C_2  and  C_4
REMARK    2  A    between atoms: C_6  and  C_7
REMARK    3  A    between atoms: C_7  and  C_8
REMARK    4  A    between atoms: C_22  and  C_23
REMARK    5  A    between atoms: C_23  and  N_24
REMARK    6  A    between atoms: C_25  and  C_27
REMARK                            x       y       z     vdW  Elec       q    Type
REMARK                         _______ _______ _______ _____ _____    ______ ____
ROOT
ATOM      4  C   UNL     1      -1.643  -0.233  24.666  0.00  0.00    +0.006 C 
ATOM      5  C   UNL     1      -0.866  -0.073  24.440  0.00  0.00    +0.005 C 
ATOM      6  C   UNL     1      -0.688   0.622  24.035  0.00  0.00    +0.027 C 
ATOM     19  C   UNL     1      -1.287   1.160  23.855  0.00  0.00    -0.048 C 
ATOM     20  C   UNL     1      -1.109   1.856  23.450  0.00  0.00    +0.026 C 
ATOM     21  C   UNL     1      -2.065   1.001  24.082  0.00  0.00    -0.033 C 
ATOM     22  C   UNL     1      -2.243   0.306  24.487  0.00  0.00    +0.043 C 
ENDROOT
BRANCH   4   2
ATOM      1  C   UNL     1      -1.748  -0.957  25.893  0.00  0.00    +0.000 C 
ATOM      2  C   UNL     1      -1.821  -0.929  25.071  0.00  0.00    +0.000 C 
ATOM      3  C   UNL     1      -2.070  -1.595  24.655  0.00  0.00    +0.000 C 
ENDBRANCH   4   2
BRANCH   6   7
ATOM      7  C   UNL     1       0.090   0.781  23.808  0.00  0.00    +0.089 C 
BRANCH   7   8
ATOM      8  C   UNL     1       0.478   0.277  23.283  0.00  0.00    +0.226 C 
ATOM      9  O   UNL     1       0.061  -0.329  22.909  0.00  0.00    -0.275 OA
ATOM     10  N   UNL     1       1.282   0.379  23.131  0.00  0.00    -0.276 N 
ATOM     11  C   UNL     1       1.699   0.985  23.505  0.00  0.00    +0.115 C 
ATOM     12  C   UNL     1       2.503   1.087  23.354  0.00  0.00    +0.115 C 
ATOM     13  N   UNL     1       2.891   0.582  22.828  0.00  0.00    -0.276 N 
ATOM     14  C   UNL     1       2.475  -0.023  22.454  0.00  0.00    +0.115 C 
ATOM     15  C   UNL     1       1.670  -0.126  22.605  0.00  0.00    +0.115 C 
ATOM     16  C   UNL     1       3.696   0.685  22.677  0.00  0.00    +0.226 C 
ATOM     17  C   UNL     1       4.084   0.181  22.151  0.00  0.00    +0.095 C 
ATOM     18  O   UNL     1       4.113   1.290  23.050  0.00  0.00    -0.275 OA
ENDBRANCH   7   8
ENDBRANCH   6   7
BRANCH  22  23
ATOM     23  C   UNL     1      -3.020   0.147  24.713  0.00  0.00    +0.120 C 
BRANCH  23  24
ATOM     24  N   UNL     1      -3.533   0.767  24.891  0.00  0.00    -0.201 NA
ATOM     25  C   UNL     1      -4.348   0.654  24.844  0.00  0.00    +0.265 C 
ATOM     26  O   UNL     1      -4.651  -0.079  24.617  0.00  0.00    -0.268 OA
BRANCH  25  27
ATOM     27  C   UNL     1      -4.863   1.275  25.022  0.00  0.00    +0.057 A 
ATOM     28  C   UNL     1      -4.867   1.954  24.553  0.00  0.00    +0.005 A 
ATOM     29  C   UNL     1      -5.380   2.575  24.732  0.00  0.00    +0.002 A 
ATOM     30  C   UNL     1      -5.890   2.516  25.379  0.00  0.00    +0.030 A 
ATOM     31  C   UNL     1      -5.884   1.837  25.847  0.00  0.00    +0.140 A 
ATOM     32  F   UNL     1      -6.393   1.779  26.494  0.00  0.00    -0.204 F 
ATOM     33  C   UNL     1      -5.371   1.217  25.669  0.00  0.00    +0.034 A 
ENDBRANCH  25  27
ENDBRANCH  23  24
ENDBRANCH  22  23
TORSDOF 6
ENDMDL
MODEL 2
REMARK VINA RESULT:      -8.8      1.503      1.974
REMARK  Name = 
REMARK  6 active torsions:
REMARK  status: ('A' for Active; 'I' for Inactive)
REMARK    1  A    between atoms: C_2  and  C_4
REMARK    2  A    between atoms: C_6  and  C_7
REMARK    3  A    between atoms: C_7  and  C_8
REMARK    4  A    between atoms: C_22  and  C_23
REMARK    5  A    between atoms: C_23  and  N_24
REMARK    6  A    between atoms: C_25  and  C_27
REMARK                            x       y       z     vdW  Elec       q    Type
REMARK                         _______ _______ _______ _____ _____    ______ ____
ROOT
ATOM      4  C   UNL     1      -2.046   1.939  23.395  0.00  0.00    +0.006 C 
ATOM      5  C   UNL     1      -1.298   1.603  23.493  0.00  0.00    +0.005 C 
ATOM      6  C   UNL     1      -0.952   1.577  24.240  0.00  0.00    +0.027 C 
ATOM     19  C   UNL     1      -1.353   1.886  24.892  0.00  0.00    -0.048 C 
ATOM     20  C   UNL     1      -1.007   1.860  25.640  0.00  0.00    +0.026 C 
ATOM     21  C   UNL     1      -2.101   2.222  24.794  0.00  0.00    -0.033 C 
ATOM     22  C   UNL     1      -2.447   2.249  24.047  0.00  0.00    +0.043 C 
ENDROOT
BRANCH   4   2
ATOM      1  C   UNL     1      -2.849   1.331  22.382  0.00  0.00    +0.000 C 
ATOM      2  C   UNL     1      -2.392   1.965  22.647  0.00  0.00    +0.000 C 
ATOM      3  C   UNL     1      -2.281   2.624  22.164  0.00  0.00    +0.000 C 
ENDBRANCH   4   2
BRANCH   6   7
ATOM      7  C   UNL     1      -0.205   1.241  24.337  0.00  0.00    +0.089 C 
BRANCH   7   8
ATOM      8  C   UNL     1       0.023   0.598  23.873  0.00  0.00    +0.226 C 
ATOM      9  O   UNL     1      -0.511  -0.015  23.729  0.00  0.00    -0.275 OA
ATOM     10  N   UNL     1       0.782   0.569  23.554  0.00  0.00    -0.276 N 
ATOM     11  C   UNL     1       1.315   1.181  23.698  0.00  0.00    +0.115 C 
ATOM     12  C   UNL     1       2.075   1.152  23.379  0.00  0.00    +0.115 C 
ATOM     13  N   UNL     1       2.302   0.508  22.914  0.00  0.00    -0.276 N 
ATOM     14  C   UNL     1       1.770  -0.104  22.769  0.00  0.00    +0.115 C 
ATOM     15  C   UNL     1       1.010  -0.075  23.089  0.00  0.00    +0.115 C 
ATOM     16  C   UNL     1       3.063   0.479  22.594  0.00  0.00    +0.226 C 
ATOM     17  C   UNL     1       3.290  -0.164  22.130  0.00  0.00    +0.095 C 
ATOM     18  O   UNL     1       3.595   1.092  22.739  0.00  0.00    -0.275 OA
ENDBRANCH   7   8
ENDBRANCH   6   7
BRANCH  22  23
ATOM     23  C   UNL     1      -3.194   2.584  23.949  0.00  0.00    +0.120 C 
BRANCH  23  24
ATOM     24  N   UNL     1      -3.820   2.345  24.430  0.00  0.00    -0.201 NA
ATOM     25  C   UNL     1      -4.454   2.854  24.564  0.00  0.00    +0.265 C 
ATOM     26  O   UNL     1      -4.463   3.604  24.218  0.00  0.00    -0.268 OA
BRANCH  25  27
ATOM     27  C   UNL     1      -5.081   2.615  25.046  0.00  0.00    +0.057 A 
ATOM     28  C   UNL     1      -5.135   2.893  25.821  0.00  0.00    +0.005 A 
ATOM     29  C   UNL     1      -5.761   2.654  26.302  0.00  0.00    +0.002 A 
ATOM     30  C   UNL     1      -6.334   2.137  26.007  0.00  0.00    +0.030 A 
ATOM     31  C   UNL     1      -6.279   1.860  25.232  0.00  0.00    +0.140 A 
ATOM     32  F   UNL     1      -6.852   1.344  24.939  0.00  0.00    -0.204 F 
ATOM     33  C   UNL     1      -5.653   2.099  24.751  0.00  0.00    +0.034 A 
ENDBRANCH  25  27
ENDBRANCH  23  24
ENDBRANCH  22  23
TORSDOF 6
ENDMDL
MODEL 3
REMARK VINA RESULT:      -8.4      2.184      6.515
REMARK  Name = 
REMARK  6 active torsions:
REMARK  status: ('A' for Active; 'I' for Inactive)
REMARK    1  A    between atoms: C_2  and  C_4
REMARK    2  A    between atoms: C_6  and  C_7
REMARK    3  A    between atoms: C_7  and  C_8
REMARK    4  A    between atoms: C_22  and  C_23
REMARK    5  A    between atoms: C_23  and  N_24
REMARK    6  A    between atoms: C_25  and  C_27
REMARK                            x       y       z     vdW  Elec       q    Type
REMARK                         _______ _______ _______ _____ _____    ______ ____
ROOT
ATOM      4  C   UNL     1      -1.207   0.169  24.419  0.00  0.00    +0.006 C 
ATOM      5  C   UNL     1      -1.906   0.606  24.456  0.00  0.00    +0.005 C 
ATOM      6  C   UNL     1      -2.014   1.253  23.957  0.00  0.00    +0.027 C 
ATOM     19  C   UNL     1      -1.424   1.464  23.421  0.00  0.00    -0.048 C 
ATOM     20  C   UNL     1      -1.533   2.112  22.922  0.00  0.00    +0.026 C 
ATOM     21  C   UNL     1      -0.725   1.027  23.384  0.00  0.00    -0.033 C 
ATOM     22  C   UNL     1      -0.616   0.380  23.883  0.00  0.00    +0.043 C 
ENDROOT
BRANCH   4   2
ATOM      1  C   UNL     1      -1.247  -1.242  24.641  0.00  0.00    +0.000 C 
ATOM      2  C   UNL     1      -1.099  -0.479  24.919  0.00  0.00    +0.000 C 
ATOM      3  C   UNL     1      -0.843  -0.364  25.694  0.00  0.00    +0.000 C 
ENDBRANCH   4   2
BRANCH   6   7
ATOM      7  C   UNL     1      -2.714   1.690  23.994  0.00  0.00    +0.089 C 
BRANCH   7   8
ATOM      8  C   UNL     1      -3.439   1.303  24.067  0.00  0.00    +0.226 C 
ATOM      9  O   UNL     1      -3.570   0.593  23.668  0.00  0.00    -0.275 OA
ATOM     10  N   UNL     1      -4.032   1.626  24.540  0.00  0.00    -0.276 N 
ATOM     11  C   UNL     1      -3.901   2.336  24.940  0.00  0.00    +0.115 C 
ATOM     12  C   UNL     1      -4.494   2.659  25.413  0.00  0.00    +0.115 C 
ATOM     13  N   UNL     1      -5.220   2.271  25.487  0.00  0.00    -0.276 N 
ATOM     14  C   UNL     1      -5.351   1.562  25.088  0.00  0.00    +0.115 C 
ATOM     15  C   UNL     1      -4.758   1.238  24.614  0.00  0.00    +0.115 C 
ATOM     16  C   UNL     1      -5.813   2.595  25.960  0.00  0.00    +0.226 C 
ATOM     17  C   UNL     1      -6.538   2.208  26.034  0.00  0.00    +0.095 C 
ATOM     18  O   UNL     1      -5.682   3.304  26.360  0.00  0.00    -0.275 OA
ENDBRANCH   7   8
ENDBRANCH   6   7
BRANCH  22  23
ATOM     23  C   UNL     1       0.082  -0.057  23.847  0.00  0.00    +0.120 C 
BRANCH  23  24
ATOM     24  N   UNL     1       0.719   0.218  23.400  0.00  0.00    -0.201 NA
ATOM     25  C   UNL     1       1.395  -0.246  23.317  0.00  0.00    +0.265 C 
ATOM     26  O   UNL     1       1.436  -0.986  23.679  0.00  0.00    -0.268 OA
BRANCH  25  27
ATOM     27  C   UNL     1       2.032   0.030  22.869  0.00  0.00    +0.057 A 
ATOM     28  C   UNL     1       2.122  -0.214  22.086  0.00  0.00    +0.005 A 
ATOM     29  C   UNL     1       2.759   0.062  21.639  0.00  0.00    +0.002 A 
ATOM     30  C   UNL     1       3.306   0.580  21.976  0.00  0.00    +0.030 A 
ATOM     31  C   UNL     1       3.215   0.823  22.759  0.00  0.00    +0.140 A 
ATOM     32  F   UNL     1       3.762   1.341  23.095  0.00  0.00    -0.204 F 
ATOM     33  C   UNL     1       2.578   0.547  23.206  0.00  0.00    +0.034 A 
ENDBRANCH  25  27
ENDBRANCH  23  24
ENDBRANCH  22  23
TORSDOF 6
ENDMDL
