MODEL 1
REMARK VINA RESULT:     -11.3      0.000      0.000
REMARK  Name = 
REMARK  3 active torsions:
REMARK  status: ('A' for Active; 'I' for Inactive)
REMARK    1  A    between atoms: N_6  and  C_7
REMARK    2  A    between atoms: C_7  and  C_8
REMARK    3  A    between atoms: N_17  and  C_18
REMARK                            x       y       z     vdW  Elec       q    Type
REMARK                         _______ _______ _______ _____ _____    ______ ____
ROOT
ATOM      1  O   UNL     1      -4.818  -0.028  25.470  0.00  0.00    -0.252 OA
ATOM      2  C   UNL     1      -4.220   0.236  24.967  0.00  0.00    +0.311 C 
ATOM      3  N   UNL     1      -4.013   1.022  24.828  0.00  0.00    -0.261 N 
ATOM      4  C   UNL     1      -4.313   1.732  25.123  0.00  0.00    +0.112 C 
ATOM      5  C   UNL     1      -3.990   2.450  24.879  0.00  0.00    +0.094 C 
ATOM      6  N   UNL     1      -3.365   2.458  24.341  0.00  0.00    -0.266 NA
ATOM     14  C   UNL     1      -3.064   1.749  24.046  0.00  0.00    +0.094 C 
ATOM     15  C   UNL     1      -3.389   1.031  24.290  0.00  0.00    +0.113 C 
ATOM     16  C   UNL     1      -3.209   0.250  24.095  0.00  0.00    +0.121 C 
ATOM     17  N   UNL     1      -3.722  -0.242  24.513  0.00  0.00    -0.241 N 
ENDROOT
BRANCH  17  18
ATOM     18  C   UNL     1      -3.736  -1.066  24.484  0.00  0.00    +0.055 A 
ATOM     19  C   UNL     1      -3.305  -1.506  25.033  0.00  0.00    +0.015 A 
ATOM     20  C   UNL     1      -3.319  -2.331  25.004  0.00  0.00    +0.001 A 
ATOM     21  C   UNL     1      -3.763  -2.715  24.425  0.00  0.00    +0.000 A 
ATOM     22  C   UNL     1      -4.194  -2.276  23.875  0.00  0.00    +0.001 A 
ATOM     23  C   UNL     1      -4.180  -1.451  23.905  0.00  0.00    +0.015 A 
ENDBRANCH  17  18
BRANCH   6   7
ATOM      7  C   UNL     1      -3.040   3.177  24.097  0.00  0.00    +0.101 C 
BRANCH   7   8
ATOM      8  C   UNL     1      -2.427   3.520  24.529  0.00  0.00    +0.013 A 
ATOM      9  C   UNL     1      -2.595   4.085  25.107  0.00  0.00    +0.000 A 
ATOM     10  C   UNL     1      -1.981   4.427  25.539  0.00  0.00    +0.020 A 
ATOM     11  C   UNL     1      -1.200   4.206  25.393  0.00  0.00    +0.099 A 
ATOM     12  N   UNL     1      -1.032   3.641  24.816  0.00  0.00    -0.243 NA
ATOM     13  C   UNL     1      -1.645   3.298  24.383  0.00  0.00    +0.096 A 
ENDBRANCH   7   8
ENDBRANCH   6   7
TORSDOF 3
ENDMDL
MODEL 2
REMARK VINA RESULT:     -11.1      1.217      4.895
REMARK  Name = 
REMARK  3 active torsions:
REMARK  status: ('A' for Active; 'I' for Inactive)
REMARK    1  A    between atoms: N_6  and  C_7
REMARK    2  A    between atoms: C_7  and  C_8
REMARK    3  A    between atoms: N_17  and  C_18
REMARK                            x       y       z     vdW  Elec       q    Type
REMARK                         _______ _______ _______ _____ _____    ______ ____
ROOT
ATOM      1  O   UNL     1      -2.048   2.626  23.222  0.00  0.00    -0.252 OA
ATOM      2  C   UNL     1      -2.412   2.354  23.909  0.00  0.00    +0.311 C 
ATOM      3  N   UNL     1      -2.886   1.683  23.974  0.00  0.00    -0.261 N 
ATOM      4  C   UNL     1      -3.125   1.119  23.420  0.00  0.00    +0.112 C 
ATOM      5  C   UNL     1      -3.610   0.494  23.650  0.00  0.00    +0.094 C 
ATOM      6  N   UNL     1      -3.858   0.431  24.434  0.00  0.00    -0.266 NA
ATOM     14  C   UNL     1      -3.620   0.993  24.989  0.00  0.00    +0.094 C 
ATOM     15  C   UNL     1      -3.134   1.620  24.758  0.00  0.00    +0.113 C 
ATOM     16  C   UNL     1      -2.813   2.252  25.179  0.00  0.00    +0.121 C 
ATOM     17  N   UNL     1      -2.367   2.707  24.654  0.00  0.00    -0.241 N 
ENDROOT
BRANCH  17  18
ATOM     18  C   UNL     1      -1.949   3.393  24.841  0.00  0.00    +0.055 A 
ATOM     19  C   UNL     1      -1.128   3.369  24.913  0.00  0.00    +0.015 A 
ATOM     20  C   UNL     1      -0.710   4.056  25.100  0.00  0.00    +0.001 A 
ATOM     21  C   UNL     1      -1.113   4.765  25.216  0.00  0.00    +0.000 A 
ATOM     22  C   UNL     1      -1.935   4.790  25.144  0.00  0.00    +0.001 A 
ATOM     23  C   UNL     1      -2.353   4.104  24.957  0.00  0.00    +0.015 A 
ENDBRANCH  17  18
BRANCH   6   7
ATOM      7  C   UNL     1      -4.344  -0.195  24.665  0.00  0.00    +0.101 C 
BRANCH   7   8
ATOM      8  C   UNL     1      -4.034  -0.957  24.724  0.00  0.00    +0.013 A 
ATOM      9  C   UNL     1      -4.110  -1.485  24.094  0.00  0.00    +0.000 A 
ATOM     10  C   UNL     1      -3.800  -2.247  24.155  0.00  0.00    +0.020 A 
ATOM     11  C   UNL     1      -3.413  -2.481  24.844  0.00  0.00    +0.099 A 
ATOM     12  N   UNL     1      -3.336  -1.954  25.474  0.00  0.00    -0.243 NA
ATOM     13  C   UNL     1      -3.646  -1.192  25.415  0.00  0.00    +0.096 A 
ENDBRANCH   7   8
ENDBRANCH   6   7
TORSDOF 3
ENDMDL
MODEL 3
REMARK VINA RESULT:     -10.8      1.115      1.589
REMARK  Name = 
REMARK  3 active torsions:
REMARK  status: ('A' for Active; 'I' for Inactive)
REMARK    1  A    between atoms: N_6  and  C_7
REMARK    2  A    between atoms: C_7  and  C_8
REMARK    3  A    between atoms: N_17  and  C_18
REMARK                            x       y       z     vdW  Elec       q    Type
REMARK                         _______ _______ _______ _____ _____    ______ ____
ROOT
ATOM      1  O   UNL     1      -1.764  -0.640  24.158  0.00  0.00    -0.252 OA
ATOM      2  C   UNL     1      -2.451  -0.191  24.242  0.00  0.00    +0.311 C 
ATOM      3  N   UNL     1      -2.500   0.631  24.209  0.00  0.00    -0.261 N 
ATOM      4  C   UNL     1      -1.928   1.214  24.091  0.00  0.00    +0.112 C 
ATOM      5  C   UNL     1      -2.145   2.010  24.085  0.00  0.00    +0.094 C 
ATOM      6  N   UNL     1      -2.934   2.223  24.197  0.00  0.00    -0.266 NA
ATOM     14  C   UNL     1      -3.507   1.640  24.314  0.00  0.00    +0.094 C 
ATOM     15  C   UNL     1      -3.289   0.844  24.320  0.00  0.00    +0.113 C 
ATOM     16  C   UNL     1      -3.728   0.153  24.422  0.00  0.00    +0.121 C 
ATOM     17  N   UNL     1      -3.210  -0.487  24.374  0.00  0.00    -0.241 N 
ENDROOT
BRANCH  17  18
ATOM     18  C   UNL     1      -3.415  -1.283  24.446  0.00  0.00    +0.055 A 
ATOM     19  C   UNL     1      -3.839  -1.656  23.844  0.00  0.00    +0.015 A 
ATOM     20  C   UNL     1      -4.044  -2.452  23.916  0.00  0.00    +0.001 A 
ATOM     21  C   UNL     1      -3.825  -2.875  24.588  0.00  0.00    +0.000 A 
ATOM     22  C   UNL     1      -3.401  -2.503  25.191  0.00  0.00    +0.001 A 
ATOM     23  C   UNL     1      -3.196  -1.707  25.119  0.00  0.00    +0.015 A 
ENDBRANCH  17  18
BRANCH   6   7
ATOM      7  C   UNL     1      -3.152   3.019  24.190  0.00  0.00    +0.101 C 
BRANCH   7   8
ATOM      8  C   UNL     1      -3.089   3.469  24.879  0.00  0.00    +0.013 A 
ATOM      9  C   UNL     1      -2.387   3.869  25.048  0.00  0.00    +0.000 A 
ATOM     10  C   UNL     1      -2.325   4.319  25.737  0.00  0.00    +0.020 A 
ATOM     11  C   UNL     1      -2.963   4.367  26.257  0.00  0.00    +0.099 A 
ATOM     12  N   UNL     1      -3.664   3.966  26.089  0.00  0.00    -0.243 NA
ATOM     13  C   UNL     1      -3.728   3.517  25.400  0.00  0.00    +0.096 A 
ENDBRANCH   7   8
ENDBRANCH   6   7
TORSDOF 3
ENDMDL
