REMARK  Name = 
REMARK  2 active torsions:
REMARK  status: ('A' for Active; 'I' for Inactive)
REMARK    1  A    between atoms: C_2  and  C_23
REMARK    2  A    between atoms: C_10  and  C_17
REMARK                            x       y       z     vdW  Elec       q    Type
REMARK                         _______ _______ _______ _____ _____    ______ ____
ROOT
ATOM      1  O   UNL     1       0.392  -3.536   0.000  0.00  0.00    -0.269 OA
ATOM      2  C   UNL     1       0.180  -2.676   0.000  0.00  0.00    +0.255 C 
ATOM      3  N   UNL     1       0.813  -2.091   0.000  0.00  0.00    -0.275 N 
ATOM      4  C   UNL     1       1.629  -1.912   0.000  0.00  0.00    +0.096 C 
ATOM      5  C   UNL     1       1.582  -0.925   0.000  0.00  0.00    +0.043 C 
ATOM      6  C   UNL     1       1.713  -0.121   0.000  0.00  0.00    +0.011 C 
ATOM      7  C   UNL     1       1.163  -0.557   0.000  0.00  0.00    +0.058 C 
ATOM      8  C   UNL     1       1.225  -1.510   0.000  0.00  0.00    +0.100 C 
ATOM      9  C   UNL     1       0.244  -0.558   0.000  0.00  0.00    +0.041 A 
ATOM     10  C   UNL     1      -0.397  -0.039   0.000  0.00  0.00    +0.012 A 
ATOM     11  C   UNL     1      -1.167  -0.335   0.000  0.00  0.00    +0.006 A 
ATOM     12  C   UNL     1      -1.296  -1.150   0.000  0.00  0.00    +0.061 A 
ATOM     13  C   UNL     1      -0.655  -1.669   0.000  0.00  0.00    +0.261 A 
ATOM     14  O   UNL     1      -0.610  -2.703   0.000  0.00  0.00    -0.267 OA
ATOM     15  N   UNL     1       0.115  -1.373   0.000  0.00  0.00    -0.299 N 
ATOM     16  C   UNL     1       0.622  -0.936   0.000  0.00  0.00    +0.110 C 
ENDROOT
BRANCH  10  17
ATOM     17  C   UNL     1      -0.268   0.776   0.000  0.00  0.00    +0.001 A 
ATOM     18  C   UNL     1      -0.909   1.295   0.000  0.00  0.00    +0.000 A 
ATOM     19  C   UNL     1      -0.780   2.110   0.000  0.00  0.00    +0.000 A 
ATOM     20  C   UNL     1      -0.010   2.406   0.000  0.00  0.00    +0.000 A 
ATOM     21  C   UNL     1       0.631   1.887   0.000  0.00  0.00    +0.000 A 
ATOM     22  C   UNL     1       0.502   1.072   0.000  0.00  0.00    +0.000 A 
ENDBRANCH  10  17
BRANCH   2  23
ATOM     23  C   UNL     1      -0.614  -2.179   0.000  0.00  0.00    +0.083 A 
ATOM     24  C   UNL     1      -0.750  -1.366   0.000  0.00  0.00    +0.012 A 
ATOM     25  C   UNL     1      -1.566  -1.244   0.000  0.00  0.00    +0.008 A 
ATOM     26  C   UNL     1      -1.934  -1.982   0.000  0.00  0.00    +0.036 A 
ATOM     27  S   UNL     1      -1.345  -2.561   0.000  0.00  0.00    -0.082 S 
ENDBRANCH   2  23
TORSDOF 2
