REMARK  Name = 
REMARK  4 active torsions:
REMARK  status: ('A' for Active; 'I' for Inactive)
REMARK    1  A    between atoms: S_2  and  C_3
REMARK    2  A    between atoms: C_6  and  C_9
REMARK    3  A    between atoms: C_19  and  C_21
REMARK    4  A    between atoms: C_24  and  C_27
REMARK                            x       y       z     vdW  Elec       q    Type
REMARK                         _______ _______ _______ _____ _____    ______ ____
ROOT
ATOM      9  C   UNL     1      -1.213  -1.232   0.000  0.00  0.00    +0.056 A 
ATOM     10  C   UNL     1      -1.167  -0.335   0.000  0.00  0.00    +0.006 A 
ATOM     11  C   UNL     1      -0.397  -0.039   0.000  0.00  0.00    +0.013 A 
ATOM     12  C   UNL     1       0.244  -0.558   0.000  0.00  0.00    +0.041 A 
ATOM     13  C   UNL     1       1.163  -0.557   0.000  0.00  0.00    +0.058 C 
ATOM     14  C   UNL     1       1.713  -0.121   0.000  0.00  0.00    +0.011 C 
ATOM     15  C   UNL     1       1.582  -0.925   0.000  0.00  0.00    +0.043 C 
ATOM     16  C   UNL     1       1.629  -1.912   0.000  0.00  0.00    +0.096 C 
ATOM     17  N   UNL     1       0.813  -2.091   0.000  0.00  0.00    -0.276 N 
ATOM     18  C   UNL     1       1.225  -1.510   0.000  0.00  0.00    +0.099 C 
ATOM     19  C   UNL     1       0.199  -2.667   0.000  0.00  0.00    +0.249 C 
ATOM     20  O   UNL     1       0.539  -3.476   0.000  0.00  0.00    -0.270 OA
ATOM     29  C   UNL     1       0.622  -0.936   0.000  0.00  0.00    +0.110 C 
ATOM     30  N   UNL     1       0.115  -1.373   0.000  0.00  0.00    -0.299 N 
ATOM     31  C   UNL     1      -0.655  -1.669   0.000  0.00  0.00    +0.261 A 
ATOM     32  O   UNL     1      -0.532  -2.692   0.000  0.00  0.00    -0.267 OA
ENDROOT
BRANCH   9   6
ATOM      3  C   UNL     1      -3.606  -2.037   0.000  0.00  0.00    +0.025 A 
ATOM      4  C   UNL     1      -3.478  -1.222   0.000  0.00  0.00    +0.006 A 
ATOM      5  C   UNL     1      -2.625  -0.844   0.000  0.00  0.00    +0.001 A 
ATOM      6  C   UNL     1      -1.819  -1.693   0.000  0.00  0.00    +0.005 A 
ATOM      7  C   UNL     1      -2.360  -2.095   0.000  0.00  0.00    +0.001 A 
ATOM      8  C   UNL     1      -2.965  -2.556   0.000  0.00  0.00    +0.006 A 
BRANCH   3   2
ATOM      1  C   UNL     1      -5.181  -1.923   0.000  0.00  0.00    +0.074 C 
ATOM      2  S   UNL     1      -4.438  -2.347   0.000  0.00  0.00    -0.113 S 
ENDBRANCH   3   2
ENDBRANCH   9   6
BRANCH  19  21
ATOM     21  C   UNL     1      -0.614  -2.179   0.000  0.00  0.00    +0.054 A 
ATOM     22  C   UNL     1      -1.301  -2.635   0.000  0.00  0.00    +0.005 A 
ATOM     23  C   UNL     1      -2.040  -2.267   0.000  0.00  0.00    +0.010 A 
ATOM     24  C   UNL     1      -2.091  -1.444   0.000  0.00  0.00    +0.068 A 
ATOM     25  C   UNL     1      -1.403  -0.988   0.000  0.00  0.00    +0.010 A 
ATOM     26  C   UNL     1      -0.664  -1.356   0.000  0.00  0.00    +0.005 A 
BRANCH  24  27
ATOM     27  C   UNL     1      -2.952  -1.152   0.000  0.00  0.00    +0.100 C 
ATOM     28  N   UNL     1      -3.478  -0.379   0.000  0.00  0.00    -0.191 NA
ENDBRANCH  24  27
ENDBRANCH  19  21
TORSDOF 4
