MODEL 1
REMARK VINA RESULT:     -11.8      0.000      0.000
REMARK  Name = 
REMARK  4 active torsions:
REMARK  status: ('A' for Active; 'I' for Inactive)
REMARK    1  A    between atoms: C_2  and  C_4
REMARK    2  A    between atoms: C_4  and  N_5
REMARK    3  A    between atoms: C_8  and  C_10
REMARK    4  A    between atoms: C_16  and  C_19
REMARK                            x       y       z     vdW  Elec       q    Type
REMARK                         _______ _______ _______ _____ _____    ______ ____
ROOT
ATOM     10  C   UNL     1      -3.790   0.927  24.752  0.00  0.00    +0.140 A 
ATOM     11  N   UNL     1      -3.602   0.464  25.408  0.00  0.00    -0.229 NA
ATOM     12  C   UNL     1      -3.653  -0.328  25.184  0.00  0.00    +0.100 A 
ATOM     13  C   UNL     1      -3.874  -0.354  24.389  0.00  0.00    +0.100 A 
ATOM     14  N   UNL     1      -3.959   0.421  24.122  0.00  0.00    -0.229 NA
ATOM     15  C   UNL     1      -3.970  -1.082  24.012  0.00  0.00    +0.025 A 
ATOM     16  C   UNL     1      -3.844  -1.782  24.429  0.00  0.00    +0.073 A 
ATOM     17  C   UNL     1      -3.623  -1.756  25.223  0.00  0.00    +0.005 A 
ATOM     18  C   UNL     1      -3.528  -1.029  25.601  0.00  0.00    +0.021 A 
ENDROOT
BRANCH  10   8
ATOM      5  N   UNL     1      -3.425   3.031  24.735  0.00  0.00    -0.272 NA
ATOM      6  C   UNL     1      -4.245   3.011  24.652  0.00  0.00    +0.073 C 
ATOM      7  C   UNL     1      -4.482   2.221  24.649  0.00  0.00    +0.026 C 
ATOM      8  C   UNL     1      -3.808   1.752  24.729  0.00  0.00    +0.076 C 
ATOM      9  C   UNL     1      -3.154   2.252  24.783  0.00  0.00    +0.080 C 
BRANCH   5   4
ATOM      4  C   UNL     1      -2.956   3.709  24.765  0.00  0.00    +0.072 C 
BRANCH   4   2
ATOM      1  C   UNL     1      -2.993   4.233  26.094  0.00  0.00    +0.001 C 
ATOM      2  C   UNL     1      -2.568   3.912  25.465  0.00  0.00    +0.016 C 
ATOM      3  C   UNL     1      -1.754   3.793  25.534  0.00  0.00    +0.001 C 
ENDBRANCH   4   2
ENDBRANCH   5   4
ENDBRANCH  10   8
BRANCH  16  19
ATOM     19  C   UNL     1      -3.940  -2.509  24.052  0.00  0.00    +0.419 C 
ATOM     20  F   UNL     1      -4.035  -3.237  23.674  0.00  0.00    -0.166 F 
ATOM     21  F   UNL     1      -4.717  -2.309  23.861  0.00  0.00    -0.166 F 
ATOM     22  F   UNL     1      -3.162  -2.710  24.242  0.00  0.00    -0.166 F 
ENDBRANCH  16  19
TORSDOF 4
ENDMDL
MODEL 2
REMARK VINA RESULT:     -11.5      3.181      5.266
REMARK  Name = 
REMARK  4 active torsions:
REMARK  status: ('A' for Active; 'I' for Inactive)
REMARK    1  A    between atoms: C_2  and  C_4
REMARK    2  A    between atoms: C_4  and  N_5
REMARK    3  A    between atoms: C_8  and  C_10
REMARK    4  A    between atoms: C_16  and  C_19
REMARK                            x       y       z     vdW  Elec       q    Type
REMARK                         _______ _______ _______ _____ _____    ______ ____
ROOT
ATOM     10  C   UNL     1      -2.583   1.665  24.722  0.00  0.00    +0.140 A 
ATOM     11  N   UNL     1      -1.842   1.671  25.085  0.00  0.00    -0.229 NA
ATOM     12  C   UNL     1      -1.607   2.456  25.173  0.00  0.00    +0.100 A 
ATOM     13  C   UNL     1      -2.203   2.936  24.864  0.00  0.00    +0.100 A 
ATOM     14  N   UNL     1      -2.806   2.448  24.585  0.00  0.00    -0.229 NA
ATOM     15  C   UNL     1      -2.118   3.757  24.877  0.00  0.00    +0.025 A 
ATOM     16  C   UNL     1      -1.439   4.097  25.197  0.00  0.00    +0.073 A 
ATOM     17  C   UNL     1      -0.843   3.617  25.506  0.00  0.00    +0.005 A 
ATOM     18  C   UNL     1      -0.927   2.796  25.494  0.00  0.00    +0.021 A 
ENDROOT
BRANCH  10   8
ATOM      5  N   UNL     1      -3.664  -0.173  24.620  0.00  0.00    -0.272 NA
ATOM      6  C   UNL     1      -3.741   0.100  23.845  0.00  0.00    +0.073 C 
ATOM      7  C   UNL     1      -3.345   0.822  23.789  0.00  0.00    +0.026 C 
ATOM      8  C   UNL     1      -3.024   0.995  24.530  0.00  0.00    +0.076 C 
ATOM      9  C   UNL     1      -3.221   0.380  25.043  0.00  0.00    +0.080 C 
BRANCH   5   4
ATOM      4  C   UNL     1      -3.976  -0.875  24.920  0.00  0.00    +0.072 C 
BRANCH   4   2
ATOM      1  C   UNL     1      -3.120  -2.019  24.952  0.00  0.00    +0.001 C 
ATOM      2  C   UNL     1      -3.739  -1.600  24.604  0.00  0.00    +0.016 C 
ATOM      3  C   UNL     1      -4.123  -1.905  23.940  0.00  0.00    +0.001 C 
ENDBRANCH   4   2
ENDBRANCH   5   4
ENDBRANCH  10   8
BRANCH  16  19
ATOM     19  C   UNL     1      -1.355   4.917  25.210  0.00  0.00    +0.419 C 
ATOM     20  F   UNL     1      -1.270   5.738  25.222  0.00  0.00    -0.166 F 
ATOM     21  F   UNL     1      -1.997   4.976  25.724  0.00  0.00    -0.166 F 
ATOM     22  F   UNL     1      -0.711   4.859  24.696  0.00  0.00    -0.166 F 
ENDBRANCH  16  19
TORSDOF 4
ENDMDL
