MODEL 1
REMARK VINA RESULT:     -10.3      0.000      0.000
REMARK  Name = 
REMARK  11 active torsions:
REMARK  status: ('A' for Active; 'I' for Inactive)
REMARK    1  A    between atoms: O_2  and  C_3
REMARK    2  A    between atoms: C_6  and  C_7
REMARK    3  A    between atoms: C_7  and  C_8
REMARK    4  A    between atoms: C_8  and  N_9
REMARK    5  A    between atoms: C_8  and  C_34
REMARK    6  A    between atoms: C_10  and  C_12
REMARK    7  A    between atoms: C_19  and  N_21
REMARK    8  A    between atoms: C_22  and  C_24
REMARK    9  A    between atoms: C_24  and  C_25
REMARK   10  A    between atoms: C_25  and  C_26
REMARK   11  A    between atoms: C_26  and  C_27
REMARK                            x       y       z     vdW  Elec       q    Type
REMARK                         _______ _______ _______ _____ _____    ______ ____
ROOT
ATOM     12  C   UNL     1      -0.783   1.754  25.264  0.00  0.00    +0.200 C 
ATOM     13  O   UNL     1      -1.365   1.857  25.840  0.00  0.00    -0.216 OA
ATOM     14  C   UNL     1      -0.197   1.936  24.714  0.00  0.00    +0.075 C 
ATOM     15  C   UNL     1       0.175   1.333  24.291  0.00  0.00    +0.187 C 
ATOM     16  O   UNL     1       0.761   1.515  23.741  0.00  0.00    -0.220 OA
ATOM     17  C   UNL     1      -0.040   0.547  24.418  0.00  0.00    +0.202 C 
ATOM     18  O   UNL     1       0.331  -0.057  23.996  0.00  0.00    -0.219 OA
ATOM     19  C   UNL     1      -0.627   0.364  24.969  0.00  0.00    +0.131 C 
ATOM     20  C   UNL     1      -0.999   0.967  25.392  0.00  0.00    +0.064 C 
ENDROOT
BRANCH  12  10
ATOM      9  N   UNL     1      -1.372   3.028  25.000  0.00  0.00    -0.195 NA
ATOM     10  C   UNL     1      -0.770   2.575  25.336  0.00  0.00    +0.269 C 
ATOM     11  O   UNL     1      -0.155   2.944  25.744  0.00  0.00    -0.271 OA
BRANCH   9   8
ATOM      8  C   UNL     1      -1.359   3.851  25.071  0.00  0.00    +0.179 C 
BRANCH   8  34
ATOM     34  C   UNL     1      -0.863   4.298  24.587  0.00  0.00    +0.281 C 
ATOM     35  N   UNL     1      -0.399   4.898  24.913  0.00  0.00    -0.086 NA
ATOM     36  O   UNL     1      -0.831   4.146  23.777  0.00  0.00    -0.270 OA
ENDBRANCH   8  34
BRANCH   8   7
ATOM      7  C   UNL     1      -1.841   4.224  25.627  0.00  0.00    +0.057 C 
BRANCH   7   6
ATOM      3  C   UNL     1      -4.301   4.012  25.469  0.00  0.00    +0.139 A 
ATOM      4  C   UNL     1      -3.853   4.130  24.787  0.00  0.00    +0.037 A 
ATOM      5  C   UNL     1      -3.033   4.201  24.839  0.00  0.00    -0.001 A 
ATOM      6  C   UNL     1      -2.661   4.153  25.574  0.00  0.00    -0.020 A 
ATOM     37  C   UNL     1      -3.109   4.035  26.256  0.00  0.00    -0.001 A 
ATOM     38  C   UNL     1      -3.930   3.965  26.204  0.00  0.00    +0.037 A 
BRANCH   3   2
ATOM      1  C   UNL     1      -5.482   3.208  25.535  0.00  0.00    +0.252 C 
ATOM      2  O   UNL     1      -5.122   3.941  25.417  0.00  0.00    -0.471 OA
ENDBRANCH   3   2
ENDBRANCH   7   6
ENDBRANCH   8   7
ENDBRANCH   9   8
ENDBRANCH  12  10
BRANCH  19  21
ATOM     21  N   UNL     1      -0.843  -0.422  25.097  0.00  0.00    -0.204 NA
ATOM     22  C   UNL     1      -1.602  -0.677  24.904  0.00  0.00    +0.241 C 
ATOM     23  O   UNL     1      -2.147  -0.148  24.583  0.00  0.00    -0.273 OA
BRANCH  22  24
ATOM     24  C   UNL     1      -1.818  -1.464  25.032  0.00  0.00    +0.087 C 
BRANCH  24  25
ATOM     25  C   UNL     1      -2.616  -1.672  25.069  0.00  0.00    +0.019 C 
ATOM     30  C   UNL     1      -2.567  -1.378  25.838  0.00  0.00    +0.001 C 
ATOM     31  C   UNL     1      -3.310  -1.457  26.189  0.00  0.00    +0.000 C 
ATOM     32  C   UNL     1      -3.818  -1.799  25.635  0.00  0.00    +0.000 C 
ATOM     33  C   UNL     1      -3.388  -1.932  24.944  0.00  0.00    +0.001 C 
BRANCH  25  26
ATOM     26  C   UNL     1      -2.498  -1.922  24.292  0.00  0.00    +0.115 C 
BRANCH  26  27
ATOM     27  C   UNL     1      -2.482  -2.728  24.116  0.00  0.00    +0.365 C 
ATOM     28  O   UNL     1      -3.158  -3.098  23.820  0.00  0.00    -0.246 OA
ATOM     29  O   UNL     1      -1.792  -3.164  24.236  0.00  0.00    -0.246 OA
ENDBRANCH  26  27
ENDBRANCH  25  26
ENDBRANCH  24  25
ENDBRANCH  22  24
ENDBRANCH  19  21
TORSDOF 11
ENDMDL
MODEL 2
REMARK VINA RESULT:     -10.1      1.287      4.995
REMARK  Name = 
REMARK  11 active torsions:
REMARK  status: ('A' for Active; 'I' for Inactive)
REMARK    1  A    between atoms: O_2  and  C_3
REMARK    2  A    between atoms: C_6  and  C_7
REMARK    3  A    between atoms: C_7  and  C_8
REMARK    4  A    between atoms: C_8  and  N_9
REMARK    5  A    between atoms: C_8  and  C_34
REMARK    6  A    between atoms: C_10  and  C_12
REMARK    7  A    between atoms: C_19  and  N_21
REMARK    8  A    between atoms: C_22  and  C_24
REMARK    9  A    between atoms: C_24  and  C_25
REMARK   10  A    between atoms: C_25  and  C_26
REMARK   11  A    between atoms: C_26  and  C_27
REMARK                            x       y       z     vdW  Elec       q    Type
REMARK                         _______ _______ _______ _____ _____    ______ ____
ROOT
ATOM     12  C   UNL     1      -1.243   1.746  24.491  0.00  0.00    +0.200 C 
ATOM     13  O   UNL     1      -1.547   1.308  23.862  0.00  0.00    -0.216 OA
ATOM     14  C   UNL     1      -0.728   1.995  25.085  0.00  0.00    +0.075 C 
ATOM     15  C   UNL     1      -0.929   2.638  25.564  0.00  0.00    +0.187 C 
ATOM     16  O   UNL     1      -0.414   2.886  26.157  0.00  0.00    -0.220 OA
ATOM     17  C   UNL     1      -1.644   3.031  25.447  0.00  0.00    +0.202 C 
ATOM     18  O   UNL     1      -1.845   3.673  25.924  0.00  0.00    -0.219 OA
ATOM     19  C   UNL     1      -2.160   2.782  24.852  0.00  0.00    +0.131 C 
ATOM     20  C   UNL     1      -1.960   2.140  24.374  0.00  0.00    +0.064 C 
ENDROOT
BRANCH  12  10
ATOM      9  N   UNL     1      -0.799   0.446  24.102  0.00  0.00    -0.195 NA
ATOM     10  C   UNL     1      -0.633   1.201  24.389  0.00  0.00    +0.269 C 
ATOM     11  O   UNL     1       0.143   1.410  24.575  0.00  0.00    -0.271 OA
BRANCH   9   8
ATOM      8  C   UNL     1      -0.188  -0.100  24.000  0.00  0.00    +0.179 C 
BRANCH   8  34
ATOM     34  C   UNL     1       0.336  -0.018  23.369  0.00  0.00    +0.281 C 
ATOM     35  N   UNL     1       1.150  -0.053  23.500  0.00  0.00    -0.086 NA
ATOM     36  O   UNL     1       0.046   0.099  22.604  0.00  0.00    -0.270 OA
ENDBRANCH   8  34
BRANCH   8   7
ATOM      7  C   UNL     1      -0.103  -0.727  24.529  0.00  0.00    +0.057 C 
BRANCH   7   6
ATOM      3  C   UNL     1      -1.923  -2.383  24.790  0.00  0.00    +0.139 A 
ATOM      4  C   UNL     1      -1.516  -2.327  24.075  0.00  0.00    +0.037 A 
ATOM      5  C   UNL     1      -0.909  -1.776  23.988  0.00  0.00    -0.001 A 
ATOM      6  C   UNL     1      -0.709  -1.279  24.616  0.00  0.00    -0.020 A 
ATOM     37  C   UNL     1      -1.117  -1.334  25.331  0.00  0.00    -0.001 A 
ATOM     38  C   UNL     1      -1.725  -1.887  25.418  0.00  0.00    +0.037 A 
BRANCH   3   2
ATOM      1  C   UNL     1      -3.315  -2.708  24.757  0.00  0.00    +0.252 C 
ATOM      2  O   UNL     1      -2.531  -2.935  24.877  0.00  0.00    -0.471 OA
ENDBRANCH   3   2
ENDBRANCH   7   6
ENDBRANCH   8   7
ENDBRANCH   9   8
ENDBRANCH  12  10
BRANCH  19  21
ATOM     21  N   UNL     1      -2.875   3.175  24.736  0.00  0.00    -0.204 NA
ATOM     22  C   UNL     1      -3.585   2.807  24.937  0.00  0.00    +0.241 C 
ATOM     23  O   UNL     1      -3.580   2.046  25.255  0.00  0.00    -0.273 OA
BRANCH  22  24
ATOM     24  C   UNL     1      -4.301   3.201  24.820  0.00  0.00    +0.087 C 
BRANCH  24  25
ATOM     25  C   UNL     1      -5.006   2.862  25.086  0.00  0.00    +0.019 C 
ATOM     30  C   UNL     1      -4.904   2.355  24.444  0.00  0.00    +0.001 C 
ATOM     31  C   UNL     1      -5.535   1.824  24.435  0.00  0.00    +0.000 C 
ATOM     32  C   UNL     1      -6.027   2.004  25.072  0.00  0.00    +0.000 C 
ATOM     33  C   UNL     1      -5.700   2.645  25.474  0.00  0.00    +0.001 C 
BRANCH  25  26
ATOM     26  C   UNL     1      -4.961   3.441  25.673  0.00  0.00    +0.115 C 
BRANCH  26  27
ATOM     27  C   UNL     1      -5.465   4.094  25.648  0.00  0.00    +0.365 C 
ATOM     28  O   UNL     1      -6.150   4.103  26.109  0.00  0.00    -0.246 OA
ATOM     29  O   UNL     1      -5.284   4.736  25.163  0.00  0.00    -0.246 OA
ENDBRANCH  26  27
ENDBRANCH  25  26
ENDBRANCH  24  25
ENDBRANCH  22  24
ENDBRANCH  19  21
TORSDOF 11
ENDMDL
MODEL 3
REMARK VINA RESULT:      -9.7      1.569      3.583
REMARK  Name = 
REMARK  11 active torsions:
REMARK  status: ('A' for Active; 'I' for Inactive)
REMARK    1  A    between atoms: O_2  and  C_3
REMARK    2  A    between atoms: C_6  and  C_7
REMARK    3  A    between atoms: C_7  and  C_8
REMARK    4  A    between atoms: C_8  and  N_9
REMARK    5  A    between atoms: C_8  and  C_34
REMARK    6  A    between atoms: C_10  and  C_12
REMARK    7  A    between atoms: C_19  and  N_21
REMARK    8  A    between atoms: C_22  and  C_24
REMARK    9  A    between atoms: C_24  and  C_25
REMARK   10  A    between atoms: C_25  and  C_26
REMARK   11  A    between atoms: C_26  and  C_27
REMARK                            x       y       z     vdW  Elec       q    Type
REMARK                         _______ _______ _______ _____ _____    ______ ____
ROOT
ATOM     12  C   UNL     1      -3.800   2.354  24.798  0.00  0.00    +0.200 C 
ATOM     13  O   UNL     1      -3.096   2.136  24.427  0.00  0.00    -0.216 OA
ATOM     14  C   UNL     1      -4.363   2.823  25.176  0.00  0.00    +0.075 C 
ATOM     15  C   UNL     1      -5.087   2.496  25.404  0.00  0.00    +0.187 C 
ATOM     16  O   UNL     1      -5.650   2.964  25.782  0.00  0.00    -0.220 OA
ATOM     17  C   UNL     1      -5.245   1.701  25.253  0.00  0.00    +0.202 C 
ATOM     18  O   UNL     1      -5.967   1.373  25.480  0.00  0.00    -0.219 OA
ATOM     19  C   UNL     1      -4.681   1.232  24.875  0.00  0.00    +0.131 C 
ATOM     20  C   UNL     1      -3.958   1.558  24.647  0.00  0.00    +0.064 C 
ENDROOT
BRANCH  12  10
ATOM      9  N   UNL     1      -2.691   3.138  25.242  0.00  0.00    -0.195 NA
ATOM     10  C   UNL     1      -3.397   3.073  24.820  0.00  0.00    +0.269 C 
ATOM     11  O   UNL     1      -3.699   3.729  24.420  0.00  0.00    -0.271 OA
BRANCH   9   8
ATOM      8  C   UNL     1      -2.287   3.858  25.264  0.00  0.00    +0.179 C 
BRANCH   8  34
ATOM     34  C   UNL     1      -2.499   4.431  25.817  0.00  0.00    +0.281 C 
ATOM     35  N   UNL     1      -2.542   5.225  25.595  0.00  0.00    -0.086 NA
ATOM     36  O   UNL     1      -2.668   4.211  26.595  0.00  0.00    -0.270 OA
ENDBRANCH   8  34
BRANCH   8   7
ATOM      7  C   UNL     1      -1.673   4.003  24.733  0.00  0.00    +0.057 C 
BRANCH   7   6
ATOM      3  C   UNL     1       0.321   2.537  24.717  0.00  0.00    +0.139 A 
ATOM      4  C   UNL     1       0.005   2.795  25.434  0.00  0.00    +0.037 A 
ATOM      5  C   UNL     1      -0.659   3.284  25.439  0.00  0.00    -0.001 A 
ATOM      6  C   UNL     1      -1.009   3.515  24.728  0.00  0.00    -0.020 A 
ATOM     37  C   UNL     1      -0.692   3.256  24.011  0.00  0.00    -0.001 A 
ATOM     38  C   UNL     1      -0.027   2.767  24.005  0.00  0.00    +0.037 A 
BRANCH   3   2
ATOM      1  C   UNL     1       1.023   1.408  24.191  0.00  0.00    +0.252 C 
ATOM      2  O   UNL     1       0.986   2.048  24.711  0.00  0.00    -0.471 OA
ENDBRANCH   3   2
ENDBRANCH   7   6
ENDBRANCH   8   7
ENDBRANCH   9   8
ENDBRANCH  12  10
BRANCH  19  21
ATOM     21  N   UNL     1      -4.840   0.437  24.724  0.00  0.00    -0.204 NA
ATOM     22  C   UNL     1      -4.295  -0.141  24.947  0.00  0.00    +0.241 C 
ATOM     23  O   UNL     1      -3.593   0.075  25.320  0.00  0.00    -0.273 OA
BRANCH  22  24
ATOM     24  C   UNL     1      -4.454  -0.937  24.796  0.00  0.00    +0.087 C 
BRANCH  24  25
ATOM     25  C   UNL     1      -3.845  -1.494  24.835  0.00  0.00    +0.019 C 
ATOM     30  C   UNL     1      -3.877  -1.343  25.645  0.00  0.00    +0.001 C 
ATOM     31  C   UNL     1      -3.308  -1.813  26.014  0.00  0.00    +0.000 C 
ATOM     32  C   UNL     1      -2.925  -2.254  25.431  0.00  0.00    +0.000 C 
ATOM     33  C   UNL     1      -3.258  -2.056  24.703  0.00  0.00    +0.001 C 
BRANCH  25  26
ATOM     26  C   UNL     1      -3.941  -1.528  24.016  0.00  0.00    +0.115 C 
BRANCH  26  27
ATOM     27  C   UNL     1      -4.230  -2.215  23.663  0.00  0.00    +0.365 C 
ATOM     28  O   UNL     1      -3.723  -2.697  23.223  0.00  0.00    -0.246 OA
ATOM     29  O   UNL     1      -5.024  -2.422  23.749  0.00  0.00    -0.246 OA
ENDBRANCH  26  27
ENDBRANCH  25  26
ENDBRANCH  24  25
ENDBRANCH  22  24
ENDBRANCH  19  21
TORSDOF 11
ENDMDL
MODEL 4
REMARK VINA RESULT:      -9.4      1.791      6.045
REMARK  Name = 
REMARK  11 active torsions:
REMARK  status: ('A' for Active; 'I' for Inactive)
REMARK    1  A    between atoms: O_2  and  C_3
REMARK    2  A    between atoms: C_6  and  C_7
REMARK    3  A    between atoms: C_7  and  C_8
REMARK    4  A    between atoms: C_8  and  N_9
REMARK    5  A    between atoms: C_8  and  C_34
REMARK    6  A    between atoms: C_10  and  C_12
REMARK    7  A    between atoms: C_19  and  N_21
REMARK    8  A    between atoms: C_22  and  C_24
REMARK    9  A    between atoms: C_24  and  C_25
REMARK   10  A    between atoms: C_25  and  C_26
REMARK   11  A    between atoms: C_26  and  C_27
REMARK                            x       y       z     vdW  Elec       q    Type
REMARK                         _______ _______ _______ _____ _____    ______ ____
ROOT
ATOM     12  C   UNL     1      -3.994   1.000  24.535  0.00  0.00    +0.200 C 
ATOM     13  O   UNL     1      -3.362   0.686  24.110  0.00  0.00    -0.216 OA
ATOM     14  C   UNL     1      -4.695   1.036  24.968  0.00  0.00    +0.075 C 
ATOM     15  C   UNL     1      -4.981   1.764  25.233  0.00  0.00    +0.187 C 
ATOM     16  O   UNL     1      -5.681   1.800  25.666  0.00  0.00    -0.220 OA
ATOM     17  C   UNL     1      -4.564   2.456  25.064  0.00  0.00    +0.202 C 
ATOM     18  O   UNL     1      -4.848   3.184  25.328  0.00  0.00    -0.219 OA
ATOM     19  C   UNL     1      -3.863   2.420  24.631  0.00  0.00    +0.131 C 
ATOM     20  C   UNL     1      -3.577   1.692  24.366  0.00  0.00    +0.064 C 
ENDROOT
BRANCH  12  10
ATOM      9  N   UNL     1      -3.635  -0.368  24.333  0.00  0.00    -0.195 NA
ATOM     10  C   UNL     1      -4.191   0.200  24.556  0.00  0.00    +0.269 C 
ATOM     11  O   UNL     1      -4.944  -0.035  24.801  0.00  0.00    -0.271 OA
BRANCH   9   8
ATOM      8  C   UNL     1      -3.832  -1.169  24.354  0.00  0.00    +0.179 C 
BRANCH   8  34
ATOM     34  C   UNL     1      -4.279  -1.500  23.744  0.00  0.00    +0.281 C 
ATOM     35  N   UNL     1      -4.888  -2.028  23.918  0.00  0.00    -0.086 NA
ATOM     36  O   UNL     1      -4.115  -1.301  22.959  0.00  0.00    -0.270 OA
ENDBRANCH   8  34
BRANCH   8   7
ATOM      7  C   UNL     1      -3.582  -1.639  24.984  0.00  0.00    +0.057 C 
BRANCH   7   6
ATOM      3  C   UNL     1      -1.178  -2.157  25.263  0.00  0.00    +0.139 A 
ATOM      4  C   UNL     1      -1.605  -2.500  24.646  0.00  0.00    +0.037 A 
ATOM      5  C   UNL     1      -2.406  -2.328  24.554  0.00  0.00    -0.001 A 
ATOM      6  C   UNL     1      -2.781  -1.812  25.077  0.00  0.00    -0.020 A 
ATOM     37  C   UNL     1      -2.354  -1.468  25.694  0.00  0.00    -0.001 A 
ATOM     38  C   UNL     1      -1.552  -1.641  25.787  0.00  0.00    +0.037 A 
BRANCH   3   2
ATOM      1  C   UNL     1       0.194  -1.827  25.035  0.00  0.00    +0.252 C 
ATOM      2  O   UNL     1      -0.376  -2.329  25.357  0.00  0.00    -0.471 OA
ENDBRANCH   3   2
ENDBRANCH   7   6
ENDBRANCH   8   7
ENDBRANCH   9   8
ENDBRANCH  12  10
BRANCH  19  21
ATOM     21  N   UNL     1      -3.446   3.111  24.462  0.00  0.00    -0.204 NA
ATOM     22  C   UNL     1      -2.706   3.241  24.803  0.00  0.00    +0.241 C 
ATOM     23  O   UNL     1      -2.383   2.678  25.312  0.00  0.00    -0.273 OA
BRANCH  22  24
ATOM     24  C   UNL     1      -2.290   3.933  24.634  0.00  0.00    +0.087 C 
BRANCH  24  25
ATOM     25  C   UNL     1      -1.498   4.002  24.857  0.00  0.00    +0.019 C 
ATOM     30  C   UNL     1      -1.364   3.491  24.225  0.00  0.00    +0.001 C 
ATOM     31  C   UNL     1      -0.553   3.348  24.179  0.00  0.00    +0.000 C 
ATOM     32  C   UNL     1      -0.186   3.771  24.784  0.00  0.00    +0.000 C 
ATOM     33  C   UNL     1      -0.770   4.176  25.203  0.00  0.00    +0.001 C 
BRANCH  25  26
ATOM     26  C   UNL     1      -1.797   4.500  25.444  0.00  0.00    +0.115 C 
BRANCH  26  27
ATOM     27  C   UNL     1      -1.792   5.317  25.333  0.00  0.00    +0.365 C 
ATOM     28  O   UNL     1      -2.421   5.775  25.610  0.00  0.00    -0.246 OA
ATOM     29  O   UNL     1      -1.159   5.677  24.946  0.00  0.00    -0.246 OA
ENDBRANCH  26  27
ENDBRANCH  25  26
ENDBRANCH  24  25
ENDBRANCH  22  24
ENDBRANCH  19  21
TORSDOF 11
ENDMDL
