REMARK  Name = 
REMARK  4 active torsions:
REMARK  status: ('A' for Active; 'I' for Inactive)
REMARK    1  A    between atoms: C_5  and  C_8
REMARK    2  A    between atoms: C_19  and  N_20
REMARK    3  A    between atoms: N_20  and  S_21
REMARK    4  A    between atoms: S_21  and  C_24
REMARK                            x       y       z     vdW  Elec       q    Type
REMARK                         _______ _______ _______ _____ _____    ______ ____
ROOT
ATOM      8  C   UNL     1       0.200  -2.660   0.000  0.00  0.00    +0.249 C 
ATOM      9  O   UNL     1       0.646  -3.414   0.000  0.00  0.00    -0.270 OA
ATOM     10  N   UNL     1       0.813  -2.091   0.000  0.00  0.00    -0.276 N 
ATOM     11  C   UNL     1       1.629  -1.912   0.000  0.00  0.00    +0.096 C 
ATOM     12  C   UNL     1       1.582  -0.925   0.000  0.00  0.00    +0.043 C 
ATOM     13  C   UNL     1       1.713  -0.121   0.000  0.00  0.00    +0.011 C 
ATOM     14  C   UNL     1       1.163  -0.557   0.000  0.00  0.00    +0.058 C 
ATOM     15  C   UNL     1       1.225  -1.510   0.000  0.00  0.00    +0.099 C 
ATOM     16  C   UNL     1       0.244  -0.558   0.000  0.00  0.00    +0.041 A 
ATOM     17  C   UNL     1      -0.397  -0.039   0.000  0.00  0.00    +0.014 A 
ATOM     18  C   UNL     1      -1.167  -0.335   0.000  0.00  0.00    +0.024 A 
ATOM     19  C   UNL     1      -1.296  -1.150   0.000  0.00  0.00    +0.147 A 
ATOM     30  C   UNL     1      -0.655  -1.669   0.000  0.00  0.00    +0.277 A 
ATOM     31  O   UNL     1      -0.537  -2.699   0.000  0.00  0.00    -0.266 OA
ATOM     32  N   UNL     1       0.115  -1.373   0.000  0.00  0.00    -0.298 N 
ATOM     33  C   UNL     1       0.622  -0.936   0.000  0.00  0.00    +0.110 C 
ENDROOT
BRANCH   8   5
ATOM      1  F   UNL     1      -3.280  -0.930   0.000  0.00  0.00    -0.204 F 
ATOM      2  C   UNL     1      -2.338  -1.196   0.000  0.00  0.00    +0.140 A 
ATOM      3  C   UNL     1      -1.485  -0.905   0.000  0.00  0.00    +0.030 A 
ATOM      4  C   UNL     1      -0.664  -1.356   0.000  0.00  0.00    +0.007 A 
ATOM      5  C   UNL     1      -0.614  -2.179   0.000  0.00  0.00    +0.054 A 
ATOM      6  C   UNL     1      -1.301  -2.635   0.000  0.00  0.00    +0.007 A 
ATOM      7  C   UNL     1      -2.040  -2.267   0.000  0.00  0.00    +0.030 A 
ENDBRANCH   8   5
BRANCH  19  20
ATOM     20  N   UNL     1      -2.088  -1.737   0.000  0.00  0.00    -0.092 NA
BRANCH  20  21
ATOM     21  S   UNL     1      -2.933  -1.333   0.000  0.00  0.00    +0.093 S 
ATOM     22  O   UNL     1      -2.580  -0.510   0.000  0.00  0.00    -0.148 OA
ATOM     23  O   UNL     1      -3.589  -1.961   0.000  0.00  0.00    -0.148 OA
BRANCH  21  24
ATOM     24  C   UNL     1      -3.349  -0.407   0.000  0.00  0.00    +0.127 A 
ATOM     25  C   UNL     1      -4.119  -0.703   0.000  0.00  0.00    +0.020 A 
ATOM     26  C   UNL     1      -4.760  -0.184   0.000  0.00  0.00    +0.001 A 
ATOM     27  C   UNL     1      -4.631   0.631   0.000  0.00  0.00    +0.000 A 
ATOM     28  C   UNL     1      -3.861   0.927   0.000  0.00  0.00    +0.001 A 
ATOM     29  C   UNL     1      -3.220   0.408   0.000  0.00  0.00    +0.020 A 
ENDBRANCH  21  24
ENDBRANCH  20  21
ENDBRANCH  19  20
TORSDOF 4
