MODEL 1
REMARK VINA RESULT:     -12.2      0.000      0.000
REMARK  Name = 
REMARK  3 active torsions:
REMARK  status: ('A' for Active; 'I' for Inactive)
REMARK    1  A    between atoms: O_2  and  C_3
REMARK    2  A    between atoms: C_6  and  C_9
REMARK    3  A    between atoms: N_17  and  C_18
REMARK                            x       y       z     vdW  Elec       q    Type
REMARK                         _______ _______ _______ _____ _____    ______ ____
ROOT
ATOM      9  C   UNL     1      -3.676   2.826  25.202  0.00  0.00    +0.249 C 
ATOM     10  O   UNL     1      -4.478   2.956  25.348  0.00  0.00    -0.270 OA
ATOM     11  N   UNL     1      -3.405   2.065  25.033  0.00  0.00    -0.273 N 
ATOM     12  C   UNL     1      -2.604   1.935  24.887  0.00  0.00    +0.115 C 
ATOM     13  C   UNL     1      -2.333   1.175  24.719  0.00  0.00    +0.116 C 
ATOM     14  N   UNL     1      -2.864   0.543  24.696  0.00  0.00    -0.261 N 
ATOM     15  C   UNL     1      -3.665   0.673  24.843  0.00  0.00    +0.116 C 
ATOM     16  C   UNL     1      -4.056  -0.051  24.783  0.00  0.00    +0.116 C 
ATOM     17  N   UNL     1      -3.496  -0.628  24.600  0.00  0.00    -0.264 N 
ATOM     24  C   UNL     1      -2.760  -0.261  24.547  0.00  0.00    +0.307 C 
ATOM     25  O   UNL     1      -2.043  -0.633  24.374  0.00  0.00    -0.252 OA
ATOM     26  C   UNL     1      -3.936   1.434  25.011  0.00  0.00    +0.115 C 
ENDROOT
BRANCH   9   6
ATOM      3  C   UNL     1      -2.082   4.718  25.269  0.00  0.00    +0.139 A 
ATOM      4  C   UNL     1      -2.436   4.503  24.557  0.00  0.00    +0.037 A 
ATOM      5  C   UNL     1      -2.968   3.872  24.533  0.00  0.00    +0.008 A 
ATOM      6  C   UNL     1      -3.145   3.457  25.224  0.00  0.00    +0.054 A 
ATOM      7  C   UNL     1      -2.791   3.672  25.938  0.00  0.00    +0.008 A 
ATOM      8  C   UNL     1      -2.259   4.303  25.960  0.00  0.00    +0.037 A 
BRANCH   3   2
ATOM      1  C   UNL     1      -0.830   5.297  24.896  0.00  0.00    +0.252 C 
ATOM      2  O   UNL     1      -1.551   5.349  25.293  0.00  0.00    -0.471 OA
ENDBRANCH   3   2
ENDBRANCH   9   6
BRANCH  17  18
ATOM     18  C   UNL     1      -3.646  -1.432  24.490  0.00  0.00    +0.077 C 
ATOM     19  C   UNL     1      -4.086  -1.685  23.839  0.00  0.00    +0.020 C 
ATOM     20  C   UNL     1      -4.236  -2.488  23.729  0.00  0.00    +0.002 C 
ATOM     21  C   UNL     1      -3.946  -3.039  24.270  0.00  0.00    +0.000 C 
ATOM     22  C   UNL     1      -3.507  -2.788  24.921  0.00  0.00    +0.002 C 
ATOM     23  C   UNL     1      -3.357  -1.984  25.031  0.00  0.00    +0.020 C 
ENDBRANCH  17  18
TORSDOF 3
ENDMDL
MODEL 2
REMARK VINA RESULT:     -12.1      1.280      5.598
REMARK  Name = 
REMARK  3 active torsions:
REMARK  status: ('A' for Active; 'I' for Inactive)
REMARK    1  A    between atoms: O_2  and  C_3
REMARK    2  A    between atoms: C_6  and  C_9
REMARK    3  A    between atoms: N_17  and  C_18
REMARK                            x       y       z     vdW  Elec       q    Type
REMARK                         _______ _______ _______ _____ _____    ______ ____
ROOT
ATOM      9  C   UNL     1      -1.897  -0.522  25.556  0.00  0.00    +0.249 C 
ATOM     10  O   UNL     1      -1.325  -0.659  26.134  0.00  0.00    -0.270 OA
ATOM     11  N   UNL     1      -2.022   0.243  25.271  0.00  0.00    -0.273 N 
ATOM     12  C   UNL     1      -2.595   0.380  24.693  0.00  0.00    +0.115 C 
ATOM     13  C   UNL     1      -2.720   1.143  24.410  0.00  0.00    +0.116 C 
ATOM     14  N   UNL     1      -2.272   1.772  24.703  0.00  0.00    -0.261 N 
ATOM     15  C   UNL     1      -1.700   1.635  25.281  0.00  0.00    +0.116 C 
ATOM     16  C   UNL     1      -1.346   2.356  25.466  0.00  0.00    +0.116 C 
ATOM     17  N   UNL     1      -1.699   2.939  25.002  0.00  0.00    -0.264 N 
ATOM     24  C   UNL     1      -2.272   2.577  24.531  0.00  0.00    +0.307 C 
ATOM     25  O   UNL     1      -2.759   2.956  23.983  0.00  0.00    -0.252 OA
ATOM     26  C   UNL     1      -1.575   0.870  25.566  0.00  0.00    +0.115 C 
ENDROOT
BRANCH   9   6
ATOM      3  C   UNL     1      -3.240  -2.404  24.671  0.00  0.00    +0.139 A 
ATOM      4  C   UNL     1      -3.538  -1.936  25.281  0.00  0.00    +0.037 A 
ATOM      5  C   UNL     1      -3.091  -1.308  25.577  0.00  0.00    +0.008 A 
ATOM      6  C   UNL     1      -2.345  -1.149  25.261  0.00  0.00    +0.054 A 
ATOM      7  C   UNL     1      -2.046  -1.618  24.651  0.00  0.00    +0.008 A 
ATOM      8  C   UNL     1      -2.494  -2.245  24.356  0.00  0.00    +0.037 A 
BRANCH   3   2
ATOM      1  C   UNL     1      -4.267  -2.894  23.807  0.00  0.00    +0.252 C 
ATOM      2  O   UNL     1      -3.687  -3.032  24.376  0.00  0.00    -0.471 OA
ENDBRANCH   3   2
ENDBRANCH   9   6
BRANCH  17  18
ATOM     18  C   UNL     1      -1.513   3.743  25.007  0.00  0.00    +0.077 C 
ATOM     19  C   UNL     1      -2.020   4.282  25.374  0.00  0.00    +0.020 C 
ATOM     20  C   UNL     1      -1.834   5.086  25.379  0.00  0.00    +0.002 C 
ATOM     21  C   UNL     1      -1.141   5.350  25.019  0.00  0.00    +0.000 C 
ATOM     22  C   UNL     1      -0.634   4.813  24.653  0.00  0.00    +0.002 C 
ATOM     23  C   UNL     1      -0.820   4.009  24.648  0.00  0.00    +0.020 C 
ENDBRANCH  17  18
TORSDOF 3
ENDMDL
MODEL 3
REMARK VINA RESULT:      -9.8      2.560      4.454
REMARK  Name = 
REMARK  3 active torsions:
REMARK  status: ('A' for Active; 'I' for Inactive)
REMARK    1  A    between atoms: O_2  and  C_3
REMARK    2  A    between atoms: C_6  and  C_9
REMARK    3  A    between atoms: N_17  and  C_18
REMARK                            x       y       z     vdW  Elec       q    Type
REMARK                         _______ _______ _______ _____ _____    ______ ____
ROOT
ATOM      9  C   UNL     1      -0.629   0.266  24.538  0.00  0.00    +0.249 C 
ATOM     10  O   UNL     1      -0.583  -0.160  25.243  0.00  0.00    -0.270 OA
ATOM     11  N   UNL     1      -1.296   0.727  24.378  0.00  0.00    -0.273 N 
ATOM     12  C   UNL     1      -1.342   1.153  23.673  0.00  0.00    +0.115 C 
ATOM     13  C   UNL     1      -2.007   1.613  23.513  0.00  0.00    +0.116 C 
ATOM     14  N   UNL     1      -2.627   1.648  24.057  0.00  0.00    -0.261 N 
ATOM     15  C   UNL     1      -2.580   1.221  24.762  0.00  0.00    +0.116 C 
ATOM     16  C   UNL     1      -3.270   1.361  25.191  0.00  0.00    +0.116 C 
ATOM     17  N   UNL     1      -3.744   1.873  24.751  0.00  0.00    -0.264 N 
ATOM     24  C   UNL     1      -3.346   2.050  24.051  0.00  0.00    +0.307 C 
ATOM     25  O   UNL     1      -3.619   2.544  23.449  0.00  0.00    -0.252 OA
ATOM     26  C   UNL     1      -1.914   0.760  24.923  0.00  0.00    +0.115 C 
ENDROOT
BRANCH   9   6
ATOM      3  C   UNL     1       1.226   0.164  22.903  0.00  0.00    +0.139 A 
ATOM      4  C   UNL     1       1.165   0.805  23.418  0.00  0.00    +0.037 A 
ATOM      5  C   UNL     1       0.546   0.840  23.964  0.00  0.00    +0.008 A 
ATOM      6  C   UNL     1      -0.011   0.233  23.994  0.00  0.00    +0.054 A 
ATOM      7  C   UNL     1       0.050  -0.410  23.478  0.00  0.00    +0.008 A 
ATOM      8  C   UNL     1       0.668  -0.443  22.933  0.00  0.00    +0.037 A 
BRANCH   3   2
ATOM      1  C   UNL     1       2.626   0.142  22.619  0.00  0.00    +0.252 C 
ATOM      2  O   UNL     1       1.844   0.130  22.358  0.00  0.00    -0.471 OA
ENDBRANCH   3   2
ENDBRANCH   9   6
BRANCH  17  18
ATOM     18  C   UNL     1      -4.486   2.159  24.973  0.00  0.00    +0.077 C 
ATOM     19  C   UNL     1      -5.159   1.697  24.851  0.00  0.00    +0.020 C 
ATOM     20  C   UNL     1      -5.901   1.982  25.072  0.00  0.00    +0.002 C 
ATOM     21  C   UNL     1      -5.969   2.729  25.417  0.00  0.00    +0.000 C 
ATOM     22  C   UNL     1      -5.297   3.190  25.539  0.00  0.00    +0.002 C 
ATOM     23  C   UNL     1      -4.555   2.905  25.317  0.00  0.00    +0.020 C 
ENDBRANCH  17  18
TORSDOF 3
ENDMDL
MODEL 4
REMARK VINA RESULT:      -9.3      2.603      3.786
REMARK  Name = 
REMARK  3 active torsions:
REMARK  status: ('A' for Active; 'I' for Inactive)
REMARK    1  A    between atoms: O_2  and  C_3
REMARK    2  A    between atoms: C_6  and  C_9
REMARK    3  A    between atoms: N_17  and  C_18
REMARK                            x       y       z     vdW  Elec       q    Type
REMARK                         _______ _______ _______ _____ _____    ______ ____
ROOT
ATOM      9  C   UNL     1      -3.683   2.487  24.035  0.00  0.00    +0.249 C 
ATOM     10  O   UNL     1      -3.765   2.884  23.316  0.00  0.00    -0.270 OA
ATOM     11  N   UNL     1      -3.000   2.049  24.189  0.00  0.00    -0.273 N 
ATOM     12  C   UNL     1      -2.918   1.652  24.907  0.00  0.00    +0.115 C 
ATOM     13  C   UNL     1      -2.236   1.214  25.061  0.00  0.00    +0.116 C 
ATOM     14  N   UNL     1      -1.636   1.173  24.496  0.00  0.00    -0.261 N 
ATOM     15  C   UNL     1      -1.718   1.570  23.778  0.00  0.00    +0.116 C 
ATOM     16  C   UNL     1      -1.040   1.430  23.330  0.00  0.00    +0.116 C 
ATOM     17  N   UNL     1      -0.538   0.947  23.771  0.00  0.00    -0.264 N 
ATOM     24  C   UNL     1      -0.907   0.788  24.492  0.00  0.00    +0.307 C 
ATOM     25  O   UNL     1      -0.600   0.325  25.102  0.00  0.00    -0.252 OA
ATOM     26  C   UNL     1      -2.401   2.008  23.624  0.00  0.00    +0.115 C 
ENDROOT
BRANCH   9   6
ATOM      3  C   UNL     1      -5.481   2.610  25.731  0.00  0.00    +0.139 A 
ATOM      4  C   UNL     1      -5.460   1.982  25.197  0.00  0.00    +0.037 A 
ATOM      5  C   UNL     1      -4.861   1.940  24.631  0.00  0.00    +0.008 A 
ATOM      6  C   UNL     1      -4.282   2.527  24.600  0.00  0.00    +0.054 A 
ATOM      7  C   UNL     1      -4.303   3.156  25.135  0.00  0.00    +0.008 A 
ATOM      8  C   UNL     1      -4.902   3.197  25.700  0.00  0.00    +0.037 A 
BRANCH   3   2
ATOM      1  C   UNL     1      -6.458   1.963  26.550  0.00  0.00    +0.252 C 
ATOM      2  O   UNL     1      -6.080   2.651  26.297  0.00  0.00    -0.471 OA
ENDBRANCH   3   2
ENDBRANCH   9   6
BRANCH  17  18
ATOM     18  C   UNL     1       0.202   0.670  23.534  0.00  0.00    +0.077 C 
ATOM     19  C   UNL     1       0.875   1.129  23.665  0.00  0.00    +0.020 C 
ATOM     20  C   UNL     1       1.616   0.853  23.427  0.00  0.00    +0.002 C 
ATOM     21  C   UNL     1       1.682   0.118  23.059  0.00  0.00    +0.000 C 
ATOM     22  C   UNL     1       1.010  -0.341  22.928  0.00  0.00    +0.002 C 
ATOM     23  C   UNL     1       0.270  -0.065  23.166  0.00  0.00    +0.020 C 
ENDBRANCH  17  18
TORSDOF 3
ENDMDL
