MODEL 1
REMARK VINA RESULT:     -12.0      0.000      0.000
REMARK  Name = 
REMARK  6 active torsions:
REMARK  status: ('A' for Active; 'I' for Inactive)
REMARK    1  A    between atoms: C_2  and  C_26
REMARK    2  A    between atoms: N_3  and  C_4
REMARK    3  A    between atoms: C_4  and  C_5
REMARK    4  A    between atoms: C_12  and  C_13
REMARK    5  A    between atoms: C_13  and  N_14
REMARK    6  A    between atoms: N_17  and  C_20
REMARK                            x       y       z     vdW  Elec       q    Type
REMARK                         _______ _______ _______ _____ _____    ______ ____
ROOT
ATOM      5  C   UNL     1      -5.148   0.483  24.781  0.00  0.00    +0.079 C 
ATOM      6  C   UNL     1      -5.603   0.947  25.206  0.00  0.00    +0.018 C 
ATOM      7  C   UNL     1      -5.468   1.732  25.355  0.00  0.00    +0.005 C 
ATOM      8  C   UNL     1      -6.112   2.090  25.867  0.00  0.00    +0.017 C 
ATOM      9  C   UNL     1      -5.811   1.614  25.535  0.00  0.00    +0.072 C 
ATOM     10  N   UNL     1      -5.017   1.282  24.937  0.00  0.00    -0.272 NA
ATOM     11  C   UNL     1      -4.349   1.852  24.688  0.00  0.00    +0.073 C 
ATOM     12  C   UNL     1      -4.823   2.275  25.112  0.00  0.00    +0.032 C 
ENDROOT
BRANCH   5   4
ATOM      4  C   UNL     1      -4.949  -0.242  24.439  0.00  0.00    +0.131 C 
BRANCH   4   3
ATOM      1  O   UNL     1      -4.527  -1.662  23.713  0.00  0.00    -0.268 OA
ATOM      2  C   UNL     1      -4.016  -1.307  24.255  0.00  0.00    +0.265 C 
ATOM      3  N   UNL     1      -4.226  -0.598  24.618  0.00  0.00    -0.200 NA
BRANCH   2  26
ATOM     26  C   UNL     1      -3.292  -1.664  24.433  0.00  0.00    +0.058 A 
ATOM     27  C   UNL     1      -3.241  -2.485  24.492  0.00  0.00    +0.008 A 
ATOM     28  C   UNL     1      -2.519  -2.841  24.671  0.00  0.00    +0.040 A 
ATOM     29  C   UNL     1      -1.847  -2.376  24.790  0.00  0.00    +0.176 A 
ATOM     30  O   UNL     1      -1.067  -2.570  24.972  0.00  0.00    -0.435 OA
ATOM     31  C   UNL     1      -0.636  -1.869  25.025  0.00  0.00    +0.429 C 
ATOM     32  O   UNL     1      -1.151  -1.241  24.876  0.00  0.00    -0.435 OA
ATOM     33  C   UNL     1      -1.900  -1.555  24.731  0.00  0.00    +0.177 A 
ATOM     34  C   UNL     1      -2.622  -1.199  24.552  0.00  0.00    +0.045 A 
ENDBRANCH   2  26
ENDBRANCH   4   3
ENDBRANCH   5   4
BRANCH  12  13
ATOM     13  C   UNL     1      -4.746   3.073  25.302  0.00  0.00    +0.074 C 
BRANCH  13  14
ATOM     14  N   UNL     1      -4.013   3.446  25.226  0.00  0.00    -0.270 NA
ATOM     15  C   UNL     1      -3.520   3.526  25.884  0.00  0.00    +0.094 C 
ATOM     16  C   UNL     1      -2.789   3.898  25.809  0.00  0.00    +0.108 C 
ATOM     17  N   UNL     1      -2.548   4.191  25.076  0.00  0.00    -0.305 N 
ATOM     18  C   UNL     1      -3.040   4.111  24.418  0.00  0.00    +0.108 C 
ATOM     19  C   UNL     1      -3.773   3.739  24.494  0.00  0.00    +0.094 C 
BRANCH  17  20
ATOM     20  C   UNL     1      -1.816   4.563  25.000  0.00  0.00    +0.048 A 
ATOM     21  C   UNL     1      -1.132   4.112  24.904  0.00  0.00    +0.015 A 
ATOM     22  C   UNL     1      -0.400   4.484  24.828  0.00  0.00    +0.001 A 
ATOM     23  C   UNL     1      -0.351   5.307  24.848  0.00  0.00    +0.000 A 
ATOM     24  C   UNL     1      -1.035   5.759  24.945  0.00  0.00    +0.001 A 
ATOM     25  C   UNL     1      -1.767   5.386  25.021  0.00  0.00    +0.015 A 
ENDBRANCH  17  20
ENDBRANCH  13  14
ENDBRANCH  12  13
TORSDOF 6
ENDMDL
MODEL 2
REMARK VINA RESULT:     -11.8      3.703      5.462
REMARK  Name = 
REMARK  6 active torsions:
REMARK  status: ('A' for Active; 'I' for Inactive)
REMARK    1  A    between atoms: C_2  and  C_26
REMARK    2  A    between atoms: N_3  and  C_4
REMARK    3  A    between atoms: C_4  and  C_5
REMARK    4  A    between atoms: C_12  and  C_13
REMARK    5  A    between atoms: C_13  and  N_14
REMARK    6  A    between atoms: N_17  and  C_20
REMARK                            x       y       z     vdW  Elec       q    Type
REMARK                         _______ _______ _______ _____ _____    ______ ____
ROOT
ATOM      5  C   UNL     1       0.422  -0.369  23.493  0.00  0.00    +0.079 C 
ATOM      6  C   UNL     1       0.144  -0.858  24.030  0.00  0.00    +0.018 C 
ATOM      7  C   UNL     1      -0.520  -0.737  24.478  0.00  0.00    +0.005 C 
ATOM      8  C   UNL     1      -0.672  -1.419  25.041  0.00  0.00    +0.017 C 
ATOM      9  C   UNL     1      -0.351  -1.092  24.575  0.00  0.00    +0.072 C 
ATOM     10  N   UNL     1      -0.253  -0.254  23.954  0.00  0.00    -0.272 NA
ATOM     11  C   UNL     1      -0.857   0.429  23.991  0.00  0.00    +0.073 C 
ATOM     12  C   UNL     1      -1.097  -0.077  24.509  0.00  0.00    +0.032 C 
ENDROOT
BRANCH   5   4
ATOM      4  C   UNL     1       0.965  -0.143  22.915  0.00  0.00    +0.131 C 
BRANCH   4   3
ATOM      1  O   UNL     1       2.120  -0.030  21.742  0.00  0.00    -0.268 OA
ATOM      2  C   UNL     1       2.327   0.061  22.535  0.00  0.00    +0.265 C 
ATOM      3  N   UNL     1       1.751   0.004  23.122  0.00  0.00    -0.200 NA
BRANCH   2  26
ATOM     26  C   UNL     1       3.113   0.208  22.742  0.00  0.00    +0.058 A 
ATOM     27  C   UNL     1       3.449   0.946  22.585  0.00  0.00    +0.008 A 
ATOM     28  C   UNL     1       4.234   1.093  22.791  0.00  0.00    +0.040 A 
ATOM     29  C   UNL     1       4.683   0.503  23.154  0.00  0.00    +0.176 A 
ATOM     30  O   UNL     1       5.465   0.488  23.418  0.00  0.00    -0.435 OA
ATOM     31  C   UNL     1       5.611  -0.258  23.737  0.00  0.00    +0.429 C 
ATOM     32  O   UNL     1       4.920  -0.705  23.671  0.00  0.00    -0.435 OA
ATOM     33  C   UNL     1       4.346  -0.234  23.310  0.00  0.00    +0.177 A 
ATOM     34  C   UNL     1       3.561  -0.381  23.104  0.00  0.00    +0.045 A 
ENDBRANCH   2  26
ENDBRANCH   4   3
ENDBRANCH   5   4
BRANCH  12  13
ATOM     13  C   UNL     1      -1.760  -0.016  24.996  0.00  0.00    +0.074 C 
BRANCH  13  14
ATOM     14  N   UNL     1      -2.250   0.646  24.946  0.00  0.00    -0.270 NA
ATOM     15  C   UNL     1      -2.957   0.607  24.522  0.00  0.00    +0.094 C 
ATOM     16  C   UNL     1      -3.446   1.268  24.472  0.00  0.00    +0.108 C 
ATOM     17  N   UNL     1      -3.229   1.971  24.845  0.00  0.00    -0.305 N 
ATOM     18  C   UNL     1      -2.522   2.012  25.269  0.00  0.00    +0.108 C 
ATOM     19  C   UNL     1      -2.032   1.349  25.319  0.00  0.00    +0.094 C 
BRANCH  17  20
ATOM     20  C   UNL     1      -3.718   2.633  24.795  0.00  0.00    +0.048 A 
ATOM     21  C   UNL     1      -4.341   2.727  25.328  0.00  0.00    +0.015 A 
ATOM     22  C   UNL     1      -4.830   3.389  25.279  0.00  0.00    +0.001 A 
ATOM     23  C   UNL     1      -4.697   3.958  24.697  0.00  0.00    +0.000 A 
ATOM     24  C   UNL     1      -4.073   3.865  24.164  0.00  0.00    +0.001 A 
ATOM     25  C   UNL     1      -3.585   3.203  24.214  0.00  0.00    +0.015 A 
ENDBRANCH  17  20
ENDBRANCH  13  14
ENDBRANCH  12  13
TORSDOF 6
ENDMDL
MODEL 3
REMARK VINA RESULT:     -11.5      1.837      5.343
REMARK  Name = 
REMARK  6 active torsions:
REMARK  status: ('A' for Active; 'I' for Inactive)
REMARK    1  A    between atoms: C_2  and  C_26
REMARK    2  A    between atoms: N_3  and  C_4
REMARK    3  A    between atoms: C_4  and  C_5
REMARK    4  A    between atoms: C_12  and  C_13
REMARK    5  A    between atoms: C_13  and  N_14
REMARK    6  A    between atoms: N_17  and  C_20
REMARK                            x       y       z     vdW  Elec       q    Type
REMARK                         _______ _______ _______ _____ _____    ______ ____
ROOT
ATOM      5  C   UNL     1      -4.796   3.041  25.594  0.00  0.00    +0.079 C 
ATOM      6  C   UNL     1      -5.473   2.700  25.418  0.00  0.00    +0.018 C 
ATOM      7  C   UNL     1      -5.568   1.926  25.203  0.00  0.00    +0.005 C 
ATOM      8  C   UNL     1      -6.428   1.727  25.041  0.00  0.00    +0.017 C 
ATOM      9  C   UNL     1      -5.927   2.113  25.206  0.00  0.00    +0.072 C 
ATOM     10  N   UNL     1      -4.902   2.253  25.374  0.00  0.00    -0.272 NA
ATOM     11  C   UNL     1      -4.312   1.565  25.268  0.00  0.00    +0.073 C 
ATOM     12  C   UNL     1      -4.996   1.268  25.103  0.00  0.00    +0.032 C 
ENDROOT
BRANCH   5   4
ATOM      4  C   UNL     1      -4.334   3.685  25.822  0.00  0.00    +0.131 C 
BRANCH   4   3
ATOM      1  O   UNL     1      -3.165   4.530  26.624  0.00  0.00    -0.268 OA
ATOM      2  C   UNL     1      -3.017   4.236  25.868  0.00  0.00    +0.265 C 
ATOM      3  N   UNL     1      -3.601   3.814  25.467  0.00  0.00    -0.200 NA
BRANCH   2  26
ATOM     26  C   UNL     1      -2.283   4.365  25.511  0.00  0.00    +0.058 A 
ATOM     27  C   UNL     1      -2.024   5.135  25.368  0.00  0.00    +0.008 A 
ATOM     28  C   UNL     1      -1.291   5.264  25.013  0.00  0.00    +0.040 A 
ATOM     29  C   UNL     1      -0.817   4.623  24.800  0.00  0.00    +0.176 A 
ATOM     30  O   UNL     1      -0.074   4.580  24.444  0.00  0.00    -0.435 OA
ATOM     31  C   UNL     1       0.126   3.783  24.367  0.00  0.00    +0.429 C 
ATOM     32  O   UNL     1      -0.494   3.334  24.676  0.00  0.00    -0.435 OA
ATOM     33  C   UNL     1      -1.076   3.853  24.944  0.00  0.00    +0.177 A 
ATOM     34  C   UNL     1      -1.810   3.724  25.299  0.00  0.00    +0.045 A 
ENDBRANCH   2  26
ENDBRANCH   4   3
ENDBRANCH   5   4
BRANCH  12  13
ATOM     13  C   UNL     1      -5.162   0.492  24.878  0.00  0.00    +0.074 C 
BRANCH  13  14
ATOM     14  N   UNL     1      -4.550  -0.058  24.810  0.00  0.00    -0.270 NA
ATOM     15  C   UNL     1      -4.274  -0.454  25.479  0.00  0.00    +0.094 C 
ATOM     16  C   UNL     1      -3.663  -1.002  25.411  0.00  0.00    +0.108 C 
ATOM     17  N   UNL     1      -3.327  -1.157  24.674  0.00  0.00    -0.305 N 
ATOM     18  C   UNL     1      -3.603  -0.762  24.003  0.00  0.00    +0.108 C 
ATOM     19  C   UNL     1      -4.215  -0.212  24.072  0.00  0.00    +0.094 C 
BRANCH  17  20
ATOM     20  C   UNL     1      -2.716  -1.706  24.605  0.00  0.00    +0.048 A 
ATOM     21  C   UNL     1      -1.933  -1.467  24.707  0.00  0.00    +0.015 A 
ATOM     22  C   UNL     1      -1.321  -2.016  24.639  0.00  0.00    +0.001 A 
ATOM     23  C   UNL     1      -1.491  -2.804  24.467  0.00  0.00    +0.000 A 
ATOM     24  C   UNL     1      -2.275  -3.044  24.364  0.00  0.00    +0.001 A 
ATOM     25  C   UNL     1      -2.886  -2.495  24.433  0.00  0.00    +0.015 A 
ENDBRANCH  17  20
ENDBRANCH  13  14
ENDBRANCH  12  13
TORSDOF 6
ENDMDL
MODEL 4
REMARK VINA RESULT:     -10.7      4.003      6.530
REMARK  Name = 
REMARK  6 active torsions:
REMARK  status: ('A' for Active; 'I' for Inactive)
REMARK    1  A    between atoms: C_2  and  C_26
REMARK    2  A    between atoms: N_3  and  C_4
REMARK    3  A    between atoms: C_4  and  C_5
REMARK    4  A    between atoms: C_12  and  C_13
REMARK    5  A    between atoms: C_13  and  N_14
REMARK    6  A    between atoms: N_17  and  C_20
REMARK                            x       y       z     vdW  Elec       q    Type
REMARK                         _______ _______ _______ _____ _____    ______ ____
ROOT
ATOM      5  C   UNL     1       1.062   1.307  23.672  0.00  0.00    +0.079 C 
ATOM      6  C   UNL     1       0.774   1.759  24.235  0.00  0.00    +0.018 C 
ATOM      7  C   UNL     1       0.080   1.632  24.634  0.00  0.00    +0.005 C 
ATOM      8  C   UNL     1      -0.075   2.268  25.246  0.00  0.00    +0.017 C 
ATOM      9  C   UNL     1       0.258   1.968  24.771  0.00  0.00    +0.072 C 
ATOM     10  N   UNL     1       0.356   1.184  24.083  0.00  0.00    -0.272 NA
ATOM     11  C   UNL     1      -0.279   0.531  24.024  0.00  0.00    +0.073 C 
ATOM     12  C   UNL     1      -0.526   1.001  24.572  0.00  0.00    +0.032 C 
ENDROOT
BRANCH   5   4
ATOM      4  C   UNL     1       1.628   1.105  23.107  0.00  0.00    +0.131 C 
BRANCH   4   3
ATOM      1  O   UNL     1       2.655   0.328  22.076  0.00  0.00    -0.268 OA
ATOM      2  C   UNL     1       2.918   0.562  22.822  0.00  0.00    +0.265 C 
ATOM      3  N   UNL     1       2.405   0.950  23.338  0.00  0.00    -0.200 NA
BRANCH   2  26
ATOM     26  C   UNL     1       3.696   0.407  23.053  0.00  0.00    +0.058 A 
ATOM     27  C   UNL     1       4.286   0.967  22.914  0.00  0.00    +0.008 A 
ATOM     28  C   UNL     1       5.063   0.812  23.145  0.00  0.00    +0.040 A 
ATOM     29  C   UNL     1       5.249   0.097  23.513  0.00  0.00    +0.176 A 
ATOM     30  O   UNL     1       5.961  -0.207  23.799  0.00  0.00    -0.435 OA
ATOM     31  C   UNL     1       5.810  -0.954  24.114  0.00  0.00    +0.429 C 
ATOM     32  O   UNL     1       5.005  -1.112  24.023  0.00  0.00    -0.435 OA
ATOM     33  C   UNL     1       4.658  -0.462  23.651  0.00  0.00    +0.177 A 
ATOM     34  C   UNL     1       3.881  -0.307  23.421  0.00  0.00    +0.045 A 
ENDBRANCH   2  26
ENDBRANCH   4   3
ENDBRANCH   5   4
BRANCH  12  13
ATOM     13  C   UNL     1      -1.219   0.930  25.014  0.00  0.00    +0.074 C 
BRANCH  13  14
ATOM     14  N   UNL     1      -1.745   0.312  24.862  0.00  0.00    -0.270 NA
ATOM     15  C   UNL     1      -2.381   0.427  24.350  0.00  0.00    +0.094 C 
ATOM     16  C   UNL     1      -2.906  -0.190  24.198  0.00  0.00    +0.108 C 
ATOM     17  N   UNL     1      -2.795  -0.924  24.558  0.00  0.00    -0.305 N 
ATOM     18  C   UNL     1      -2.158  -1.040  25.071  0.00  0.00    +0.108 C 
ATOM     19  C   UNL     1      -1.633  -0.422  25.223  0.00  0.00    +0.094 C 
BRANCH  17  20
ATOM     20  C   UNL     1      -3.320  -1.542  24.407  0.00  0.00    +0.048 A 
ATOM     21  C   UNL     1      -3.160  -2.298  24.694  0.00  0.00    +0.015 A 
ATOM     22  C   UNL     1      -3.683  -2.917  24.544  0.00  0.00    +0.001 A 
ATOM     23  C   UNL     1      -4.368  -2.780  24.105  0.00  0.00    +0.000 A 
ATOM     24  C   UNL     1      -4.529  -2.023  23.816  0.00  0.00    +0.001 A 
ATOM     25  C   UNL     1      -4.004  -1.405  23.968  0.00  0.00    +0.015 A 
ENDBRANCH  17  20
ENDBRANCH  13  14
ENDBRANCH  12  13
TORSDOF 6
ENDMDL
MODEL 5
REMARK VINA RESULT:     -10.4      2.435      6.341
REMARK  Name = 
REMARK  6 active torsions:
REMARK  status: ('A' for Active; 'I' for Inactive)
REMARK    1  A    between atoms: C_2  and  C_26
REMARK    2  A    between atoms: N_3  and  C_4
REMARK    3  A    between atoms: C_4  and  C_5
REMARK    4  A    between atoms: C_12  and  C_13
REMARK    5  A    between atoms: C_13  and  N_14
REMARK    6  A    between atoms: N_17  and  C_20
REMARK                            x       y       z     vdW  Elec       q    Type
REMARK                         _______ _______ _______ _____ _____    ______ ____
ROOT
ATOM      5  C   UNL     1      -0.367   2.854  24.758  0.00  0.00    +0.079 C 
ATOM      6  C   UNL     1       0.244   2.516  24.417  0.00  0.00    +0.018 C 
ATOM      7  C   UNL     1       0.344   1.719  24.311  0.00  0.00    +0.005 C 
ATOM      8  C   UNL     1       1.116   1.531  23.895  0.00  0.00    +0.017 C 
ATOM      9  C   UNL     1       0.661   1.919  24.159  0.00  0.00    +0.072 C 
ATOM     10  N   UNL     1      -0.258   2.044  24.647  0.00  0.00    -0.272 NA
ATOM     11  C   UNL     1      -0.772   1.323  24.867  0.00  0.00    +0.073 C 
ATOM     12  C   UNL     1      -0.155   1.030  24.525  0.00  0.00    +0.032 C 
ENDROOT
BRANCH   5   4
ATOM      4  C   UNL     1      -0.792   3.509  25.024  0.00  0.00    +0.131 C 
BRANCH   4   3
ATOM      1  O   UNL     1      -1.710   4.848  25.318  0.00  0.00    -0.268 OA
ATOM      2  C   UNL     1      -2.043   4.096  25.386  0.00  0.00    +0.265 C 
ATOM      3  N   UNL     1      -1.584   3.427  25.239  0.00  0.00    -0.200 NA
BRANCH   2  26
ATOM     26  C   UNL     1      -2.836   4.015  25.601  0.00  0.00    +0.058 A 
ATOM     27  C   UNL     1      -3.078   4.211  26.365  0.00  0.00    +0.008 A 
ATOM     28  C   UNL     1      -3.871   4.129  26.580  0.00  0.00    +0.040 A 
ATOM     29  C   UNL     1      -4.421   3.851  26.030  0.00  0.00    +0.176 A 
ATOM     30  O   UNL     1      -5.233   3.715  26.083  0.00  0.00    -0.435 OA
ATOM     31  C   UNL     1      -5.491   3.434  25.352  0.00  0.00    +0.429 C 
ATOM     32  O   UNL     1      -4.839   3.397  24.848  0.00  0.00    -0.435 OA
ATOM     33  C   UNL     1      -4.177   3.655  25.267  0.00  0.00    +0.177 A 
ATOM     34  C   UNL     1      -3.385   3.737  25.052  0.00  0.00    +0.045 A 
ENDBRANCH   2  26
ENDBRANCH   4   3
ENDBRANCH   5   4
BRANCH  12  13
ATOM     13  C   UNL     1       0.008   0.234  24.386  0.00  0.00    +0.074 C 
BRANCH  13  14
ATOM     14  N   UNL     1      -0.593  -0.329  24.455  0.00  0.00    -0.270 NA
ATOM     15  C   UNL     1      -0.648  -0.792  25.136  0.00  0.00    +0.094 C 
ATOM     16  C   UNL     1      -1.248  -1.353  25.205  0.00  0.00    +0.108 C 
ATOM     17  N   UNL     1      -1.793  -1.453  24.594  0.00  0.00    -0.305 N 
ATOM     18  C   UNL     1      -1.737  -0.990  23.913  0.00  0.00    +0.108 C 
ATOM     19  C   UNL     1      -1.137  -0.427  23.844  0.00  0.00    +0.094 C 
BRANCH  17  20
ATOM     20  C   UNL     1      -2.393  -2.015  24.663  0.00  0.00    +0.048 A 
ATOM     21  C   UNL     1      -3.083  -1.833  25.077  0.00  0.00    +0.015 A 
ATOM     22  C   UNL     1      -3.683  -2.393  25.146  0.00  0.00    +0.001 A 
ATOM     23  C   UNL     1      -3.594  -3.137  24.801  0.00  0.00    +0.000 A 
ATOM     24  C   UNL     1      -2.904  -3.320  24.386  0.00  0.00    +0.001 A 
ATOM     25  C   UNL     1      -2.304  -2.758  24.317  0.00  0.00    +0.015 A 
ENDBRANCH  17  20
ENDBRANCH  13  14
ENDBRANCH  12  13
TORSDOF 6
ENDMDL
MODEL 6
REMARK VINA RESULT:      -9.8      1.595      3.710
REMARK  Name = 
REMARK  6 active torsions:
REMARK  status: ('A' for Active; 'I' for Inactive)
REMARK    1  A    between atoms: C_2  and  C_26
REMARK    2  A    between atoms: N_3  and  C_4
REMARK    3  A    between atoms: C_4  and  C_5
REMARK    4  A    between atoms: C_12  and  C_13
REMARK    5  A    between atoms: C_13  and  N_14
REMARK    6  A    between atoms: N_17  and  C_20
REMARK                            x       y       z     vdW  Elec       q    Type
REMARK                         _______ _______ _______ _____ _____    ______ ____
ROOT
ATOM      5  C   UNL     1      -0.247   0.660  24.664  0.00  0.00    +0.079 C 
ATOM      6  C   UNL     1       0.086   1.332  24.460  0.00  0.00    +0.018 C 
ATOM      7  C   UNL     1      -0.269   2.060  24.479  0.00  0.00    +0.005 C 
ATOM      8  C   UNL     1       0.285   2.709  24.204  0.00  0.00    +0.017 C 
ATOM      9  C   UNL     1       0.111   2.096  24.347  0.00  0.00    +0.072 C 
ATOM     10  N   UNL     1      -0.602   1.405  24.681  0.00  0.00    -0.272 NA
ATOM     11  C   UNL     1      -1.438   1.678  24.925  0.00  0.00    +0.073 C 
ATOM     12  C   UNL     1      -1.075   2.315  24.715  0.00  0.00    +0.032 C 
ENDROOT
BRANCH   5   4
ATOM      4  C   UNL     1      -0.248  -0.157  24.775  0.00  0.00    +0.131 C 
BRANCH   4   3
ATOM      1  O   UNL     1      -0.435  -1.683  25.375  0.00  0.00    -0.268 OA
ATOM      2  C   UNL     1      -1.007  -1.363  24.873  0.00  0.00    +0.265 C 
ATOM      3  N   UNL     1      -0.914  -0.601  24.574  0.00  0.00    -0.200 NA
BRANCH   2  26
ATOM     26  C   UNL     1      -1.673  -1.808  24.671  0.00  0.00    +0.058 A 
ATOM     27  C   UNL     1      -1.592  -2.605  24.474  0.00  0.00    +0.008 A 
ATOM     28  C   UNL     1      -2.258  -3.049  24.272  0.00  0.00    +0.040 A 
ATOM     29  C   UNL     1      -3.004  -2.696  24.268  0.00  0.00    +0.176 A 
ATOM     30  O   UNL     1      -3.754  -2.992  24.094  0.00  0.00    -0.435 OA
ATOM     31  C   UNL     1      -4.297  -2.379  24.183  0.00  0.00    +0.429 C 
ATOM     32  O   UNL     1      -3.883  -1.702  24.413  0.00  0.00    -0.435 OA
ATOM     33  C   UNL     1      -3.084  -1.899  24.465  0.00  0.00    +0.177 A 
ATOM     34  C   UNL     1      -2.418  -1.455  24.667  0.00  0.00    +0.045 A 
ENDBRANCH   2  26
ENDBRANCH   4   3
ENDBRANCH   5   4
BRANCH  12  13
ATOM     13  C   UNL     1      -1.375   3.083  24.711  0.00  0.00    +0.074 C 
BRANCH  13  14
ATOM     14  N   UNL     1      -2.175   3.214  24.871  0.00  0.00    -0.270 NA
ATOM     15  C   UNL     1      -2.734   3.134  24.269  0.00  0.00    +0.094 C 
ATOM     16  C   UNL     1      -3.532   3.265  24.428  0.00  0.00    +0.108 C 
ATOM     17  N   UNL     1      -3.773   3.475  25.189  0.00  0.00    -0.305 N 
ATOM     18  C   UNL     1      -3.213   3.556  25.791  0.00  0.00    +0.108 C 
ATOM     19  C   UNL     1      -2.414   3.425  25.631  0.00  0.00    +0.094 C 
BRANCH  17  20
ATOM     20  C   UNL     1      -4.571   3.606  25.349  0.00  0.00    +0.048 A 
ATOM     21  C   UNL     1      -5.068   2.969  25.516  0.00  0.00    +0.015 A 
ATOM     22  C   UNL     1      -5.866   3.099  25.676  0.00  0.00    +0.001 A 
ATOM     23  C   UNL     1      -6.169   3.866  25.669  0.00  0.00    +0.000 A 
ATOM     24  C   UNL     1      -5.672   4.504  25.501  0.00  0.00    +0.001 A 
ATOM     25  C   UNL     1      -4.874   4.373  25.341  0.00  0.00    +0.015 A 
ENDBRANCH  17  20
ENDBRANCH  13  14
ENDBRANCH  12  13
TORSDOF 6
ENDMDL
