MODEL 1
REMARK VINA RESULT:     -11.5      0.000      0.000
REMARK  Name = 
REMARK  5 active torsions:
REMARK  status: ('A' for Active; 'I' for Inactive)
REMARK    1  A    between atoms: C_4  and  N_18
REMARK    2  A    between atoms: C_6  and  C_7
REMARK    3  A    between atoms: C_9  and  C_12
REMARK    4  A    between atoms: N_18  and  S_19
REMARK    5  A    between atoms: S_19  and  C_22
REMARK                            x       y       z     vdW  Elec       q    Type
REMARK                         _______ _______ _______ _____ _____    ______ ____
ROOT
ATOM      1  C   UNL     1       0.136   0.682  23.891  0.00  0.00    +0.090 C 
ATOM      2  N   UNL     1      -0.355   0.322  24.448  0.00  0.00    -0.264 NA
ATOM      3  C   UNL     1      -0.592  -0.468  24.448  0.00  0.00    +0.092 C 
ATOM      4  C   UNL     1      -1.079  -0.588  25.103  0.00  0.00    +0.115 C 
ATOM      5  C   UNL     1      -1.143   0.127  25.508  0.00  0.00    +0.046 C 
ATOM      6  C   UNL     1      -0.696   0.691  25.104  0.00  0.00    +0.139 C 
ENDROOT
BRANCH   6   7
ATOM      7  C   UNL     1      -0.605   1.482  25.317  0.00  0.00    +0.251 A 
ATOM      8  N   UNL     1      -1.121   2.098  25.127  0.00  0.00    -0.188 NA
ATOM      9  C   UNL     1      -0.817   2.793  25.450  0.00  0.00    +0.223 A 
ATOM     10  N   UNL     1      -0.113   2.608  25.839  0.00  0.00    -0.054 NA
ATOM     11  O   UNL     1       0.018   1.798  25.757  0.00  0.00    -0.336 OA
BRANCH   9  12
ATOM     12  C   UNL     1      -1.157   3.543  25.393  0.00  0.00    +0.139 A 
ATOM     13  C   UNL     1      -0.737   4.161  25.045  0.00  0.00    +0.121 A 
ATOM     14  N   UNL     1      -1.077   4.911  24.988  0.00  0.00    -0.239 NA
ATOM     15  C   UNL     1      -1.837   5.042  25.280  0.00  0.00    +0.120 A 
ATOM     16  C   UNL     1      -2.258   4.424  25.629  0.00  0.00    +0.120 A 
ATOM     17  N   UNL     1      -1.918   3.674  25.685  0.00  0.00    -0.237 NA
ENDBRANCH   9  12
ENDBRANCH   6   7
BRANCH   4  18
ATOM     18  N   UNL     1      -1.439  -1.300  25.315  0.00  0.00    -0.078 NA
BRANCH  18  19
ATOM     19  S   UNL     1      -2.158  -1.516  24.974  0.00  0.00    +0.077 S 
ATOM     20  O   UNL     1      -1.753  -1.885  24.357  0.00  0.00    -0.152 OA
ATOM     21  O   UNL     1      -2.562  -1.148  25.591  0.00  0.00    -0.152 OA
BRANCH  19  22
ATOM     22  C   UNL     1      -2.876  -1.734  24.632  0.00  0.00    +0.124 A 
ATOM     23  C   UNL     1      -3.076  -2.532  24.566  0.00  0.00    +0.020 A 
ATOM     24  C   UNL     1      -3.795  -2.750  24.224  0.00  0.00    +0.001 A 
ATOM     25  C   UNL     1      -4.313  -2.170  23.948  0.00  0.00    +0.000 A 
ATOM     26  C   UNL     1      -4.113  -1.372  24.015  0.00  0.00    +0.001 A 
ATOM     27  C   UNL     1      -3.395  -1.154  24.356  0.00  0.00    +0.020 A 
ENDBRANCH  19  22
ENDBRANCH  18  19
ENDBRANCH   4  18
TORSDOF 5
ENDMDL
MODEL 2
REMARK VINA RESULT:     -11.1      1.359      5.099
REMARK  Name = 
REMARK  5 active torsions:
REMARK  status: ('A' for Active; 'I' for Inactive)
REMARK    1  A    between atoms: C_4  and  N_18
REMARK    2  A    between atoms: C_6  and  C_7
REMARK    3  A    between atoms: C_9  and  C_12
REMARK    4  A    between atoms: N_18  and  S_19
REMARK    5  A    between atoms: S_19  and  C_22
REMARK                            x       y       z     vdW  Elec       q    Type
REMARK                         _______ _______ _______ _____ _____    ______ ____
ROOT
ATOM      1  C   UNL     1      -0.031   0.366  23.567  0.00  0.00    +0.090 C 
ATOM      2  N   UNL     1      -0.213   0.757  24.271  0.00  0.00    -0.264 NA
ATOM      3  C   UNL     1       0.063   1.500  24.498  0.00  0.00    +0.092 C 
ATOM      4  C   UNL     1      -0.256   1.676  25.239  0.00  0.00    +0.115 C 
ATOM      5  C   UNL     1      -0.730   1.041  25.469  0.00  0.00    +0.046 C 
ATOM      6  C   UNL     1      -0.704   0.473  24.871  0.00  0.00    +0.139 C 
ENDROOT
BRANCH   6   7
ATOM      7  C   UNL     1      -1.098  -0.251  24.872  0.00  0.00    +0.251 A 
ATOM      8  N   UNL     1      -1.865  -0.386  24.598  0.00  0.00    -0.188 NA
ATOM      9  C   UNL     1      -2.037  -1.186  24.704  0.00  0.00    +0.223 A 
ATOM     10  N   UNL     1      -1.376  -1.546  25.043  0.00  0.00    -0.054 NA
ATOM     11  O   UNL     1      -0.796  -0.968  25.147  0.00  0.00    -0.336 OA
BRANCH   9  12
ATOM     12  C   UNL     1      -2.745  -1.561  24.506  0.00  0.00    +0.139 A 
ATOM     13  C   UNL     1      -2.806  -2.381  24.562  0.00  0.00    +0.121 A 
ATOM     14  N   UNL     1      -3.515  -2.756  24.364  0.00  0.00    -0.239 NA
ATOM     15  C   UNL     1      -4.160  -2.310  24.109  0.00  0.00    +0.120 A 
ATOM     16  C   UNL     1      -4.098  -1.489  24.052  0.00  0.00    +0.120 A 
ATOM     17  N   UNL     1      -3.390  -1.115  24.251  0.00  0.00    -0.237 NA
ENDBRANCH   9  12
ENDBRANCH   6   7
BRANCH   4  18
ATOM     18  N   UNL     1      -0.124   2.365  25.672  0.00  0.00    -0.078 NA
BRANCH  18  19
ATOM     19  S   UNL     1      -0.628   3.012  25.583  0.00  0.00    +0.077 S 
ATOM     20  O   UNL     1      -1.046   2.778  26.255  0.00  0.00    -0.152 OA
ATOM     21  O   UNL     1      -0.210   3.245  24.912  0.00  0.00    -0.152 OA
BRANCH  19  22
ATOM     22  C   UNL     1      -1.133   3.658  25.494  0.00  0.00    +0.124 A 
ATOM     23  C   UNL     1      -0.871   4.334  25.098  0.00  0.00    +0.020 A 
ATOM     24  C   UNL     1      -1.376   4.981  25.010  0.00  0.00    +0.001 A 
ATOM     25  C   UNL     1      -2.141   4.952  25.316  0.00  0.00    +0.000 A 
ATOM     26  C   UNL     1      -2.402   4.276  25.711  0.00  0.00    +0.001 A 
ATOM     27  C   UNL     1      -1.899   3.630  25.800  0.00  0.00    +0.020 A 
ENDBRANCH  19  22
ENDBRANCH  18  19
ENDBRANCH   4  18
TORSDOF 5
ENDMDL
MODEL 3
REMARK VINA RESULT:     -10.6      2.502      5.788
REMARK  Name = 
REMARK  5 active torsions:
REMARK  status: ('A' for Active; 'I' for Inactive)
REMARK    1  A    between atoms: C_4  and  N_18
REMARK    2  A    between atoms: C_6  and  C_7
REMARK    3  A    between atoms: C_9  and  C_12
REMARK    4  A    between atoms: N_18  and  S_19
REMARK    5  A    between atoms: S_19  and  C_22
REMARK                            x       y       z     vdW  Elec       q    Type
REMARK                         _______ _______ _______ _____ _____    ______ ____
ROOT
ATOM      1  C   UNL     1      -5.494   1.968  24.631  0.00  0.00    +0.090 C 
ATOM      2  N   UNL     1      -4.777   2.241  24.933  0.00  0.00    -0.264 NA
ATOM      3  C   UNL     1      -4.659   2.951  25.337  0.00  0.00    +0.092 C 
ATOM      4  C   UNL     1      -3.860   3.000  25.538  0.00  0.00    +0.115 C 
ATOM      5  C   UNL     1      -3.484   2.321  25.259  0.00  0.00    +0.046 C 
ATOM      6  C   UNL     1      -4.051   1.851  24.885  0.00  0.00    +0.139 C 
ENDROOT
BRANCH   6   7
ATOM      7  C   UNL     1      -3.915   1.122  24.526  0.00  0.00    +0.251 A 
ATOM      8  N   UNL     1      -3.957   0.384  24.895  0.00  0.00    -0.188 NA
ATOM      9  C   UNL     1      -3.782  -0.193  24.333  0.00  0.00    +0.223 A 
ATOM     10  N   UNL     1      -3.632   0.187  23.616  0.00  0.00    -0.054 NA
ATOM     11  O   UNL     1      -3.714   0.999  23.735  0.00  0.00    -0.336 OA
BRANCH   9  12
ATOM     12  C   UNL     1      -3.760  -1.007  24.464  0.00  0.00    +0.139 A 
ATOM     13  C   UNL     1      -4.108  -1.521  23.921  0.00  0.00    +0.121 A 
ATOM     14  N   UNL     1      -4.086  -2.336  24.052  0.00  0.00    -0.239 NA
ATOM     15  C   UNL     1      -3.717  -2.635  24.726  0.00  0.00    +0.120 A 
ATOM     16  C   UNL     1      -3.370  -2.121  25.270  0.00  0.00    +0.120 A 
ATOM     17  N   UNL     1      -3.392  -1.307  25.138  0.00  0.00    -0.237 NA
ENDBRANCH   9  12
ENDBRANCH   6   7
BRANCH   4  18
ATOM     18  N   UNL     1      -3.501   3.620  25.946  0.00  0.00    -0.078 NA
BRANCH  18  19
ATOM     19  S   UNL     1      -2.793   3.942  25.669  0.00  0.00    +0.077 S 
ATOM     20  O   UNL     1      -2.384   3.561  26.277  0.00  0.00    -0.152 OA
ATOM     21  O   UNL     1      -3.202   4.321  25.063  0.00  0.00    -0.152 OA
BRANCH  19  22
ATOM     22  C   UNL     1      -2.085   4.262  25.394  0.00  0.00    +0.124 A 
ATOM     23  C   UNL     1      -1.435   3.772  25.261  0.00  0.00    +0.020 A 
ATOM     24  C   UNL     1      -0.726   4.093  24.985  0.00  0.00    +0.001 A 
ATOM     25  C   UNL     1      -0.667   4.903  24.842  0.00  0.00    +0.000 A 
ATOM     26  C   UNL     1      -1.318   5.393  24.975  0.00  0.00    +0.001 A 
ATOM     27  C   UNL     1      -2.026   5.073  25.250  0.00  0.00    +0.020 A 
ENDBRANCH  19  22
ENDBRANCH  18  19
ENDBRANCH   4  18
TORSDOF 5
ENDMDL
MODEL 4
REMARK VINA RESULT:     -10.3      2.153      2.779
REMARK  Name = 
REMARK  5 active torsions:
REMARK  status: ('A' for Active; 'I' for Inactive)
REMARK    1  A    between atoms: C_4  and  N_18
REMARK    2  A    between atoms: C_6  and  C_7
REMARK    3  A    between atoms: C_9  and  C_12
REMARK    4  A    between atoms: N_18  and  S_19
REMARK    5  A    between atoms: S_19  and  C_22
REMARK                            x       y       z     vdW  Elec       q    Type
REMARK                         _______ _______ _______ _____ _____    ______ ____
ROOT
ATOM      1  C   UNL     1      -5.294   2.344  25.543  0.00  0.00    +0.090 C 
ATOM      2  N   UNL     1      -4.776   1.886  25.092  0.00  0.00    -0.264 NA
ATOM      3  C   UNL     1      -4.959   1.177  24.713  0.00  0.00    +0.092 C 
ATOM      4  C   UNL     1      -4.279   0.911  24.328  0.00  0.00    +0.115 C 
ATOM      5  C   UNL     1      -3.676   1.456  24.469  0.00  0.00    +0.046 C 
ATOM      6  C   UNL     1      -3.983   2.059  24.941  0.00  0.00    +0.139 C 
ENDROOT
BRANCH   6   7
ATOM      7  C   UNL     1      -3.570   2.718  25.215  0.00  0.00    +0.251 A 
ATOM      8  N   UNL     1      -2.878   3.028  24.887  0.00  0.00    -0.188 NA
ATOM      9  C   UNL     1      -2.657   3.685  25.333  0.00  0.00    +0.223 A 
ATOM     10  N   UNL     1      -3.211   3.782  25.937  0.00  0.00    -0.054 NA
ATOM     11  O   UNL     1      -3.775   3.185  25.864  0.00  0.00    -0.336 OA
BRANCH   9  12
ATOM     12  C   UNL     1      -1.996   4.162  25.199  0.00  0.00    +0.139 A 
ATOM     13  C   UNL     1      -2.064   4.982  25.248  0.00  0.00    +0.121 A 
ATOM     14  N   UNL     1      -1.404   5.459  25.114  0.00  0.00    -0.239 NA
ATOM     15  C   UNL     1      -0.677   5.115  24.932  0.00  0.00    +0.120 A 
ATOM     16  C   UNL     1      -0.609   4.294  24.883  0.00  0.00    +0.120 A 
ATOM     17  N   UNL     1      -1.269   3.818  25.017  0.00  0.00    -0.237 NA
ENDBRANCH   9  12
ENDBRANCH   6   7
BRANCH   4  18
ATOM     18  N   UNL     1      -4.215   0.221  23.881  0.00  0.00    -0.078 NA
BRANCH  18  19
ATOM     19  S   UNL     1      -3.990  -0.486  24.242  0.00  0.00    +0.077 S 
ATOM     20  O   UNL     1      -3.199  -0.320  24.073  0.00  0.00    -0.152 OA
ATOM     21  O   UNL     1      -4.779  -0.652  24.411  0.00  0.00    -0.152 OA
BRANCH  19  22
ATOM     22  C   UNL     1      -3.764  -1.192  24.603  0.00  0.00    +0.124 A 
ATOM     23  C   UNL     1      -3.809  -1.902  24.185  0.00  0.00    +0.020 A 
ATOM     24  C   UNL     1      -3.582  -2.609  24.546  0.00  0.00    +0.001 A 
ATOM     25  C   UNL     1      -3.312  -2.606  25.324  0.00  0.00    +0.000 A 
ATOM     26  C   UNL     1      -3.267  -1.896  25.743  0.00  0.00    +0.001 A 
ATOM     27  C   UNL     1      -3.493  -1.190  25.383  0.00  0.00    +0.020 A 
ENDBRANCH  19  22
ENDBRANCH  18  19
ENDBRANCH   4  18
TORSDOF 5
ENDMDL
MODEL 5
REMARK VINA RESULT:      -9.8      2.335      4.628
REMARK  Name = 
REMARK  5 active torsions:
REMARK  status: ('A' for Active; 'I' for Inactive)
REMARK    1  A    between atoms: C_4  and  N_18
REMARK    2  A    between atoms: C_6  and  C_7
REMARK    3  A    between atoms: C_9  and  C_12
REMARK    4  A    between atoms: N_18  and  S_19
REMARK    5  A    between atoms: S_19  and  C_22
REMARK                            x       y       z     vdW  Elec       q    Type
REMARK                         _______ _______ _______ _____ _____    ______ ____
ROOT
ATOM      1  C   UNL     1      -0.321   2.487  25.801  0.00  0.00    +0.090 C 
ATOM      2  N   UNL     1      -1.015   2.576  25.363  0.00  0.00    -0.264 NA
ATOM      3  C   UNL     1      -1.510   3.236  25.366  0.00  0.00    +0.092 C 
ATOM      4  C   UNL     1      -2.137   3.088  24.851  0.00  0.00    +0.115 C 
ATOM      5  C   UNL     1      -2.030   2.336  24.529  0.00  0.00    +0.046 C 
ATOM      6  C   UNL     1      -1.337   2.019  24.846  0.00  0.00    +0.139 C 
ENDROOT
BRANCH   6   7
ATOM      7  C   UNL     1      -1.021   1.277  24.675  0.00  0.00    +0.251 A 
ATOM      8  N   UNL     1      -1.333   0.550  24.912  0.00  0.00    -0.188 NA
ATOM      9  C   UNL     1      -0.843  -0.045  24.621  0.00  0.00    +0.223 A 
ATOM     10  N   UNL     1      -0.227   0.312  24.204  0.00  0.00    -0.054 NA
ATOM     11  O   UNL     1      -0.337   1.129  24.237  0.00  0.00    -0.336 OA
BRANCH   9  12
ATOM     12  C   UNL     1      -0.949  -0.857  24.728  0.00  0.00    +0.139 A 
ATOM     13  C   UNL     1      -0.450  -1.274  25.235  0.00  0.00    +0.121 A 
ATOM     14  N   UNL     1      -0.556  -2.086  25.342  0.00  0.00    -0.239 NA
ATOM     15  C   UNL     1      -1.161  -2.479  24.942  0.00  0.00    +0.120 A 
ATOM     16  C   UNL     1      -1.660  -2.061  24.435  0.00  0.00    +0.120 A 
ATOM     17  N   UNL     1      -1.554  -1.250  24.328  0.00  0.00    -0.237 NA
ENDBRANCH   9  12
ENDBRANCH   6   7
BRANCH   4  18
ATOM     18  N   UNL     1      -2.761   3.602  24.686  0.00  0.00    -0.078 NA
BRANCH  18  19
ATOM     19  S   UNL     1      -3.536   3.377  24.856  0.00  0.00    +0.077 S 
ATOM     20  O   UNL     1      -3.430   3.606  25.642  0.00  0.00    -0.152 OA
ATOM     21  O   UNL     1      -3.642   3.149  24.071  0.00  0.00    -0.152 OA
BRANCH  19  22
ATOM     22  C   UNL     1      -4.311   3.153  25.026  0.00  0.00    +0.124 A 
ATOM     23  C   UNL     1      -4.738   3.554  25.608  0.00  0.00    +0.020 A 
ATOM     24  C   UNL     1      -5.514   3.329  25.779  0.00  0.00    +0.001 A 
ATOM     25  C   UNL     1      -5.862   2.705  25.369  0.00  0.00    +0.000 A 
ATOM     26  C   UNL     1      -5.436   2.304  24.787  0.00  0.00    +0.001 A 
ATOM     27  C   UNL     1      -4.661   2.528  24.616  0.00  0.00    +0.020 A 
ENDBRANCH  19  22
ENDBRANCH  18  19
ENDBRANCH   4  18
TORSDOF 5
ENDMDL
MODEL 6
REMARK VINA RESULT:      -8.6     16.095     18.069
REMARK  Name = 
REMARK  5 active torsions:
REMARK  status: ('A' for Active; 'I' for Inactive)
REMARK    1  A    between atoms: C_4  and  N_18
REMARK    2  A    between atoms: C_6  and  C_7
REMARK    3  A    between atoms: C_9  and  C_12
REMARK    4  A    between atoms: N_18  and  S_19
REMARK    5  A    between atoms: S_19  and  C_22
REMARK                            x       y       z     vdW  Elec       q    Type
REMARK                         _______ _______ _______ _____ _____    ______ ____
ROOT
ATOM      1  C   UNL     1      12.072   6.462  20.414  0.00  0.00    +0.090 C 
ATOM      2  N   UNL     1      12.734   6.948  20.341  0.00  0.00    -0.264 NA
ATOM      3  C   UNL     1      13.452   6.852  20.734  0.00  0.00    +0.092 C 
ATOM      4  C   UNL     1      13.956   7.462  20.497  0.00  0.00    +0.115 C 
ATOM      5  C   UNL     1      13.549   7.935  19.958  0.00  0.00    +0.046 C 
ATOM      6  C   UNL     1      12.793   7.618  19.861  0.00  0.00    +0.139 C 
ENDROOT
BRANCH   6   7
ATOM      7  C   UNL     1      12.201   7.916  19.371  0.00  0.00    +0.251 A 
ATOM      8  N   UNL     1      12.251   8.014  18.553  0.00  0.00    -0.188 NA
ATOM      9  C   UNL     1      11.536   8.328  18.289  0.00  0.00    +0.223 A 
ATOM     10  N   UNL     1      11.043   8.425  18.944  0.00  0.00    -0.054 NA
ATOM     11  O   UNL     1      11.454   8.171  19.613  0.00  0.00    -0.336 OA
BRANCH   9  12
ATOM     12  C   UNL     1      11.346   8.513  17.508  0.00  0.00    +0.139 A 
ATOM     13  C   UNL     1      11.893   8.909  17.034  0.00  0.00    +0.121 A 
ATOM     14  N   UNL     1      11.704   9.094  16.252  0.00  0.00    -0.239 NA
ATOM     15  C   UNL     1      10.968   8.883  15.945  0.00  0.00    +0.120 A 
ATOM     16  C   UNL     1      10.421   8.487  16.419  0.00  0.00    +0.120 A 
ATOM     17  N   UNL     1      10.610   8.302  17.201  0.00  0.00    -0.237 NA
ENDBRANCH   9  12
ENDBRANCH   6   7
BRANCH   4  18
ATOM     18  N   UNL     1      14.731   7.578  20.755  0.00  0.00    -0.078 NA
BRANCH  18  19
ATOM     19  S   UNL     1      15.354   7.190  20.378  0.00  0.00    +0.077 S 
ATOM     20  O   UNL     1      15.463   7.844  19.886  0.00  0.00    -0.152 OA
ATOM     21  O   UNL     1      15.245   6.537  20.869  0.00  0.00    -0.152 OA
BRANCH  19  22
ATOM     22  C   UNL     1      15.976   6.803  20.000  0.00  0.00    +0.124 A 
ATOM     23  C   UNL     1      16.709   6.737  20.375  0.00  0.00    +0.020 A 
ATOM     24  C   UNL     1      17.333   6.350  19.997  0.00  0.00    +0.001 A 
ATOM     25  C   UNL     1      17.224   6.029  19.246  0.00  0.00    +0.000 A 
ATOM     26  C   UNL     1      16.491   6.094  18.871  0.00  0.00    +0.001 A 
ATOM     27  C   UNL     1      15.868   6.481  19.248  0.00  0.00    +0.020 A 
ENDBRANCH  19  22
ENDBRANCH  18  19
ENDBRANCH   4  18
TORSDOF 5
ENDMDL
MODEL 7
REMARK VINA RESULT:      -8.3     15.740     17.774
REMARK  Name = 
REMARK  5 active torsions:
REMARK  status: ('A' for Active; 'I' for Inactive)
REMARK    1  A    between atoms: C_4  and  N_18
REMARK    2  A    between atoms: C_6  and  C_7
REMARK    3  A    between atoms: C_9  and  C_12
REMARK    4  A    between atoms: N_18  and  S_19
REMARK    5  A    between atoms: S_19  and  C_22
REMARK                            x       y       z     vdW  Elec       q    Type
REMARK                         _______ _______ _______ _____ _____    ______ ____
ROOT
ATOM      1  C   UNL     1      12.061   7.287  17.835  0.00  0.00    +0.090 C 
ATOM      2  N   UNL     1      12.700   7.649  18.211  0.00  0.00    -0.264 NA
ATOM      3  C   UNL     1      13.480   7.653  17.944  0.00  0.00    +0.092 C 
ATOM      4  C   UNL     1      13.934   8.077  18.488  0.00  0.00    +0.115 C 
ATOM      5  C   UNL     1      13.433   8.335  19.091  0.00  0.00    +0.046 C 
ATOM      6  C   UNL     1      12.670   8.070  18.920  0.00  0.00    +0.139 C 
ENDROOT
BRANCH   6   7
ATOM      7  C   UNL     1      11.997   8.203  19.377  0.00  0.00    +0.251 A 
ATOM      8  N   UNL     1      11.954   8.165  20.201  0.00  0.00    -0.188 NA
ATOM      9  C   UNL     1      11.179   8.336  20.424  0.00  0.00    +0.223 A 
ATOM     10  N   UNL     1      10.742   8.480  19.739  0.00  0.00    -0.054 NA
ATOM     11  O   UNL     1      11.247   8.397  19.092  0.00  0.00    -0.336 OA
BRANCH   9  12
ATOM     12  C   UNL     1      10.891   8.359  21.197  0.00  0.00    +0.139 A 
ATOM     13  C   UNL     1      10.605   7.671  21.551  0.00  0.00    +0.121 A 
ATOM     14  N   UNL     1      10.317   7.694  22.324  0.00  0.00    -0.239 NA
ATOM     15  C   UNL     1      10.315   8.405  22.742  0.00  0.00    +0.120 A 
ATOM     16  C   UNL     1      10.601   9.093  22.388  0.00  0.00    +0.120 A 
ATOM     17  N   UNL     1      10.889   9.070  21.615  0.00  0.00    -0.237 NA
ENDBRANCH   9  12
ENDBRANCH   6   7
BRANCH   4  18
ATOM     18  N   UNL     1      14.744   8.218  18.437  0.00  0.00    -0.078 NA
BRANCH  18  19
ATOM     19  S   UNL     1      15.269   7.787  18.906  0.00  0.00    +0.077 S 
ATOM     20  O   UNL     1      15.291   8.407  19.450  0.00  0.00    -0.152 OA
ATOM     21  O   UNL     1      15.246   7.167  18.363  0.00  0.00    -0.152 OA
BRANCH  19  22
ATOM     22  C   UNL     1      15.793   7.357  19.376  0.00  0.00    +0.124 A 
ATOM     23  C   UNL     1      16.126   7.704  20.046  0.00  0.00    +0.020 A 
ATOM     24  C   UNL     1      16.650   7.274  20.517  0.00  0.00    +0.001 A 
ATOM     25  C   UNL     1      16.842   6.497  20.317  0.00  0.00    +0.000 A 
ATOM     26  C   UNL     1      16.508   6.150  19.646  0.00  0.00    +0.001 A 
ATOM     27  C   UNL     1      15.984   6.579  19.176  0.00  0.00    +0.020 A 
ENDBRANCH  19  22
ENDBRANCH  18  19
ENDBRANCH   4  18
TORSDOF 5
ENDMDL
MODEL 8
REMARK VINA RESULT:      -8.0     16.166     18.038
REMARK  Name = 
REMARK  5 active torsions:
REMARK  status: ('A' for Active; 'I' for Inactive)
REMARK    1  A    between atoms: C_4  and  N_18
REMARK    2  A    between atoms: C_6  and  C_7
REMARK    3  A    between atoms: C_9  and  C_12
REMARK    4  A    between atoms: N_18  and  S_19
REMARK    5  A    between atoms: S_19  and  C_22
REMARK                            x       y       z     vdW  Elec       q    Type
REMARK                         _______ _______ _______ _____ _____    ______ ____
ROOT
ATOM      1  C   UNL     1      12.514   6.226  20.703  0.00  0.00    +0.090 C 
ATOM      2  N   UNL     1      12.540   6.964  20.336  0.00  0.00    -0.264 NA
ATOM      3  C   UNL     1      11.890   7.399  20.074  0.00  0.00    +0.092 C 
ATOM      4  C   UNL     1      12.170   8.101  19.742  0.00  0.00    +0.115 C 
ATOM      5  C   UNL     1      12.993   8.099  19.798  0.00  0.00    +0.046 C 
ATOM      6  C   UNL     1      13.222   7.396  20.165  0.00  0.00    +0.139 C 
ENDROOT
BRANCH   6   7
ATOM      7  C   UNL     1      13.996   7.167  20.332  0.00  0.00    +0.251 A 
ATOM      8  N   UNL     1      14.564   6.937  19.779  0.00  0.00    -0.188 NA
ATOM      9  C   UNL     1      15.258   6.755  20.186  0.00  0.00    +0.223 A 
ATOM     10  N   UNL     1      15.119   6.872  20.991  0.00  0.00    -0.054 NA
ATOM     11  O   UNL     1      14.340   7.127  21.081  0.00  0.00    -0.336 OA
BRANCH   9  12
ATOM     12  C   UNL     1      15.966   6.500  19.848  0.00  0.00    +0.139 A 
ATOM     13  C   UNL     1      16.678   6.610  20.250  0.00  0.00    +0.121 A 
ATOM     14  N   UNL     1      17.386   6.355  19.912  0.00  0.00    -0.239 NA
ATOM     15  C   UNL     1      17.382   5.991  19.172  0.00  0.00    +0.120 A 
ATOM     16  C   UNL     1      16.671   5.881  18.770  0.00  0.00    +0.120 A 
ATOM     17  N   UNL     1      15.962   6.135  19.108  0.00  0.00    -0.237 NA
ENDBRANCH   9  12
ENDBRANCH   6   7
BRANCH   4  18
ATOM     18  N   UNL     1      11.707   8.698  19.412  0.00  0.00    -0.078 NA
BRANCH  18  19
ATOM     19  S   UNL     1      11.585   8.723  18.596  0.00  0.00    +0.077 S 
ATOM     20  O   UNL     1      10.854   8.352  18.696  0.00  0.00    -0.152 OA
ATOM     21  O   UNL     1      12.315   9.092  18.497  0.00  0.00    -0.152 OA
BRANCH  19  22
ATOM     22  C   UNL     1      11.461   8.746  17.781  0.00  0.00    +0.124 A 
ATOM     23  C   UNL     1      12.039   9.068  17.286  0.00  0.00    +0.020 A 
ATOM     24  C   UNL     1      11.915   9.092  16.470  0.00  0.00    +0.001 A 
ATOM     25  C   UNL     1      11.216   8.795  16.150  0.00  0.00    +0.000 A 
ATOM     26  C   UNL     1      10.639   8.474  16.645  0.00  0.00    +0.001 A 
ATOM     27  C   UNL     1      10.762   8.450  17.460  0.00  0.00    +0.020 A 
ENDBRANCH  19  22
ENDBRANCH  18  19
ENDBRANCH   4  18
TORSDOF 5
ENDMDL
MODEL 9
REMARK VINA RESULT:      -7.9     15.726     17.702
REMARK  Name = 
REMARK  5 active torsions:
REMARK  status: ('A' for Active; 'I' for Inactive)
REMARK    1  A    between atoms: C_4  and  N_18
REMARK    2  A    between atoms: C_6  and  C_7
REMARK    3  A    between atoms: C_9  and  C_12
REMARK    4  A    between atoms: N_18  and  S_19
REMARK    5  A    between atoms: S_19  and  C_22
REMARK                            x       y       z     vdW  Elec       q    Type
REMARK                         _______ _______ _______ _____ _____    ______ ____
ROOT
ATOM      1  C   UNL     1      13.052   7.171  17.801  0.00  0.00    +0.090 C 
ATOM      2  N   UNL     1      12.847   7.688  18.410  0.00  0.00    -0.264 NA
ATOM      3  C   UNL     1      12.090   7.970  18.573  0.00  0.00    +0.092 C 
ATOM      4  C   UNL     1      12.138   8.470  19.227  0.00  0.00    +0.115 C 
ATOM      5  C   UNL     1      12.926   8.498  19.469  0.00  0.00    +0.046 C 
ATOM      6  C   UNL     1      13.365   8.014  18.964  0.00  0.00    +0.139 C 
ENDROOT
BRANCH   6   7
ATOM      7  C   UNL     1      14.178   7.881  19.006  0.00  0.00    +0.251 A 
ATOM      8  N   UNL     1      14.560   7.378  19.537  0.00  0.00    -0.188 NA
ATOM      9  C   UNL     1      15.369   7.412  19.383  0.00  0.00    +0.223 A 
ATOM     10  N   UNL     1      15.488   7.937  18.757  0.00  0.00    -0.054 NA
ATOM     11  O   UNL     1      14.752   8.226  18.524  0.00  0.00    -0.336 OA
BRANCH   9  12
ATOM     12  C   UNL     1      15.958   6.996  19.785  0.00  0.00    +0.139 A 
ATOM     13  C   UNL     1      16.509   6.550  19.363  0.00  0.00    +0.121 A 
ATOM     14  N   UNL     1      17.097   6.134  19.764  0.00  0.00    -0.239 NA
ATOM     15  C   UNL     1      17.134   6.163  20.588  0.00  0.00    +0.120 A 
ATOM     16  C   UNL     1      16.583   6.608  21.010  0.00  0.00    +0.120 A 
ATOM     17  N   UNL     1      15.994   7.025  20.609  0.00  0.00    -0.237 NA
ENDBRANCH   9  12
ENDBRANCH   6   7
BRANCH   4  18
ATOM     18  N   UNL     1      11.509   8.872  19.577  0.00  0.00    -0.078 NA
BRANCH  18  19
ATOM     19  S   UNL     1      11.223   8.631  20.312  0.00  0.00    +0.077 S 
ATOM     20  O   UNL     1      10.651   8.169  19.937  0.00  0.00    -0.152 OA
ATOM     21  O   UNL     1      11.794   9.092  20.687  0.00  0.00    -0.152 OA
BRANCH  19  22
ATOM     22  C   UNL     1      10.936   8.388  21.047  0.00  0.00    +0.124 A 
ATOM     23  C   UNL     1      10.789   7.588  21.189  0.00  0.00    +0.020 A 
ATOM     24  C   UNL     1      10.502   7.346  21.923  0.00  0.00    +0.001 A 
ATOM     25  C   UNL     1      10.361   7.902  22.515  0.00  0.00    +0.000 A 
ATOM     26  C   UNL     1      10.508   8.702  22.373  0.00  0.00    +0.001 A 
ATOM     27  C   UNL     1      10.795   8.945  21.640  0.00  0.00    +0.020 A 
ENDBRANCH  19  22
ENDBRANCH  18  19
ENDBRANCH   4  18
TORSDOF 5
ENDMDL
