MODEL 1
REMARK VINA RESULT:     -12.5      0.000      0.000
REMARK  Name = 
REMARK  8 active torsions:
REMARK  status: ('A' for Active; 'I' for Inactive)
REMARK    1  A    between atoms: N_4  and  C_24
REMARK    2  A    between atoms: C_7  and  C_8
REMARK    3  A    between atoms: C_10  and  N_11
REMARK    4  A    between atoms: C_12  and  C_14
REMARK    5  A    between atoms: C_14  and  C_15
REMARK    6  A    between atoms: C_15  and  C_18
REMARK    7  A    between atoms: C_18  and  C_19
REMARK    8  A    between atoms: C_27  and  C_30
REMARK                            x       y       z     vdW  Elec       q    Type
REMARK                         _______ _______ _______ _____ _____    ______ ____
ROOT
ATOM      1  C   UNL     1      -5.495   2.851  25.807  0.00  0.00    +0.054 C 
ATOM      2  C   UNL     1      -4.719   2.908  25.530  0.00  0.00    +0.077 A 
ATOM      3  N   UNL     1      -4.234   3.572  25.583  0.00  0.00    -0.170 NA
ATOM      4  N   UNL     1      -3.508   3.385  25.237  0.00  0.00    -0.234 N 
ATOM      5  C   UNL     1      -3.547   2.605  24.970  0.00  0.00    +0.058 A 
ATOM      6  C   UNL     1      -2.942   2.193  24.589  0.00  0.00    +0.052 C 
ATOM      7  C   UNL     1      -4.296   2.310  25.151  0.00  0.00    +0.010 A 
ENDROOT
BRANCH   4  24
ATOM     24  C   UNL     1      -2.858   3.889  25.170  0.00  0.00    +0.082 A 
ATOM     25  C   UNL     1      -2.265   3.875  25.742  0.00  0.00    +0.019 A 
ATOM     26  C   UNL     1      -1.615   4.379  25.675  0.00  0.00    +0.005 A 
ATOM     27  C   UNL     1      -1.559   4.897  25.036  0.00  0.00    +0.072 A 
ATOM     28  C   UNL     1      -2.153   4.911  24.462  0.00  0.00    +0.005 A 
ATOM     29  C   UNL     1      -2.803   4.407  24.530  0.00  0.00    +0.019 A 
BRANCH  27  30
ATOM     30  C   UNL     1      -0.909   5.401  24.968  0.00  0.00    +0.419 C 
ATOM     31  F   UNL     1      -0.260   5.905  24.901  0.00  0.00    -0.166 F 
ATOM     32  F   UNL     1      -0.457   4.778  24.670  0.00  0.00    -0.166 F 
ATOM     33  F   UNL     1      -1.361   6.023  25.267  0.00  0.00    -0.166 F 
ENDBRANCH  27  30
ENDBRANCH   4  24
BRANCH   7   8
ATOM      8  C   UNL     1      -4.571   1.551  24.982  0.00  0.00    +0.048 C 
ATOM      9  C   UNL     1      -4.129   0.935  24.660  0.00  0.00    +0.035 C 
ATOM     10  C   UNL     1      -4.621   0.278  24.585  0.00  0.00    +0.118 C 
ATOM     22  C   UNL     1      -5.370   0.489  24.862  0.00  0.00    -0.009 C 
ATOM     23  C   UNL     1      -5.339   1.275  25.107  0.00  0.00    -0.025 C 
BRANCH  10  11
ATOM     11  N   UNL     1      -4.406  -0.460  24.287  0.00  0.00    -0.203 NA
ATOM     12  C   UNL     1      -4.066  -1.024  24.784  0.00  0.00    +0.242 C 
ATOM     13  O   UNL     1      -3.942  -0.850  25.581  0.00  0.00    -0.273 OA
BRANCH  12  14
ATOM     14  C   UNL     1      -3.851  -1.762  24.485  0.00  0.00    +0.087 C 
BRANCH  14  15
ATOM     15  C   UNL     1      -3.147  -2.117  24.729  0.00  0.00    +0.019 C 
ATOM     16  C   UNL     1      -2.721  -1.609  24.238  0.00  0.00    +0.001 C 
ATOM     17  C   UNL     1      -3.573  -2.625  25.220  0.00  0.00    +0.001 C 
BRANCH  15  18
ATOM     18  C   UNL     1      -2.444  -2.472  24.973  0.00  0.00    +0.115 C 
BRANCH  18  19
ATOM     19  C   UNL     1      -1.847  -2.625  24.424  0.00  0.00    +0.365 C 
ATOM     20  O   UNL     1      -1.958  -3.202  23.844  0.00  0.00    -0.246 OA
ATOM     21  O   UNL     1      -1.140  -2.201  24.454  0.00  0.00    -0.246 OA
ENDBRANCH  18  19
ENDBRANCH  15  18
ENDBRANCH  14  15
ENDBRANCH  12  14
ENDBRANCH  10  11
ENDBRANCH   7   8
TORSDOF 8
ENDMDL
MODEL 2
REMARK VINA RESULT:     -11.9      3.164      5.726
REMARK  Name = 
REMARK  8 active torsions:
REMARK  status: ('A' for Active; 'I' for Inactive)
REMARK    1  A    between atoms: N_4  and  C_24
REMARK    2  A    between atoms: C_7  and  C_8
REMARK    3  A    between atoms: C_10  and  N_11
REMARK    4  A    between atoms: C_12  and  C_14
REMARK    5  A    between atoms: C_14  and  C_15
REMARK    6  A    between atoms: C_15  and  C_18
REMARK    7  A    between atoms: C_18  and  C_19
REMARK    8  A    between atoms: C_27  and  C_30
REMARK                            x       y       z     vdW  Elec       q    Type
REMARK                         _______ _______ _______ _____ _____    ______ ____
ROOT
ATOM      1  C   UNL     1      -6.115   1.704  24.994  0.00  0.00    +0.054 C 
ATOM      2  C   UNL     1      -5.420   1.261  24.943  0.00  0.00    +0.077 A 
ATOM      3  N   UNL     1      -5.372   0.448  24.817  0.00  0.00    -0.170 NA
ATOM      4  N   UNL     1      -4.574   0.239  24.804  0.00  0.00    -0.234 N 
ATOM      5  C   UNL     1      -4.129   0.924  24.923  0.00  0.00    +0.058 A 
ATOM      6  C   UNL     1      -3.305   0.968  24.951  0.00  0.00    +0.052 C 
ATOM      7  C   UNL     1      -4.652   1.556  25.009  0.00  0.00    +0.010 A 
ENDROOT
BRANCH   4  24
ATOM     24  C   UNL     1      -4.273  -0.521  24.693  0.00  0.00    +0.082 A 
ATOM     25  C   UNL     1      -4.321  -0.878  23.951  0.00  0.00    +0.019 A 
ATOM     26  C   UNL     1      -4.020  -1.639  23.840  0.00  0.00    +0.005 A 
ATOM     27  C   UNL     1      -3.672  -2.041  24.469  0.00  0.00    +0.072 A 
ATOM     28  C   UNL     1      -3.623  -1.683  25.212  0.00  0.00    +0.005 A 
ATOM     29  C   UNL     1      -3.924  -0.923  25.323  0.00  0.00    +0.019 A 
BRANCH  27  30
ATOM     30  C   UNL     1      -3.371  -2.802  24.358  0.00  0.00    +0.419 C 
ATOM     31  F   UNL     1      -3.071  -3.562  24.247  0.00  0.00    -0.166 F 
ATOM     32  F   UNL     1      -2.604  -2.514  24.462  0.00  0.00    -0.166 F 
ATOM     33  F   UNL     1      -4.137  -3.089  24.255  0.00  0.00    -0.166 F 
ENDBRANCH  27  30
ENDBRANCH   4  24
BRANCH   7   8
ATOM      8  C   UNL     1      -4.443   2.344  25.137  0.00  0.00    +0.048 C 
ATOM      9  C   UNL     1      -3.781   2.727  24.831  0.00  0.00    +0.035 C 
ATOM     10  C   UNL     1      -3.788   3.506  25.100  0.00  0.00    +0.118 C 
ATOM     22  C   UNL     1      -4.457   3.605  25.573  0.00  0.00    -0.009 C 
ATOM     23  C   UNL     1      -4.862   2.887  25.596  0.00  0.00    -0.025 C 
BRANCH  10  11
ATOM     11  N   UNL     1      -3.227   4.085  24.927  0.00  0.00    -0.203 NA
ATOM     12  C   UNL     1      -2.633   4.261  25.471  0.00  0.00    +0.242 C 
ATOM     13  O   UNL     1      -2.600   3.858  26.190  0.00  0.00    -0.273 OA
BRANCH  12  14
ATOM     14  C   UNL     1      -2.072   4.841  25.297  0.00  0.00    +0.087 C 
BRANCH  14  15
ATOM     15  C   UNL     1      -1.286   4.629  25.167  0.00  0.00    +0.019 C 
ATOM     16  C   UNL     1      -1.230   5.199  24.574  0.00  0.00    +0.001 C 
ATOM     17  C   UNL     1      -1.342   4.058  25.760  0.00  0.00    +0.001 C 
BRANCH  15  18
ATOM     18  C   UNL     1      -0.500   4.416  25.037  0.00  0.00    +0.115 C 
BRANCH  18  19
ATOM     19  C   UNL     1      -0.259   4.161  24.290  0.00  0.00    +0.365 C 
ATOM     20  O   UNL     1      -0.096   4.713  23.699  0.00  0.00    -0.246 OA
ATOM     21  O   UNL     1      -0.182   3.355  24.135  0.00  0.00    -0.246 OA
ENDBRANCH  18  19
ENDBRANCH  15  18
ENDBRANCH  14  15
ENDBRANCH  12  14
ENDBRANCH  10  11
ENDBRANCH   7   8
TORSDOF 8
ENDMDL
MODEL 3
REMARK VINA RESULT:     -11.0      2.898      4.140
REMARK  Name = 
REMARK  8 active torsions:
REMARK  status: ('A' for Active; 'I' for Inactive)
REMARK    1  A    between atoms: N_4  and  C_24
REMARK    2  A    between atoms: C_7  and  C_8
REMARK    3  A    between atoms: C_10  and  N_11
REMARK    4  A    between atoms: C_12  and  C_14
REMARK    5  A    between atoms: C_14  and  C_15
REMARK    6  A    between atoms: C_15  and  C_18
REMARK    7  A    between atoms: C_18  and  C_19
REMARK    8  A    between atoms: C_27  and  C_30
REMARK                            x       y       z     vdW  Elec       q    Type
REMARK                         _______ _______ _______ _____ _____    ______ ____
ROOT
ATOM      1  C   UNL     1      -4.155  -1.078  24.322  0.00  0.00    +0.054 C 
ATOM      2  C   UNL     1      -4.034  -0.303  24.580  0.00  0.00    +0.077 A 
ATOM      3  N   UNL     1      -4.609   0.286  24.632  0.00  0.00    -0.170 NA
ATOM      4  N   UNL     1      -4.247   0.971  24.916  0.00  0.00    -0.234 N 
ATOM      5  C   UNL     1      -3.449   0.805  25.039  0.00  0.00    +0.058 A 
ATOM      6  C   UNL     1      -2.881   1.335  25.320  0.00  0.00    +0.052 C 
ATOM      7  C   UNL     1      -3.317   0.017  24.831  0.00  0.00    +0.010 A 
ENDROOT
BRANCH   4  24
ATOM     24  C   UNL     1      -4.619   1.695  25.052  0.00  0.00    +0.082 A 
ATOM     25  C   UNL     1      -4.464   2.337  24.558  0.00  0.00    +0.019 A 
ATOM     26  C   UNL     1      -4.835   3.061  24.694  0.00  0.00    +0.005 A 
ATOM     27  C   UNL     1      -5.361   3.143  25.324  0.00  0.00    +0.072 A 
ATOM     28  C   UNL     1      -5.516   2.501  25.819  0.00  0.00    +0.005 A 
ATOM     29  C   UNL     1      -5.144   1.777  25.682  0.00  0.00    +0.019 A 
BRANCH  27  30
ATOM     30  C   UNL     1      -5.732   3.868  25.460  0.00  0.00    +0.419 C 
ATOM     31  F   UNL     1      -6.104   4.591  25.597  0.00  0.00    -0.166 F 
ATOM     32  F   UNL     1      -4.996   4.241  25.482  0.00  0.00    -0.166 F 
ATOM     33  F   UNL     1      -6.467   3.494  25.438  0.00  0.00    -0.166 F 
ENDBRANCH  27  30
ENDBRANCH   4  24
BRANCH   7   8
ATOM      8  C   UNL     1      -2.594  -0.379  24.869  0.00  0.00    +0.048 C 
ATOM      9  C   UNL     1      -2.062  -0.480  24.248  0.00  0.00    +0.035 C 
ATOM     10  C   UNL     1      -1.417  -0.907  24.530  0.00  0.00    +0.118 C 
ATOM     22  C   UNL     1      -1.549  -1.070  25.328  0.00  0.00    -0.009 C 
ATOM     23  C   UNL     1      -2.276  -0.744  25.538  0.00  0.00    -0.025 C 
BRANCH  10  11
ATOM     11  N   UNL     1      -0.754  -1.132  24.094  0.00  0.00    -0.203 NA
ATOM     12  C   UNL     1      -0.150  -0.589  23.950  0.00  0.00    +0.242 C 
ATOM     13  O   UNL     1      -0.207   0.180  24.243  0.00  0.00    -0.273 OA
BRANCH  12  14
ATOM     14  C   UNL     1       0.513  -0.815  23.513  0.00  0.00    +0.087 C 
BRANCH  14  15
ATOM     15  C   UNL     1       0.969  -0.244  23.130  0.00  0.00    +0.019 C 
ATOM     16  C   UNL     1       0.477  -0.294  22.470  0.00  0.00    +0.001 C 
ATOM     17  C   UNL     1       1.461  -0.194  23.790  0.00  0.00    +0.001 C 
BRANCH  15  18
ATOM     18  C   UNL     1       1.425   0.327  22.747  0.00  0.00    +0.115 C 
BRANCH  18  19
ATOM     19  C   UNL     1       2.099   0.103  22.327  0.00  0.00    +0.365 C 
ATOM     20  O   UNL     1       2.846   0.194  22.666  0.00  0.00    -0.246 OA
ATOM     21  O   UNL     1       2.026  -0.212  21.568  0.00  0.00    -0.246 OA
ENDBRANCH  18  19
ENDBRANCH  15  18
ENDBRANCH  14  15
ENDBRANCH  12  14
ENDBRANCH  10  11
ENDBRANCH   7   8
TORSDOF 8
ENDMDL
MODEL 4
REMARK VINA RESULT:     -10.7      2.206      3.149
REMARK  Name = 
REMARK  8 active torsions:
REMARK  status: ('A' for Active; 'I' for Inactive)
REMARK    1  A    between atoms: N_4  and  C_24
REMARK    2  A    between atoms: C_7  and  C_8
REMARK    3  A    between atoms: C_10  and  N_11
REMARK    4  A    between atoms: C_12  and  C_14
REMARK    5  A    between atoms: C_14  and  C_15
REMARK    6  A    between atoms: C_15  and  C_18
REMARK    7  A    between atoms: C_18  and  C_19
REMARK    8  A    between atoms: C_27  and  C_30
REMARK                            x       y       z     vdW  Elec       q    Type
REMARK                         _______ _______ _______ _____ _____    ______ ____
ROOT
ATOM      1  C   UNL     1       0.663   0.673  23.445  0.00  0.00    +0.054 C 
ATOM      2  C   UNL     1       0.145   1.115  23.912  0.00  0.00    +0.077 A 
ATOM      3  N   UNL     1       0.088   1.937  23.927  0.00  0.00    -0.170 NA
ATOM      4  N   UNL     1      -0.498   2.143  24.470  0.00  0.00    -0.234 N 
ATOM      5  C   UNL     1      -0.803   1.446  24.791  0.00  0.00    +0.058 A 
ATOM      6  C   UNL     1      -1.401   1.395  25.357  0.00  0.00    +0.052 C 
ATOM      7  C   UNL     1      -0.405   0.811  24.446  0.00  0.00    +0.010 A 
ENDROOT
BRANCH   4  24
ATOM     24  C   UNL     1      -0.738   2.910  24.659  0.00  0.00    +0.082 A 
ATOM     25  C   UNL     1      -0.291   3.362  25.185  0.00  0.00    +0.019 A 
ATOM     26  C   UNL     1      -0.531   4.129  25.374  0.00  0.00    +0.005 A 
ATOM     27  C   UNL     1      -1.215   4.442  25.038  0.00  0.00    +0.072 A 
ATOM     28  C   UNL     1      -1.662   3.989  24.512  0.00  0.00    +0.005 A 
ATOM     29  C   UNL     1      -1.422   3.222  24.322  0.00  0.00    +0.019 A 
BRANCH  27  30
ATOM     30  C   UNL     1      -1.455   5.209  25.227  0.00  0.00    +0.419 C 
ATOM     31  F   UNL     1      -1.694   5.975  25.416  0.00  0.00    -0.166 F 
ATOM     32  F   UNL     1      -0.821   5.514  24.794  0.00  0.00    -0.166 F 
ATOM     33  F   UNL     1      -2.087   4.904  25.659  0.00  0.00    -0.166 F 
ENDBRANCH  27  30
ENDBRANCH   4  24
BRANCH   7   8
ATOM      8  C   UNL     1      -0.536   0.013  24.608  0.00  0.00    +0.048 C 
ATOM      9  C   UNL     1      -1.100  -0.469  24.249  0.00  0.00    +0.035 C 
ATOM     10  C   UNL     1      -1.038  -1.223  24.576  0.00  0.00    +0.118 C 
ATOM     22  C   UNL     1      -0.434  -1.207  25.139  0.00  0.00    -0.009 C 
ATOM     23  C   UNL     1      -0.124  -0.444  25.158  0.00  0.00    -0.025 C 
BRANCH  10  11
ATOM     11  N   UNL     1      -1.498  -1.879  24.378  0.00  0.00    -0.203 NA
ATOM     12  C   UNL     1      -2.114  -2.116  24.872  0.00  0.00    +0.242 C 
ATOM     13  O   UNL     1      -2.272  -1.698  25.565  0.00  0.00    -0.273 OA
BRANCH  12  14
ATOM     14  C   UNL     1      -2.574  -2.772  24.673  0.00  0.00    +0.087 C 
BRANCH  14  15
ATOM     15  C   UNL     1      -3.390  -2.693  24.585  0.00  0.00    +0.019 C 
ATOM     16  C   UNL     1      -3.454  -2.480  25.380  0.00  0.00    +0.001 C 
ATOM     17  C   UNL     1      -3.326  -2.906  23.791  0.00  0.00    +0.001 C 
BRANCH  15  18
ATOM     18  C   UNL     1      -4.206  -2.614  24.498  0.00  0.00    +0.115 C 
BRANCH  18  19
ATOM     19  C   UNL     1      -4.515  -2.209  23.848  0.00  0.00    +0.365 C 
ATOM     20  O   UNL     1      -4.664  -2.613  23.144  0.00  0.00    -0.246 OA
ATOM     21  O   UNL     1      -4.673  -1.401  23.902  0.00  0.00    -0.246 OA
ENDBRANCH  18  19
ENDBRANCH  15  18
ENDBRANCH  14  15
ENDBRANCH  12  14
ENDBRANCH  10  11
ENDBRANCH   7   8
TORSDOF 8
ENDMDL
MODEL 5
REMARK VINA RESULT:     -10.5      4.521      5.523
REMARK  Name = 
REMARK  8 active torsions:
REMARK  status: ('A' for Active; 'I' for Inactive)
REMARK    1  A    between atoms: N_4  and  C_24
REMARK    2  A    between atoms: C_7  and  C_8
REMARK    3  A    between atoms: C_10  and  N_11
REMARK    4  A    between atoms: C_12  and  C_14
REMARK    5  A    between atoms: C_14  and  C_15
REMARK    6  A    between atoms: C_15  and  C_18
REMARK    7  A    between atoms: C_18  and  C_19
REMARK    8  A    between atoms: C_27  and  C_30
REMARK                            x       y       z     vdW  Elec       q    Type
REMARK                         _______ _______ _______ _____ _____    ______ ____
ROOT
ATOM      1  C   UNL     1      -0.549  -0.609  24.814  0.00  0.00    +0.054 C 
ATOM      2  C   UNL     1      -0.619   0.208  24.708  0.00  0.00    +0.077 A 
ATOM      3  N   UNL     1      -1.087   0.715  25.158  0.00  0.00    -0.170 NA
ATOM      4  N   UNL     1      -0.991   1.480  24.862  0.00  0.00    -0.234 N 
ATOM      5  C   UNL     1      -0.464   1.443  24.228  0.00  0.00    +0.058 A 
ATOM      6  C   UNL     1      -0.211   2.082  23.771  0.00  0.00    +0.052 C 
ATOM      7  C   UNL     1      -0.234   0.656  24.133  0.00  0.00    +0.010 A 
ENDROOT
BRANCH   4  24
ATOM     24  C   UNL     1      -1.359   2.161  25.149  0.00  0.00    +0.082 A 
ATOM     25  C   UNL     1      -0.974   2.633  25.705  0.00  0.00    +0.019 A 
ATOM     26  C   UNL     1      -1.341   3.314  25.992  0.00  0.00    +0.005 A 
ATOM     27  C   UNL     1      -2.091   3.523  25.722  0.00  0.00    +0.072 A 
ATOM     28  C   UNL     1      -2.476   3.051  25.165  0.00  0.00    +0.005 A 
ATOM     29  C   UNL     1      -2.109   2.369  24.878  0.00  0.00    +0.019 A 
BRANCH  27  30
ATOM     30  C   UNL     1      -2.459   4.204  26.009  0.00  0.00    +0.419 C 
ATOM     31  F   UNL     1      -2.825   4.885  26.295  0.00  0.00    -0.166 F 
ATOM     32  F   UNL     1      -2.989   3.738  26.437  0.00  0.00    -0.166 F 
ATOM     33  F   UNL     1      -1.928   4.669  25.582  0.00  0.00    -0.166 F 
ENDBRANCH  27  30
ENDBRANCH   4  24
BRANCH   7   8
ATOM      8  C   UNL     1       0.290   0.371  23.563  0.00  0.00    +0.048 C 
ATOM      9  C   UNL     1       1.076   0.157  23.689  0.00  0.00    +0.035 C 
ATOM     10  C   UNL     1       1.390  -0.096  22.971  0.00  0.00    +0.118 C 
ATOM     22  C   UNL     1       0.797  -0.040  22.399  0.00  0.00    -0.009 C 
ATOM     23  C   UNL     1       0.118   0.249  22.765  0.00  0.00    -0.025 C 
BRANCH  10  11
ATOM     11  N   UNL     1       2.161  -0.361  22.844  0.00  0.00    -0.203 NA
ATOM     12  C   UNL     1       2.774   0.183  22.749  0.00  0.00    +0.242 C 
ATOM     13  O   UNL     1       2.617   0.992  22.781  0.00  0.00    -0.273 OA
BRANCH  12  14
ATOM     14  C   UNL     1       3.546  -0.082  22.622  0.00  0.00    +0.087 C 
BRANCH  14  15
ATOM     15  C   UNL     1       4.170   0.246  23.049  0.00  0.00    +0.019 C 
ATOM     16  C   UNL     1       4.179  -0.414  23.543  0.00  0.00    +0.001 C 
ATOM     17  C   UNL     1       4.161   0.906  22.554  0.00  0.00    +0.001 C 
BRANCH  15  18
ATOM     18  C   UNL     1       4.795   0.575  23.476  0.00  0.00    +0.115 C 
BRANCH  18  19
ATOM     19  C   UNL     1       5.459   0.118  23.653  0.00  0.00    +0.365 C 
ATOM     20  O   UNL     1       6.014  -0.049  23.066  0.00  0.00    -0.246 OA
ATOM     21  O   UNL     1       5.567  -0.172  24.418  0.00  0.00    -0.246 OA
ENDBRANCH  18  19
ENDBRANCH  15  18
ENDBRANCH  14  15
ENDBRANCH  12  14
ENDBRANCH  10  11
ENDBRANCH   7   8
TORSDOF 8
ENDMDL
MODEL 6
REMARK VINA RESULT:     -10.4      3.297      5.200
REMARK  Name = 
REMARK  8 active torsions:
REMARK  status: ('A' for Active; 'I' for Inactive)
REMARK    1  A    between atoms: N_4  and  C_24
REMARK    2  A    between atoms: C_7  and  C_8
REMARK    3  A    between atoms: C_10  and  N_11
REMARK    4  A    between atoms: C_12  and  C_14
REMARK    5  A    between atoms: C_14  and  C_15
REMARK    6  A    between atoms: C_15  and  C_18
REMARK    7  A    between atoms: C_18  and  C_19
REMARK    8  A    between atoms: C_27  and  C_30
REMARK                            x       y       z     vdW  Elec       q    Type
REMARK                         _______ _______ _______ _____ _____    ______ ____
ROOT
ATOM      1  C   UNL     1      -1.345  -1.771  25.384  0.00  0.00    +0.054 C 
ATOM      2  C   UNL     1      -1.062  -1.208  24.849  0.00  0.00    +0.077 A 
ATOM      3  N   UNL     1      -0.280  -1.122  24.605  0.00  0.00    -0.170 NA
ATOM      4  N   UNL     1      -0.248  -0.494  24.071  0.00  0.00    -0.234 N 
ATOM      5  C   UNL     1      -1.011  -0.193  23.985  0.00  0.00    +0.058 A 
ATOM      6  C   UNL     1      -1.231   0.439  23.502  0.00  0.00    +0.052 C 
ATOM      7  C   UNL     1      -1.515  -0.635  24.466  0.00  0.00    +0.010 A 
ENDROOT
BRANCH   4  24
ATOM     24  C   UNL     1       0.429  -0.216  23.689  0.00  0.00    +0.082 A 
ATOM     25  C   UNL     1       0.778   0.490  23.932  0.00  0.00    +0.019 A 
ATOM     26  C   UNL     1       1.455   0.768  23.550  0.00  0.00    +0.005 A 
ATOM     27  C   UNL     1       1.782   0.340  22.927  0.00  0.00    +0.072 A 
ATOM     28  C   UNL     1       1.433  -0.367  22.683  0.00  0.00    +0.005 A 
ATOM     29  C   UNL     1       0.756  -0.645  23.065  0.00  0.00    +0.019 A 
BRANCH  27  30
ATOM     30  C   UNL     1       2.459   0.618  22.545  0.00  0.00    +0.419 C 
ATOM     31  F   UNL     1       3.135   0.895  22.163  0.00  0.00    -0.166 F 
ATOM     32  F   UNL     1       2.600   1.136  23.172  0.00  0.00    -0.166 F 
ATOM     33  F   UNL     1       2.318   0.100  21.918  0.00  0.00    -0.166 F 
ENDBRANCH  27  30
ENDBRANCH   4  24
BRANCH   7   8
ATOM      8  C   UNL     1      -2.328  -0.521  24.549  0.00  0.00    +0.048 C 
ATOM      9  C   UNL     1      -2.694   0.021  25.050  0.00  0.00    +0.035 C 
ATOM     10  C   UNL     1      -3.509  -0.053  24.955  0.00  0.00    +0.118 C 
ATOM     22  C   UNL     1      -3.648  -0.642  24.394  0.00  0.00    -0.009 C 
ATOM     23  C   UNL     1      -2.918  -0.931  24.143  0.00  0.00    -0.025 C 
BRANCH  10  11
ATOM     11  N   UNL     1      -4.087   0.383  25.351  0.00  0.00    -0.203 NA
ATOM     12  C   UNL     1      -4.453   1.020  24.975  0.00  0.00    +0.242 C 
ATOM     13  O   UNL     1      -4.243   1.220  24.203  0.00  0.00    -0.273 OA
BRANCH  12  14
ATOM     14  C   UNL     1      -5.031   1.456  25.372  0.00  0.00    +0.087 C 
BRANCH  14  15
ATOM     15  C   UNL     1      -5.182   2.236  25.151  0.00  0.00    +0.019 C 
ATOM     16  C   UNL     1      -5.885   1.998  24.790  0.00  0.00    +0.001 C 
ATOM     17  C   UNL     1      -4.480   2.475  25.511  0.00  0.00    +0.001 C 
BRANCH  15  18
ATOM     18  C   UNL     1      -5.334   3.016  24.930  0.00  0.00    +0.115 C 
BRANCH  18  19
ATOM     19  C   UNL     1      -5.467   3.591  25.508  0.00  0.00    +0.365 C 
ATOM     20  O   UNL     1      -4.898   4.171  25.650  0.00  0.00    -0.246 OA
ATOM     21  O   UNL     1      -6.168   3.584  25.942  0.00  0.00    -0.246 OA
ENDBRANCH  18  19
ENDBRANCH  15  18
ENDBRANCH  14  15
ENDBRANCH  12  14
ENDBRANCH  10  11
ENDBRANCH   7   8
TORSDOF 8
ENDMDL
MODEL 7
REMARK VINA RESULT:     -10.3      4.150      5.274
REMARK  Name = 
REMARK  8 active torsions:
REMARK  status: ('A' for Active; 'I' for Inactive)
REMARK    1  A    between atoms: N_4  and  C_24
REMARK    2  A    between atoms: C_7  and  C_8
REMARK    3  A    between atoms: C_10  and  N_11
REMARK    4  A    between atoms: C_12  and  C_14
REMARK    5  A    between atoms: C_14  and  C_15
REMARK    6  A    between atoms: C_15  and  C_18
REMARK    7  A    between atoms: C_18  and  C_19
REMARK    8  A    between atoms: C_27  and  C_30
REMARK                            x       y       z     vdW  Elec       q    Type
REMARK                         _______ _______ _______ _____ _____    ______ ____
ROOT
ATOM      1  C   UNL     1      -0.741   1.774  25.481  0.00  0.00    +0.054 C 
ATOM      2  C   UNL     1      -1.454   1.516  25.154  0.00  0.00    +0.077 A 
ATOM      3  N   UNL     1      -2.202   1.817  25.323  0.00  0.00    -0.170 NA
ATOM      4  N   UNL     1      -2.753   1.399  24.874  0.00  0.00    -0.234 N 
ATOM      5  C   UNL     1      -2.344   0.839  24.426  0.00  0.00    +0.058 A 
ATOM      6  C   UNL     1      -2.681   0.301  23.899  0.00  0.00    +0.052 C 
ATOM      7  C   UNL     1      -1.541   0.911  24.600  0.00  0.00    +0.010 A 
ENDROOT
BRANCH   4  24
ATOM     24  C   UNL     1      -3.569   1.519  24.872  0.00  0.00    +0.082 A 
ATOM     25  C   UNL     1      -4.065   0.986  25.259  0.00  0.00    +0.019 A 
ATOM     26  C   UNL     1      -4.882   1.106  25.257  0.00  0.00    +0.005 A 
ATOM     27  C   UNL     1      -5.201   1.759  24.869  0.00  0.00    +0.072 A 
ATOM     28  C   UNL     1      -4.705   2.293  24.481  0.00  0.00    +0.005 A 
ATOM     29  C   UNL     1      -3.889   2.173  24.483  0.00  0.00    +0.019 A 
BRANCH  27  30
ATOM     30  C   UNL     1      -6.018   1.879  24.867  0.00  0.00    +0.419 C 
ATOM     31  F   UNL     1      -6.834   2.000  24.865  0.00  0.00    -0.166 F 
ATOM     32  F   UNL     1      -6.099   1.323  24.262  0.00  0.00    -0.166 F 
ATOM     33  F   UNL     1      -5.937   2.435  25.470  0.00  0.00    -0.166 F 
ENDBRANCH  27  30
ENDBRANCH   4  24
BRANCH   7   8
ATOM      8  C   UNL     1      -0.933   0.457  24.275  0.00  0.00    +0.048 C 
ATOM      9  C   UNL     1      -0.418   0.693  23.676  0.00  0.00    +0.035 C 
ATOM     10  C   UNL     1       0.099   0.070  23.524  0.00  0.00    +0.118 C 
ATOM     22  C   UNL     1      -0.096  -0.553  24.029  0.00  0.00    -0.009 C 
ATOM     23  C   UNL     1      -0.734  -0.313  24.493  0.00  0.00    -0.025 C 
BRANCH  10  11
ATOM     11  N   UNL     1       0.706   0.067  22.965  0.00  0.00    -0.203 NA
ATOM     12  C   UNL     1       1.483   0.217  23.198  0.00  0.00    +0.242 C 
ATOM     13  O   UNL     1       1.655   0.371  23.990  0.00  0.00    -0.273 OA
BRANCH  12  14
ATOM     14  C   UNL     1       2.090   0.215  22.638  0.00  0.00    +0.087 C 
BRANCH  14  15
ATOM     15  C   UNL     1       2.860   0.404  22.864  0.00  0.00    +0.019 C 
ATOM     16  C   UNL     1       3.044  -0.399  22.908  0.00  0.00    +0.001 C 
ATOM     17  C   UNL     1       2.676   1.207  22.819  0.00  0.00    +0.001 C 
BRANCH  15  18
ATOM     18  C   UNL     1       3.631   0.593  23.089  0.00  0.00    +0.115 C 
BRANCH  18  19
ATOM     19  C   UNL     1       4.248   0.529  22.545  0.00  0.00    +0.365 C 
ATOM     20  O   UNL     1       4.133   0.762  21.762  0.00  0.00    -0.246 OA
ATOM     21  O   UNL     1       4.979   0.231  22.784  0.00  0.00    -0.246 OA
ENDBRANCH  18  19
ENDBRANCH  15  18
ENDBRANCH  14  15
ENDBRANCH  12  14
ENDBRANCH  10  11
ENDBRANCH   7   8
TORSDOF 8
ENDMDL
MODEL 8
REMARK VINA RESULT:     -10.2      3.460      5.244
REMARK  Name = 
REMARK  8 active torsions:
REMARK  status: ('A' for Active; 'I' for Inactive)
REMARK    1  A    between atoms: N_4  and  C_24
REMARK    2  A    between atoms: C_7  and  C_8
REMARK    3  A    between atoms: C_10  and  N_11
REMARK    4  A    between atoms: C_12  and  C_14
REMARK    5  A    between atoms: C_14  and  C_15
REMARK    6  A    between atoms: C_15  and  C_18
REMARK    7  A    between atoms: C_18  and  C_19
REMARK    8  A    between atoms: C_27  and  C_30
REMARK                            x       y       z     vdW  Elec       q    Type
REMARK                         _______ _______ _______ _____ _____    ______ ____
ROOT
ATOM      1  C   UNL     1      -0.066   2.722  26.471  0.00  0.00    +0.054 C 
ATOM      2  C   UNL     1      -0.080   2.435  25.696  0.00  0.00    +0.077 A 
ATOM      3  N   UNL     1       0.474   1.928  25.358  0.00  0.00    -0.170 NA
ATOM      4  N   UNL     1       0.246   1.785  24.578  0.00  0.00    -0.234 N 
ATOM      5  C   UNL     1      -0.450   2.204  24.435  0.00  0.00    +0.058 A 
ATOM      6  C   UNL     1      -0.871   2.218  23.725  0.00  0.00    +0.052 C 
ATOM      7  C   UNL     1      -0.652   2.606  25.127  0.00  0.00    +0.010 A 
ENDROOT
BRANCH   4  24
ATOM     24  C   UNL     1       0.643   1.306  24.035  0.00  0.00    +0.082 A 
ATOM     25  C   UNL     1       1.365   1.553  23.721  0.00  0.00    +0.019 A 
ATOM     26  C   UNL     1       1.763   1.074  23.179  0.00  0.00    +0.005 A 
ATOM     27  C   UNL     1       1.439   0.351  22.951  0.00  0.00    +0.072 A 
ATOM     28  C   UNL     1       0.717   0.104  23.266  0.00  0.00    +0.005 A 
ATOM     29  C   UNL     1       0.319   0.583  23.809  0.00  0.00    +0.019 A 
BRANCH  27  30
ATOM     30  C   UNL     1       1.837  -0.128  22.409  0.00  0.00    +0.419 C 
ATOM     31  F   UNL     1       2.233  -0.606  21.867  0.00  0.00    -0.166 F 
ATOM     32  F   UNL     1       2.538  -0.023  22.831  0.00  0.00    -0.166 F 
ATOM     33  F   UNL     1       1.135  -0.232  21.988  0.00  0.00    -0.166 F 
ENDBRANCH  27  30
ENDBRANCH   4  24
BRANCH   7   8
ATOM      8  C   UNL     1      -1.310   3.093  25.230  0.00  0.00    +0.048 C 
ATOM      9  C   UNL     1      -2.074   2.845  25.416  0.00  0.00    +0.035 C 
ATOM     10  C   UNL     1      -2.554   3.513  25.465  0.00  0.00    +0.118 C 
ATOM     22  C   UNL     1      -2.087   4.175  25.308  0.00  0.00    -0.009 C 
ATOM     23  C   UNL     1      -1.319   3.916  25.163  0.00  0.00    -0.025 C 
BRANCH  10  11
ATOM     11  N   UNL     1      -3.361   3.520  25.640  0.00  0.00    -0.203 NA
ATOM     12  C   UNL     1      -3.912   3.336  25.055  0.00  0.00    +0.242 C 
ATOM     13  O   UNL     1      -3.658   3.145  24.294  0.00  0.00    -0.273 OA
BRANCH  12  14
ATOM     14  C   UNL     1      -4.718   3.343  25.231  0.00  0.00    +0.087 C 
BRANCH  14  15
ATOM     15  C   UNL     1      -5.138   2.634  25.271  0.00  0.00    +0.019 C 
ATOM     16  C   UNL     1      -5.247   2.744  26.081  0.00  0.00    +0.001 C 
ATOM     17  C   UNL     1      -5.029   2.523  24.461  0.00  0.00    +0.001 C 
BRANCH  15  18
ATOM     18  C   UNL     1      -5.557   1.924  25.311  0.00  0.00    +0.115 C 
BRANCH  18  19
ATOM     19  C   UNL     1      -6.375   1.934  25.421  0.00  0.00    +0.365 C 
ATOM     20  O   UNL     1      -6.689   1.946  26.184  0.00  0.00    -0.246 OA
ATOM     21  O   UNL     1      -6.879   1.933  24.768  0.00  0.00    -0.246 OA
ENDBRANCH  18  19
ENDBRANCH  15  18
ENDBRANCH  14  15
ENDBRANCH  12  14
ENDBRANCH  10  11
ENDBRANCH   7   8
TORSDOF 8
ENDMDL
MODEL 9
REMARK VINA RESULT:     -10.1      3.766      6.573
REMARK  Name = 
REMARK  8 active torsions:
REMARK  status: ('A' for Active; 'I' for Inactive)
REMARK    1  A    between atoms: N_4  and  C_24
REMARK    2  A    between atoms: C_7  and  C_8
REMARK    3  A    between atoms: C_10  and  N_11
REMARK    4  A    between atoms: C_12  and  C_14
REMARK    5  A    between atoms: C_14  and  C_15
REMARK    6  A    between atoms: C_15  and  C_18
REMARK    7  A    between atoms: C_18  and  C_19
REMARK    8  A    between atoms: C_27  and  C_30
REMARK                            x       y       z     vdW  Elec       q    Type
REMARK                         _______ _______ _______ _____ _____    ______ ____
ROOT
ATOM      1  C   UNL     1       0.649  -0.150  23.401  0.00  0.00    +0.054 C 
ATOM      2  C   UNL     1      -0.062  -0.293  23.795  0.00  0.00    +0.077 A 
ATOM      3  N   UNL     1      -0.502  -0.989  23.762  0.00  0.00    -0.170 NA
ATOM      4  N   UNL     1      -1.170  -0.892  24.237  0.00  0.00    -0.234 N 
ATOM      5  C   UNL     1      -1.141  -0.135  24.565  0.00  0.00    +0.058 A 
ATOM      6  C   UNL     1      -1.700   0.194  25.076  0.00  0.00    +0.052 C 
ATOM      7  C   UNL     1      -0.456   0.235  24.292  0.00  0.00    +0.010 A 
ENDROOT
BRANCH   4  24
ATOM     24  C   UNL     1      -1.762  -1.453  24.364  0.00  0.00    +0.082 A 
ATOM     25  C   UNL     1      -1.569  -2.191  24.676  0.00  0.00    +0.019 A 
ATOM     26  C   UNL     1      -2.162  -2.752  24.802  0.00  0.00    +0.005 A 
ATOM     27  C   UNL     1      -2.945  -2.574  24.616  0.00  0.00    +0.072 A 
ATOM     28  C   UNL     1      -3.138  -1.835  24.304  0.00  0.00    +0.005 A 
ATOM     29  C   UNL     1      -2.545  -1.274  24.178  0.00  0.00    +0.019 A 
BRANCH  27  30
ATOM     30  C   UNL     1      -3.537  -3.135  24.742  0.00  0.00    +0.419 C 
ATOM     31  F   UNL     1      -4.129  -3.696  24.868  0.00  0.00    -0.166 F 
ATOM     32  F   UNL     1      -3.541  -2.950  25.547  0.00  0.00    -0.166 F 
ATOM     33  F   UNL     1      -3.533  -3.320  23.939  0.00  0.00    -0.166 F 
ENDBRANCH  27  30
ENDBRANCH   4  24
BRANCH   7   8
ATOM      8  C   UNL     1      -0.210   1.000  24.482  0.00  0.00    +0.048 C 
ATOM      9  C   UNL     1      -0.615   1.536  24.959  0.00  0.00    +0.035 C 
ATOM     10  C   UNL     1      -0.171   2.228  25.000  0.00  0.00    +0.118 C 
ATOM     22  C   UNL     1       0.511   2.120  24.548  0.00  0.00    -0.009 C 
ATOM     23  C   UNL     1       0.487   1.361  24.228  0.00  0.00    -0.025 C 
BRANCH  10  11
ATOM     11  N   UNL     1      -0.371   2.910  25.419  0.00  0.00    -0.203 NA
ATOM     12  C   UNL     1      -0.803   3.509  25.051  0.00  0.00    +0.242 C 
ATOM     13  O   UNL     1      -1.036   3.427  24.264  0.00  0.00    -0.273 OA
BRANCH  12  14
ATOM     14  C   UNL     1      -1.003   4.191  25.471  0.00  0.00    +0.087 C 
BRANCH  14  15
ATOM     15  C   UNL     1      -1.773   4.486  25.437  0.00  0.00    +0.019 C 
ATOM     16  C   UNL     1      -2.031   3.863  25.913  0.00  0.00    +0.001 C 
ATOM     17  C   UNL     1      -1.514   5.108  24.962  0.00  0.00    +0.001 C 
BRANCH  15  18
ATOM     18  C   UNL     1      -2.542   4.780  25.404  0.00  0.00    +0.115 C 
BRANCH  18  19
ATOM     19  C   UNL     1      -3.110   4.513  25.940  0.00  0.00    +0.365 C 
ATOM     20  O   UNL     1      -3.733   4.039  25.679  0.00  0.00    -0.246 OA
ATOM     21  O   UNL     1      -3.054   4.719  26.737  0.00  0.00    -0.246 OA
ENDBRANCH  18  19
ENDBRANCH  15  18
ENDBRANCH  14  15
ENDBRANCH  12  14
ENDBRANCH  10  11
ENDBRANCH   7   8
TORSDOF 8
ENDMDL
