REMARK  Name = 
REMARK  6 active torsions:
REMARK  status: ('A' for Active; 'I' for Inactive)
REMARK    1  A    between atoms: C_3  and  C_4
REMARK    2  A    between atoms: C_4  and  N_5
REMARK    3  A    between atoms: C_6  and  C_8
REMARK    4  A    between atoms: C_13  and  N_14
REMARK    5  A    between atoms: N_14  and  C_15
REMARK    6  A    between atoms: C_15  and  C_16
REMARK                            x       y       z     vdW  Elec       q    Type
REMARK                         _______ _______ _______ _____ _____    ______ ____
ROOT
ATOM      1  O   UNL     1       1.044  -2.698   0.000  0.00  0.00    -0.219 OA
ATOM      2  C   UNL     1       0.431  -3.250   0.000  0.00  0.00    +0.199 C 
ATOM      3  C   UNL     1       0.517  -4.071   0.000  0.00  0.00    +0.169 C 
ATOM     11  O   UNL     1      -0.236  -4.406   0.000  0.00  0.00    -0.350 OA
ATOM     12  C   UNL     1      -0.788  -3.793   0.000  0.00  0.00    +0.162 C 
ATOM     13  C   UNL     1      -0.376  -3.079   0.000  0.00  0.00    +0.135 C 
ENDROOT
BRANCH   3   4
ATOM      4  C   UNL     1       1.232  -4.483   0.000  0.00  0.00    +0.147 C 
BRANCH   4   5
ATOM      5  N   UNL     1       1.232  -5.308   0.000  0.00  0.00    -0.203 NA
ATOM      6  C   UNL     1       1.946  -5.721   0.000  0.00  0.00    +0.241 C 
ATOM      7  O   UNL     1       2.661  -5.308   0.000  0.00  0.00    -0.273 OA
BRANCH   6   8
ATOM      8  C   UNL     1       1.946  -6.546   0.000  0.00  0.00    +0.078 C 
ATOM      9  C   UNL     1       2.359  -7.260   0.000  0.00  0.00    +0.010 C 
ATOM     10  C   UNL     1       1.534  -7.260   0.000  0.00  0.00    +0.010 C 
ENDBRANCH   6   8
ENDBRANCH   4   5
ENDBRANCH   3   4
BRANCH  13  14
ATOM     14  N   UNL     1      -0.711  -2.325   0.000  0.00  0.00    -0.209 NA
BRANCH  14  15
ATOM     15  C   UNL     1      -1.532  -2.239   0.000  0.00  0.00    +0.117 C 
BRANCH  15  16
ATOM     16  C   UNL     1      -1.867  -1.485   0.000  0.00  0.00    +0.014 A 
ATOM     17  C   UNL     1      -2.688  -1.399   0.000  0.00  0.00    +0.000 A 
ATOM     18  C   UNL     1      -3.023  -0.645   0.000  0.00  0.00    +0.020 A 
ATOM     19  C   UNL     1      -2.538   0.022   0.000  0.00  0.00    +0.099 A 
ATOM     20  N   UNL     1      -1.718  -0.064   0.000  0.00  0.00    -0.243 NA
ATOM     21  C   UNL     1      -1.382  -0.818   0.000  0.00  0.00    +0.096 A 
ENDBRANCH  15  16
ENDBRANCH  14  15
ENDBRANCH  13  14
TORSDOF 6
