REMARK  Name = 
REMARK  5 active torsions:
REMARK  status: ('A' for Active; 'I' for Inactive)
REMARK    1  A    between atoms: C_2  and  O_5
REMARK    2  A    between atoms: O_5  and  C_6
REMARK    3  A    between atoms: C_9  and  C_12
REMARK    4  A    between atoms: N_18  and  S_20
REMARK    5  A    between atoms: S_20  and  C_23
REMARK                            x       y       z     vdW  Elec       q    Type
REMARK                         _______ _______ _______ _____ _____    ______ ____
ROOT
ATOM     12  C   UNL     1      -0.397  -0.039   0.000  0.00  0.00    +0.012 A 
ATOM     13  C   UNL     1       0.244  -0.558   0.000  0.00  0.00    +0.041 A 
ATOM     14  C   UNL     1       1.163  -0.557   0.000  0.00  0.00    +0.056 C 
ATOM     15  C   UNL     1       1.713  -0.121   0.000  0.00  0.00    +0.011 C 
ATOM     16  C   UNL     1       1.582  -0.925   0.000  0.00  0.00    +0.041 C 
ATOM     17  C   UNL     1       1.629  -1.912   0.000  0.00  0.00    +0.098 C 
ATOM     18  N   UNL     1       0.813  -2.091   0.000  0.00  0.00    -0.155 NA
ATOM     19  C   UNL     1       1.225  -1.510   0.000  0.00  0.00    +0.102 C 
ATOM     29  C   UNL     1       0.622  -0.936   0.000  0.00  0.00    +0.110 C 
ATOM     30  N   UNL     1       0.115  -1.373   0.000  0.00  0.00    -0.299 N 
ATOM     31  C   UNL     1      -0.655  -1.669   0.000  0.00  0.00    +0.261 A 
ATOM     32  O   UNL     1      -0.784  -2.484   0.000  0.00  0.00    -0.267 OA
ATOM     33  C   UNL     1      -1.296  -1.150   0.000  0.00  0.00    +0.061 A 
ATOM     34  C   UNL     1      -1.167  -0.335   0.000  0.00  0.00    +0.006 A 
ENDROOT
BRANCH  12   9
ATOM      6  C   UNL     1      -0.010   2.406   0.000  0.00  0.00    +0.147 A 
ATOM      7  C   UNL     1       0.631   1.887   0.000  0.00  0.00    +0.037 A 
ATOM      8  C   UNL     1       0.502   1.072   0.000  0.00  0.00    +0.003 A 
ATOM      9  C   UNL     1      -0.268   0.776   0.000  0.00  0.00    +0.001 A 
ATOM     10  C   UNL     1      -0.909   1.295   0.000  0.00  0.00    +0.003 A 
ATOM     11  C   UNL     1      -0.780   2.110   0.000  0.00  0.00    +0.037 A 
BRANCH   6   5
ATOM      5  O   UNL     1       0.119   3.220   0.000  0.00  0.00    -0.404 OA
BRANCH   5   2
ATOM      1  F   UNL     1      -1.163   4.259   0.000  0.00  0.00    -0.133 F 
ATOM      2  C   UNL     1      -0.522   3.740   0.000  0.00  0.00    +0.575 C 
ATOM      3  F   UNL     1      -1.041   3.098   0.000  0.00  0.00    -0.133 F 
ATOM      4  F   UNL     1      -0.003   4.381   0.000  0.00  0.00    -0.133 F 
ENDBRANCH   5   2
ENDBRANCH   6   5
ENDBRANCH  12   9
BRANCH  18  20
ATOM     20  S   UNL     1       0.125  -2.547   0.000  0.00  0.00    +0.063 S 
ATOM     21  O   UNL     1      -0.331  -1.859   0.000  0.00  0.00    -0.153 OA
ATOM     22  O   UNL     1       0.581  -3.235   0.000  0.00  0.00    -0.153 OA
BRANCH  20  23
ATOM     23  C   UNL     1      -0.563  -3.003   0.000  0.00  0.00    +0.122 A 
ATOM     24  C   UNL     1      -0.512  -3.826   0.000  0.00  0.00    +0.020 A 
ATOM     25  C   UNL     1      -1.200  -4.282   0.000  0.00  0.00    +0.001 A 
ATOM     26  C   UNL     1      -1.938  -3.914   0.000  0.00  0.00    +0.000 A 
ATOM     27  C   UNL     1      -1.989  -3.091   0.000  0.00  0.00    +0.001 A 
ATOM     28  C   UNL     1      -1.301  -2.635   0.000  0.00  0.00    +0.020 A 
ENDBRANCH  20  23
ENDBRANCH  18  20
TORSDOF 5
